data_image0
_chemical_formula_structural       Cd4H48C56S16N8
_chemical_formula_sum              "Cd4 H48 C56 S16 N8"
_cell_length_a       7.305691345
_cell_length_b       14.822450472908148
_cell_length_c       17.262
_cell_angle_alpha    90.95992298377311
_cell_angle_beta     90.0
_cell_angle_gamma    90.0

_space_group_name_H-M_alt    "P 1"
_space_group_IT_number       1

loop_
  _space_group_symop_operation_xyz
  'x, y, z'

loop_
  _atom_site_type_symbol
  _atom_site_label
  _atom_site_symmetry_multiplicity
  _atom_site_fract_x
  _atom_site_fract_y
  _atom_site_fract_z
  _atom_site_occupancy
  Cd  Cd1       1.0  0.7535193782539977  0.5295967550908427  0.531753562496867  1.0000
  Cd  Cd2       1.0  0.2535037291532305  0.9704035557650881  0.9682413151066598  1.0000
  Cd  Cd3       1.0  0.24648591282636545  0.4704032272307899  0.46823954349375196  1.0000
  Cd  Cd4       1.0  0.7464823987852185  0.029601149785364093  0.03175765190104579  1.0000
  H   H1        1.0  0.1528958653262151  0.5963980550919956  0.6515512780349013  1.0000
  H   H2        1.0  0.6528868761016611  0.9035921345593179  0.8484480884280997  1.0000
  H   H3        1.0  0.8471066881624483  0.4035877575431641  0.3484462585761107  1.0000
  H   H4        1.0  0.3471019894284879  0.0964125709911343  0.151554354422494  1.0000
  H   H5        1.0  0.09499443204303763  0.2719770106105344  0.6334119802602132  1.0000
  H   H6        1.0  0.5949909180018906  0.22802129368284335  0.8665845484688076  1.0000
  H   H7        1.0  0.9050067526497758  0.7280236464580696  0.36657650097973254  1.0000
  H   H8        1.0  0.4050034227116655  0.7719807128797098  0.1334178555557273  1.0000
  H   H9        1.0  0.9059950232540217  0.6858964938321463  0.6591949080781419  1.0000
  H   H10       1.0  0.40598074294911163  0.8140963948070592  0.8408044972109181  1.0000
  H   H11       1.0  0.09401574300974151  0.3140818965862877  0.34080483898981834  1.0000
  H   H12       1.0  0.5940094913768876  0.1859096602373427  0.15919101336692168  1.0000
  H   H13       1.0  0.7738501030253957  0.8358009807461071  0.6861254162518761  1.0000
  H   H14       1.0  0.2738399291080356  0.6641905583991558  0.8138722317027103  1.0000
  H   H15       1.0  0.2261456064840104  0.16417133694955766  0.3138858296004301  1.0000
  H   H16       1.0  0.7261544116055207  0.3358141471512964  0.1861209422335079  1.0000
  H   H17       1.0  0.9783112456415994  0.9716896234990953  0.6963197160813903  1.0000
  H   H18       1.0  0.4783024405200891  0.5283019156461604  0.803678511180351  1.0000
  H   H19       1.0  0.021668038317599805  0.028287417425389094  0.30369623217370634  1.0000
  H   H20       1.0  0.521696006581017  0.4717027899042917  0.19631987652020647  1.0000
  H   H21       1.0  0.3130285543154159  0.9535827884297985  0.6768129203803568  1.0000
  H   H22       1.0  0.8130181962950118  0.5464087507154642  0.8231974723315005  1.0000
  H   H23       1.0  0.686947992052076  0.04640504844628879  0.32320260387181315  1.0000
  H   H24       1.0  0.18697888201024435  0.4535973043289374  0.17681020369645487  1.0000
  H   H25       1.0  0.4461973338404165  0.8027754900635315  0.649573398938017  1.0000
  H   H26       1.0  0.9461815006366123  0.6972146995877821  0.8504474018894896  1.0000
  H   H27       1.0  0.5538011132606897  0.19721841953532498  0.35043757821558336  1.0000
  H   H28       1.0  0.0538046273018367  0.3027920302035979  0.1495660769164715  1.0000
  H   H29       1.0  0.0211369455275019  0.1877739861287679  0.7503654399263978  1.0000
  H   H30       1.0  0.5211334314863549  0.3122351141162056  0.7496358785640425  1.0000
  H   H31       1.0  0.9788615015736044  0.8122273456868072  0.2496317406272937  1.0000
  H   H32       1.0  0.47885543404380126  0.6877749894100444  0.25036606263152084  1.0000
  H   H33       1.0  0.0855552158561679  0.17579250409688285  0.8913163579196988  1.0000
  H   H34       1.0  0.5855558082025709  0.3242246931117876  0.6086856563560517  1.0000
  H   H35       1.0  0.9144322808781382  0.82421422569449  0.1086809002861031  1.0000
  H   H36       1.0  0.4144508516736424  0.6757914831372389  0.3913163721981333  1.0000
  H   H37       1.0  0.21167469674973205  0.3067143343682303  0.9651931184233931  1.0000
  H   H38       1.0  0.7116752890961353  0.1933048870813678  0.5348031319004107  1.0000
  H   H39       1.0  0.788319643963824  0.6932896964352508  0.03480120442060299  1.0000
  H   H40       1.0  0.28835327151369233  0.8067146629025286  0.46519778657204097  1.0000
  H   H41       1.0  0.2822019029603524  0.4497924061379307  0.8965225871906242  1.0000
  H   H42       1.0  0.7821874385523984  0.0502220920828407  0.6034672228089519  1.0000
  H   H43       1.0  0.717817076078511  0.5502089256776515  0.10346532444868468  1.0000
  H   H44       1.0  0.2178205901196577  0.9497940841661785  0.3965324885166409  1.0000
  H   H45       1.0  0.22059787690086102  0.4611315290497798  0.7548255499029749  1.0000
  H   H46       1.0  0.7205793061053571  0.03887419746031639  0.7451629752976245  1.0000
  H   H47       1.0  0.7794279461172595  0.5388623805490695  0.24516341357897886  1.0000
  H   H48       1.0  0.2794191409957492  0.9611372555598834  0.2548326129323328  1.0000
  C   C1        1.0  0.403288321510658  0.6126216713545672  0.6071646869454526  1.0000
  C   C2        1.0  0.9032738571027041  0.8873685182967392  0.8928387346675917  1.0000
  C   C3        1.0  0.5967210759572552  0.3873675150154625  0.3928352154267287  1.0000
  C   C4        1.0  0.09671774601914512  0.1126361872537132  0.10715965303296568  1.0000
  C   C5        1.0  0.1849120002755882  0.7344823245010514  0.6519839755128272  1.0000
  C   C6        1.0  0.6848934294800844  0.7655065156563123  0.848025219758675  1.0000
  C   C7        1.0  0.815093290804775  0.2655028133871298  0.3480245582275003  1.0000
  C   C8        1.0  0.315092698458372  0.2345002141350676  0.1519789901329034  1.0000
  C   C9        1.0  0.9954732080184812  0.7446811250254581  0.6629504090862851  1.0000
  C   C10       1.0  0.495463034101121  0.7553077151318988  0.837054151728033  1.0000
  C   C11       1.0  0.004530714266032002  0.2552999643808747  0.3370563284935102  1.0000
  C   C12       1.0  0.5045299378165851  0.24469766516552474  0.16294540429333887  1.0000
  C   C13       1.0  0.9212926856821682  0.8295926338307849  0.678068316094631  1.0000
  C   C14       1.0  0.42128388056065813  0.6703982305674996  0.8219333773034875  1.0000
  C   C15       1.0  0.0786989174396879  0.17038373234672824  0.3219435673039115  1.0000
  C   C16       1.0  0.5787090913570481  0.3296071497299308  0.17806328218213707  1.0000
  C   C17       1.0  0.03485501754386181  0.9052769777554416  0.6829700662955174  1.0000
  C   C18       1.0  0.5348460283193077  0.5947132118958649  0.817035093238978  1.0000
  C   C19       1.0  0.9651311103945945  0.0947014126629924  0.3170459013726017  1.0000
  C   C20       1.0  0.4651524187817985  0.4052908189076092  0.1829673399051046  1.0000
  C   C21       1.0  0.2231246740413724  0.8950660317854895  0.6720544370338928  1.0000
  C   C22       1.0  0.7231088408375683  0.604924832612795  0.8279542080500093  1.0000
  C   C23       1.0  0.7768641914887768  0.1049211303436195  0.3279599188974628  1.0000
  C   C24       1.0  0.2768854998759878  0.3950818971785849  0.1720500018415763  1.0000
  C   C25       1.0  0.2992872127695918  0.8103340056754644  0.6568591675717386  1.0000
  C   C26       1.0  0.799271379565788  0.6896561839758419  0.8431575781057247  1.0000
  C   C27       1.0  0.7007098655356644  0.18965383120061566  0.3431528808375361  1.0000
  C   C28       1.0  0.20071885476021126  0.3103512205625094  0.1568530138710074  1.0000
  C   C29       1.0  0.9916323668612393  0.3963193831304039  0.6247934437225309  1.0000
  C   C30       1.0  0.4916290369231292  0.10368094540390158  0.8752036934331853  1.0000
  C   C31       1.0  0.0083742930149739  0.6036812739381998  0.37520488573893823  1.0000
  C   C32       1.0  0.508372147769677  0.8963203864116807  0.12479348712050607  1.0000
  C   C33       1.0  0.11265052972204613  0.3263170834807028  0.7448853773888899  1.0000
  C   C34       1.0  0.6126346965182423  0.17368391980057393  0.7551100315518937  1.0000
  C   C35       1.0  0.8873629741334241  0.6736795251060526  0.2551053628405668  1.0000
  C   C36       1.0  0.3873637505828711  0.8263194362559287  0.2448918125785227  1.0000
  C   C37       1.0  0.07803094506451203  0.24513220221731294  0.7826683740926228  1.0000
  C   C38       1.0  0.5780192182482651  0.2548721747988408  0.7173299799164778  1.0000
  C   C39       1.0  0.9219716084241443  0.7548671053573413  0.2173229842700408  1.0000
  C   C40       1.0  0.4219751224652911  0.7451332054985895  0.2826713140263379  1.0000
  C   C41       1.0  0.1133664099519933  0.23871805747467076  0.8617378465270633  1.0000
  C   C42       1.0  0.6133519455440393  0.2612937417582017  0.6382617728679847  1.0000
  C   C43       1.0  0.886634774740813  0.7612812500999837  0.1382540911427483  1.0000
  C   C44       1.0  0.3866465015570668  0.738720410249897  0.36174138518095583  1.0000
  C   C45       1.0  0.1848216597494385  0.3124233685221823  0.9033142905396119  1.0000
  C   C46       1.0  0.6848099329331845  0.1875897802046396  0.596680713811274  1.0000
  C   C47       1.0  0.8151781561475178  0.6875772885464215  0.09668172169326539  1.0000
  C   C48       1.0  0.3152008333305787  0.8124230223095097  0.4033172110602976  1.0000
  C   C49       1.0  0.2229905320479943  0.39251381019241893  0.8648568776422678  1.0000
  C   C50       1.0  0.7229733300483405  0.10749663954651108  0.6351340327325232  1.0000
  C   C51       1.0  0.777028446990869  0.6074854973822355  0.13513274279895165  1.0000
  C   C52       1.0  0.2770319610320158  0.8925141387267175  0.36486560094095205  1.0000
  C   C53       1.0  0.18753187553394923  0.3998833966514041  0.7857125156378117  1.0000
  C   C54       1.0  0.6875091983508954  0.100121655111721  0.7142765791634247  1.0000
  C   C55       1.0  0.812493947484171  0.6001138866823297  0.2142764963767121  1.0000
  C   C56       1.0  0.312490617546068  0.8998884484145291  0.28571841034635526  1.0000
  S   S1        1.0  0.4169009962465112  0.4951124614487056  0.6036204855485678  1.0000
  S   S2        1.0  0.9168933758178073  0.0048838186037514  0.8963731175251723  1.0000
  S   S3        1.0  0.5831056636297023  0.5048780744152808  0.3963707466294081  1.0000
  S   S4        1.0  0.08309548971234193  0.995124260681578  0.10362879455084338  1.0000
  S   S5        1.0  0.5726124746377437  0.6772172234950345  0.5703323634663134  1.0000
  S   S6        1.0  0.0725927191494264  0.8227790388790479  0.929677517883995  1.0000
  S   S7        1.0  0.4273996604218695  0.3227793850917209  0.4296717008275621  1.0000
  S   S8        1.0  0.9274098343392299  0.1772283656593032  0.0703116397282386  1.0000
  S   S9        1.0  0.9135849962465131  0.4926786491105303  0.6681307180411196  1.0000
  S   S10       1.0  0.41358577269596  0.007321004676796898  0.8318669887152339  1.0000
  S   S11       1.0  0.0864202948338502  0.5073193089701746  0.3318681519014461  1.0000
  S   S12       1.0  0.5864195183844034  0.992683026126677  0.1681296513573614  1.0000
  S   S13       1.0  0.9562613132816367  0.3741195329118411  0.5270780753407607  1.0000
  S   S14       1.0  0.4562579833435337  0.1258780966345583  0.9729172850674531  1.0000
  S   S15       1.0  0.0437371338194694  0.6258858473855824  0.4729168462234199  1.0000
  S   S16       1.0  0.5437349885741725  0.874118511952197  0.027079248233491195  1.0000
  N   N1        1.0  0.2479094605111598  0.6455756388578138  0.6389891083429973  1.0000
  N   N2        1.0  0.7478936273073558  0.8544172497813918  0.8610166693246981  1.0000
  N   N3        1.0  0.7520971993650534  0.3544135475122161  0.3610131112577761  1.0000
  N   N4        1.0  0.2520883942435432  0.1455881305160318  0.13898636253956195  1.0000
  N   N5        1.0  0.0748019556525605  0.3302090240314683  0.6644367880347914  1.0000
  N   N6        1.0  0.5747902288363136  0.1697926539967867  0.8355563133839112  1.0000
  N   N7        1.0  0.9252129169987526  0.669789608796215  0.3355568778499531  1.0000
  N   N8        1.0  0.4252109558564996  0.8302127263006438  0.16443976679455827  1.0000
