data_image0
_chemical_formula_structural       Rb4H24C28N4O24
_chemical_formula_sum              "Rb4 H24 C28 N4 O24"
_cell_length_a       6.859012127124506
_cell_length_b       11.829180109968448
_cell_length_c       11.786747954178928
_cell_angle_alpha    90.00050656452058
_cell_angle_beta     89.99945047124015
_cell_angle_gamma    107.65737949184984

_space_group_name_H-M_alt    "P 1"
_space_group_IT_number       1

loop_
  _space_group_symop_operation_xyz
  'x, y, z'

loop_
  _atom_site_type_symbol
  _atom_site_label
  _atom_site_symmetry_multiplicity
  _atom_site_fract_x
  _atom_site_fract_y
  _atom_site_fract_z
  _atom_site_occupancy
  Rb  Rb1       1.0  0.23699105374300436  0.10928263072960931  0.8874557868400361  1.0000
  Rb  Rb2       1.0  0.2630155473895003  0.8907155402428304  0.38745026080944467  1.0000
  Rb  Rb3       1.0  0.7630105691283761  0.8907150795943084  0.11254515242002583  1.0000
  Rb  Rb4       1.0  0.7369791729320951  0.1092829649827536  0.6125515268848362  1.0000
  H   H1        1.0  0.6018393254029775  0.11526135908896151  0.3057972771858886  1.0000
  H   H2        1.0  0.8981718788337005  0.8847479263434509  0.805780899614291  1.0000
  H   H3        1.0  0.3981838080538154  0.8847445549869875  0.6942104493320329  1.0000
  H   H4        1.0  0.10182887657796871  0.11524801003525913  0.19422003964026402  1.0000
  H   H5        1.0  0.5992215439762489  0.3493950113545594  0.5015894175635937  1.0000
  H   H6        1.0  0.9007935135186784  0.6506184865055219  0.0015766655959624006  1.0000
  H   H7        1.0  0.4007753449736953  0.6506079287449608  0.498415763786227  1.0000
  H   H8        1.0  0.09921387678347318  0.3493731254931164  0.998422576798703  1.0000
  H   H9        1.0  0.5985107034511471  0.5459906160509574  0.4221841849575442  1.0000
  H   H10       1.0  0.9015091701254503  0.45402219050883713  0.9221715154307689  1.0000
  H   H11       1.0  0.40147988274418356  0.45401136341976667  0.5778218448167749  1.0000
  H   H12       1.0  0.09850245593356993  0.5459721192070006  0.07781839444893282  1.0000
  H   H13       1.0  0.5886227730567909  0.4083680165855199  0.08251822840205851  1.0000
  H   H14       1.0  0.9113852141685895  0.5916335849563554  0.5825033561267292  1.0000
  H   H15       1.0  0.4113757492028896  0.5916322994311258  0.9174886497519595  1.0000
  H   H16       1.0  0.08861667640395156  0.4083676548240974  0.41749164427550073  1.0000
  H   H17       1.0  0.7354619317001505  0.12079190892448112  0.9496089309447486  1.0000
  H   H18       1.0  0.7645295225780441  0.879208380475063  0.4496024431911537  1.0000
  H   H19       1.0  0.2645418598152673  0.8792102362651661  0.050392856739542004  1.0000
  H   H20       1.0  0.23546003013411365  0.12079446753166682  0.5503967993066186  1.0000
  H   H21       1.0  0.6551474193560336  0.010912179446954402  0.871381831110007  1.0000
  H   H22       1.0  0.8448452672922997  0.9890911355472126  0.3713818097684013  1.0000
  H   H23       1.0  0.34485387138994394  0.9890908158803601  0.1286182597645649  1.0000
  H   H24       1.0  0.15514531894488207  0.0109108439016552  0.6286174327224077  1.0000
  C   C1        1.0  0.5970818471016698  0.286828017936152  0.2167056408814006  1.0000
  C   C2        1.0  0.902917850390203  0.7131787723365762  0.7166859820080947  1.0000
  C   C3        1.0  0.4029165091031572  0.7131749405780996  0.7832995404642134  1.0000
  C   C4        1.0  0.09707877094228932  0.28682063826267523  0.28331156363255167  1.0000
  C   C5        1.0  0.5979433346052189  0.2703978262516671  0.3365520223654884  1.0000
  C   C6        1.0  0.9020622211448879  0.7296098280860264  0.8365316691819803  1.0000
  C   C7        1.0  0.4020648586329898  0.7296043742040297  0.6634565525896934  1.0000
  C   C8        1.0  0.09793299739882139  0.2703807496166988  0.16346587642268423  1.0000
  C   C9        1.0  0.5957511603542187  0.3636574917875635  0.4105652332863202  1.0000
  C   C10       1.0  0.9042591855520783  0.6363533554810203  0.9105482631585746  1.0000
  C   C11       1.0  0.4042540984108527  0.6363446718195434  0.589437402804201  1.0000
  C   C12       1.0  0.09574407068658533  0.36364173072996664  0.08944504039087063  1.0000
  C   C13       1.0  0.5939122866190728  0.4714479222263392  0.36723146770737003  1.0000
  C   C14       1.0  0.9060920233089433  0.5285581557908401  0.8672118119793527  1.0000
  C   C15       1.0  0.40609047133993675  0.5285550915375695  0.6327754104465058  1.0000
  C   C16       1.0  0.0939080307815772  0.47143336410135117  0.13277724951107936  1.0000
  C   C17       1.0  0.5899345884987142  0.48658106752166225  0.2490564580102444  1.0000
  C   C18       1.0  0.9100701452819204  0.5134251178418977  0.749041732184388  1.0000
  C   C19       1.0  0.41006773574613214  0.5134210592614464  0.7509478749095637  1.0000
  C   C20       1.0  0.08993147765223601  0.4865725924492282  0.25094902615041553  1.0000
  C   C21       1.0  0.5923539147735893  0.3956497228569874  0.17391317428437258  1.0000
  C   C22       1.0  0.9076406075242288  0.6043540755962411  0.6738908035720146  1.0000
  C   C23       1.0  0.4076473759096046  0.6043532725031185  0.8260970975154652  1.0000
  C   C24       1.0  0.09235031091682798  0.39564261880823176  0.3260965611477148  1.0000
  C   C25       1.0  0.6016509178408213  0.18799164450002337  0.1384308320814398  1.0000
  C   C26       1.0  0.8983557801006654  0.8120120727032188  0.6384061577907973  1.0000
  C   C27       1.0  0.3983514063778627  0.812010482296749  0.8615777428905603  1.0000
  C   C28       1.0  0.10163410482582687  0.18798549025365927  0.3615795101150142  1.0000
  N   N1        1.0  0.582543393081643  0.5988073091096953  0.20578296592363193  1.0000
  N   N2        1.0  0.9174637753346246  0.40119950290686285  0.7057722690783237  1.0000
  N   N3        1.0  0.41745643037806707  0.4011956678192875  0.7942222154177758  1.0000
  N   N4        1.0  0.08253768155513806  0.5988008498763974  0.2942150956272016  1.0000
  O   O1        1.0  0.7834000359610299  0.0659046636471388  0.9008563328065552  1.0000
  O   O2        1.0  0.7165905522840603  0.9340952933100013  0.4008540169184515  1.0000
  O   O3        1.0  0.21660462302979516  0.9340992554795093  0.09914290965192414  1.0000
  O   O4        1.0  0.2833975331889036  0.065907536273798  0.599142680352209  1.0000
  O   O5        1.0  0.6042245076730025  0.16735288313549287  0.3797797451854166  1.0000
  O   O6        1.0  0.8957828496587225  0.8326568420259478  0.8797629089211728  1.0000
  O   O7        1.0  0.3958000930595986  0.832653049344252  0.6202245876865505  1.0000
  O   O8        1.0  0.10421573711413858  0.16733465948430393  0.12023633349872404  1.0000
  O   O9        1.0  0.6144298784494282  0.2043444875458604  0.03331875446603051  1.0000
  O   O10       1.0  0.8855876206873887  0.7956630795307761  0.5332999453539956  1.0000
  O   O11       1.0  0.3855657093004865  0.7956557916413232  0.9666881236963933  1.0000
  O   O12       1.0  0.11439839765182566  0.20434148721248846  0.4667103264976051  1.0000
  O   O13       1.0  0.5898377228839848  0.08664576784216393  0.18715716354405035  1.0000
  O   O14       1.0  0.9101740770672108  0.9133609794059226  0.6871358849856863  1.0000
  O   O15       1.0  0.410174272323701  0.9133582433881954  0.8128514114082324  1.0000
  O   O16       1.0  0.0898276474033892  0.0866429028967275  0.31286505430207984  1.0000
  O   O17       1.0  0.5645966589395214  0.6759911280444583  0.2744571030680306  1.0000
  O   O18       1.0  0.9353879858462973  0.3240105651140865  0.774447297863347  1.0000
  O   O19       1.0  0.43539512687753756  0.3240073403489347  0.7255438362242262  1.0000
  O   O20       1.0  0.06460750041949136  0.6759835420342455  0.2255409152417301  1.0000
  O   O21       1.0  0.5949795516587955  0.6159650947760227  0.1010475871965824  1.0000
  O   O22       1.0  0.905044014698781  0.3840421137045452  0.6010368073174563  1.0000
  O   O23       1.0  0.4050232063211324  0.3840379189769507  0.8989558973155457  1.0000
  O   O24       1.0  0.09496227766455693  0.6159591813064367  0.39895395101996206  1.0000
