data_image0
_chemical_formula_structural       Zn2H12C24N4Cl4O8
_chemical_formula_sum              "Zn2 H12 C24 N4 Cl4 O8"
_cell_length_a       7.860896941808929
_cell_length_b       7.86085244129087
_cell_length_c       11.779718868489196
_cell_angle_alpha    86.84010695241835
_cell_angle_beta     86.84027114702334
_cell_angle_gamma    76.58936589182136

_space_group_name_H-M_alt    "P 1"
_space_group_IT_number       1

loop_
  _space_group_symop_operation_xyz
  'x, y, z'

loop_
  _atom_site_type_symbol
  _atom_site_label
  _atom_site_symmetry_multiplicity
  _atom_site_fract_x
  _atom_site_fract_y
  _atom_site_fract_z
  _atom_site_occupancy
  Zn  Zn1       1.0  0.6001568622382008  0.39984094115845886  0.7499971712163926  1.0000
  Zn  Zn2       1.0  0.3998444488798468  0.6001616202226502  0.2500031745759728  1.0000
  H   H1        1.0  0.9697590591298065  0.42995109806084036  0.7788653824183169  1.0000
  H   H2        1.0  0.5700469962282001  0.030236407432816706  0.7211293260796906  1.0000
  H   H3        1.0  0.030241970615385586  0.570052772194167  0.22113492875863727  1.0000
  H   H4        1.0  0.42995560293059754  0.9697661439031434  0.2788692787966198  1.0000
  H   H5        1.0  0.7201104699434068  0.2714396370617039  0.5149376558771478  1.0000
  H   H6        1.0  0.7285587181564067  0.2798873578627622  0.985059431310688  1.0000
  H   H7        1.0  0.2798898393191394  0.7285616303051796  0.48506361619076427  1.0000
  H   H8        1.0  0.2714383137915917  0.7201113459644048  0.014942886456658798  1.0000
  H   H9        1.0  0.2764688782193829  0.24991436781090934  0.47528750070787845  1.0000
  H   H10       1.0  0.750081743697102  0.7235262866351563  0.024707015838607984  1.0000
  H   H11       1.0  0.7235311592951206  0.7500882180589274  0.5247120382328134  1.0000
  H   H12       1.0  0.24991559368576327  0.2764711323907463  0.9752910902646048  1.0000
  C   C1        1.0  0.2984328469141602  0.37566368684095164  0.6892770282133327  1.0000
  C   C2        1.0  0.6243223521917328  0.7015641714749351  0.8107217387165803  1.0000
  C   C3        1.0  0.7015709869347402  0.6243270850460689  0.3107253276295054  1.0000
  C   C4        1.0  0.3756710166825812  0.29843982645430595  0.18927712837398047  1.0000
  C   C5        1.0  0.1423690574659773  0.34214975759294225  0.634319718943807  1.0000
  C   C6        1.0  0.6578442818477155  0.8576264351095872  0.865677024747761  1.0000
  C   C7        1.0  0.8576315331694174  0.6578502009000573  0.365681587739516  1.0000
  C   C8        1.0  0.34215193004374805  0.14237621941189366  0.1343209428938223  1.0000
  C   C9        1.0  0.9808489609040264  0.3778457438309247  0.6943004653594542  1.0000
  C   C10       1.0  0.62214716947377  0.019149070704607103  0.8056969333678836  1.0000
  C   C11       1.0  0.019151906291824602  0.6221529009736528  0.30570172519518474  1.0000
  C   C12       1.0  0.3778541464566842  0.980853495491033  0.19430256316857  1.0000
  C   C13       1.0  0.8423726821302183  0.28839126793302944  0.5470362820193699  1.0000
  C   C14       1.0  0.7116070575434889  0.1576260116925638  0.9529591713051743  1.0000
  C   C15       1.0  0.15762919173352696  0.7116086757002903  0.4529641330038102  1.0000
  C   C16       1.0  0.28839483556986767  0.8423739511988587  0.04703784669437278  1.0000
  C   C17       1.0  0.9999721876472168  0.24939814850775127  0.4827937492919715  1.0000
  C   C18       1.0  0.7506018715317708  2.4400365546698126e-05  0.017202070268886885  1.0000
  C   C19       1.0  3.0678447224329225e-05  0.7506030795107467  0.5172074379674712  1.0000
  C   C20       1.0  0.24939957765938903  0.9999716459493445  0.9827967924929267  1.0000
  C   C21       1.0  0.15314542963880476  0.2763889006127585  0.52561062840023  1.0000
  C   C22       1.0  0.7236056792555345  0.8468498371236137  0.9743861716819566  1.0000
  C   C23       1.0  0.8468523227918469  0.7236124061025251  0.474390728476159  1.0000
  C   C24       1.0  0.2763926503580265  0.15314886628746652  0.025612706657518892  1.0000
  N   N1        1.0  0.8348495861311988  0.35156367443233444  0.6513739017518603  1.0000
  N   N2        1.0  0.6484348199826043  0.16514550110623116  0.8486216055065086  1.0000
  N   N3        1.0  0.1651504513833046  0.648438911437502  0.3486256371888317  1.0000
  N   N4        1.0  0.351568050924243  0.8348557317267904  0.15137873249702238  1.0000
  Cl  Cl1       1.0  0.00020368969857290062  0.17137473214591384  0.3489908083458388  1.0000
  Cl  Cl2       1.0  0.8286247326867408  0.9997923449659326  0.1510042418043298  1.0000
  Cl  Cl3       1.0  0.9997956225208782  0.8286252460212822  0.6510105407417156  1.0000
  Cl  Cl4       1.0  0.17137130703056155  0.00020507447606380158  0.8489973037267546  1.0000
  O   O1        1.0  0.2825303843776864  0.4300428364012561  0.788605495986509  1.0000
  O   O2        1.0  0.5699455506487678  0.7174648114071405  0.7113914938679216  1.0000
  O   O3        1.0  0.7174741699538668  0.5699505383738741  0.21139589896537103  1.0000
  O   O4        1.0  0.43004937801433835  0.2825378579740132  0.2886073654338118  1.0000
  O   O5        1.0  0.44524315008384713  0.34445067969707593  0.630668345529699  1.0000
  O   O6        1.0  0.655540205774706  0.5547537021669556  0.8693304195459034  1.0000
  O   O7        1.0  0.5547595630860583  0.6555453325000472  0.36933302259560447  1.0000
  O   O8        1.0  0.34445571511909634  0.4452502515993615  0.13066921199209247  1.0000
