data_image0
_chemical_formula_structural       Cd2H40C44N8O8
_chemical_formula_sum              "Cd2 H40 C44 N8 O8"
_cell_length_a       9.892399752922092
_cell_length_b       10.619293509641514
_cell_length_c       11.766964208390197
_cell_angle_alpha    110.7886083805745
_cell_angle_beta     98.96919306897426
_cell_angle_gamma    109.50773581434711

_space_group_name_H-M_alt    "P 1"
_space_group_IT_number       1

loop_
  _space_group_symop_operation_xyz
  'x, y, z'

loop_
  _atom_site_type_symbol
  _atom_site_label
  _atom_site_symmetry_multiplicity
  _atom_site_fract_x
  _atom_site_fract_y
  _atom_site_fract_z
  _atom_site_occupancy
  Cd  Cd1       1.0  0.542983416646095  0.6723910671601417  0.9185932163979231  1.0000
  Cd  Cd2       1.0  0.4570151872607441  0.3276103455916015  0.08140623672066032  1.0000
  H   H1        1.0  0.18165813309019535  0.47743077528376415  0.15771107944156165  1.0000
  H   H2        1.0  0.8183390233120562  0.522567305348737  0.8422845670746426  1.0000
  H   H3        1.0  0.28816622368017153  0.675182640398198  0.2341631366883022  1.0000
  H   H4        1.0  0.7118278984094674  0.3248154433356873  0.7658372263814073  1.0000
  H   H5        1.0  0.12661016140194906  0.5930701041554728  0.10005003156284434  1.0000
  H   H6        1.0  0.8733874832236735  0.40692908712493653  0.8999477343754875  1.0000
  H   H7        1.0  0.7495707312211053  0.06337563610717468  0.8013112733312012  1.0000
  H   H8        1.0  0.2504299820481393  0.9366235517207784  0.19868687938163287  1.0000
  H   H9        1.0  0.5800065461814512  0.0783656274680737  0.8206676806068459  1.0000
  H   H10       1.0  0.4199946438674902  0.9216346711248067  0.17933089041877548  1.0000
  H   H11       1.0  0.5864605465843694  0.9686133552108129  0.6669921252852903  1.0000
  H   H12       1.0  0.41354017812854954  0.0313858325001277  0.33300772853688443  1.0000
  H   H13       1.0  0.6596512403060829  0.04910142808694219  0.1074277456589812  1.0000
  H   H14       1.0  0.34035146656927406  0.9508999799445165  0.8925739242682766  1.0000
  H   H15       1.0  0.11600872304916979  0.1043494885387943  0.19502083134867124  1.0000
  H   H16       1.0  0.8839945242058603  0.8956508076354337  0.804979698635961  1.0000
  H   H17       1.0  0.9207298586052557  0.8013581643799624  0.06576325049494595  1.0000
  H   H18       1.0  0.07927235432489253  0.19864213306210135  0.9342354494555138  1.0000
  H   H19       1.0  0.7614951718282583  0.2836592456235323  0.12324171003422182  1.0000
  H   H20       1.0  0.23850558721567694  0.7163399417363365  0.8767632471159603  1.0000
  H   H21       1.0  0.8457184032713982  0.5514379346828944  0.24135095829291225  1.0000
  H   H22       1.0  0.1542808275024541  0.4485601433554223  0.7586491988462996  1.0000
  H   H23       1.0  0.24385270086205693  0.5799888848169632  0.48040188132755907  1.0000
  H   H24       1.0  0.7561504656274779  0.4200136341549481  0.5195976552484822  1.0000
  H   H25       1.0  0.15371466238315887  0.3102838683964251  0.3679242611062676  1.0000
  H   H26       1.0  0.8462915091500206  0.6897208697452017  0.6320772204996957  1.0000
  H   H27       1.0  0.2490759505568718  0.7820213532303697  0.6117482115412258  1.0000
  H   H28       1.0  0.7509288078027297  0.2179800524409501  0.3882545667903656  1.0000
  H   H29       1.0  0.36571057927145745  0.05548214574193369  0.7056734965333931  1.0000
  H   H30       1.0  0.6342905471774999  0.9445203754731041  0.29432663274764803  1.0000
  H   H31       1.0  0.09453936631452109  0.0394591167192573  0.3722233545569367  1.0000
  H   H32       1.0  0.9054593819577974  0.9605378506126386  0.6277755337148179  1.0000
  H   H33       1.0  0.9865803498345898  0.7672953692275611  0.2735206942610873  1.0000
  H   H34       1.0  0.013420461365662092  0.23270159562717652  0.7264810035243414  1.0000
  H   H35       1.0  0.3357971115697964  0.2888166876022992  0.7978404919180733  1.0000
  H   H36       1.0  0.6642030555979375  0.7111836121413972  0.20215795018272337  1.0000
  H   H37       1.0  0.4843959409998675  0.5486176463653577  0.6051170803821578  1.0000
  H   H38       1.0  0.5155986292602889  0.4513815484260064  0.3948794482270017  1.0000
  H   H39       1.0  0.33828876541964803  0.24978261269413346  0.42522131402439817  1.0000
  H   H40       1.0  0.6617063623857006  0.7502154700644681  0.5747766263061393  1.0000
  C   C1        1.0  0.3185599702344248  0.5648375962591601  0.05316932303030343  1.0000
  C   C2        1.0  0.6814391104521107  0.4351649272575102  0.9468305484010672  1.0000
  C   C3        1.0  0.2234536843814965  0.577245205633993  0.1421413074346631  1.0000
  C   C4        1.0  0.7765434255862759  0.42275509744513334  0.8578584490009648  1.0000
  C   C5        1.0  0.5855039120980409  0.8672360280104955  0.7964286021272643  1.0000
  C   C6        1.0  0.41449625506969306  0.13276427173320118  0.2035698399735253  1.0000
  C   C7        1.0  0.6262947167443328  0.0027792323157811005  0.7704010453277731  1.0000
  C   C8        1.0  0.3737059214812533  0.9972221782513558  0.2295969645311403  1.0000
  C   C9        1.0  0.7553749537563873  0.0198030878756157  0.1115817617869084  1.0000
  C   C10       1.0  0.24462727633926562  0.9801972093909159  0.8884194898275553  1.0000
  C   C11       1.0  0.9933011999260161  0.046237042721401216  0.1617522119083716  1.0000
  C   C12       1.0  0.006699530508733169  0.9537621449310194  0.8382484924684661  1.0000
  C   C13       1.0  0.8966805844551261  0.8983917232757577  0.09568742909532807  1.0000
  C   C14       1.0  0.10332006521413459  0.10160968717435992  0.904312281872926  1.0000
  C   C15       1.0  0.9521367807979005  0.27870497746734924  0.23776769940940315  1.0000
  C   C16       1.0  0.04786641430081322  0.7212975412120103  0.7622360899399753  1.0000
  C   C17       1.0  0.866160666369126  0.34775414013827094  0.20259416248151052  1.0000
  C   C18       1.0  0.13384158089203882  0.652246156952728  0.7974096407969569  1.0000
  C   C19       1.0  0.9156527219231448  0.5005272489520181  0.26956489714861226  1.0000
  C   C20       1.0  0.08434801423344841  0.49947193864189626  0.7304366577828958  1.0000
  C   C21       1.0  0.052200548710374155  0.588562469291631  0.37046888711209663  1.0000
  C   C22       1.0  0.9478016928289535  0.41143782785788124  0.6295340656117006  1.0000
  C   C23       1.0  0.13610457888074015  0.5161828531244906  0.4041769332463758  1.0000
  C   C24       1.0  0.8638976512149201  0.48381744414204075  0.595824318368095  1.0000
  C   C25       1.0  0.08670978605896096  0.3633250315824553  0.3395478212575611  1.0000
  C   C26       1.0  0.9132944204772926  0.6366774860631068  0.6604543959073155  1.0000
  C   C27       1.0  0.11043009463698894  0.751978080016329  0.43366900974622524  1.0000
  C   C28       1.0  0.8895706415196046  0.24802110757758566  0.5663325451852826  1.0000
  C   C29       1.0  0.21574459804135424  0.8369279692254283  0.5571981048612998  1.0000
  C   C30       1.0  0.7842570859527882  0.16307343995683962  0.4428034361411192  1.0000
  C   C31       1.0  0.28080576689126246  0.9913892118347077  0.6117652646568601  1.0000
  C   C32       1.0  0.7191968649404359  0.008614418935927402  0.3882362624164771  1.0000
  C   C33       1.0  0.2395191703907358  0.06440805082901592  0.5441639536954668  1.0000
  C   C34       1.0  0.7604815600440206  0.9355911368234046  0.45583675068137103  1.0000
  C   C35       1.0  0.13018012319542993  0.9830184985966142  0.4239785755271726  1.0000
  C   C36       1.0  0.8698206072393261  0.0169806890558064  0.5760221288496723  1.0000
  C   C37       1.0  0.06777081809138961  0.8287432187730772  0.3693969364401327  1.0000
  C   C38       1.0  0.9322293662418489  0.1712570807950868  0.6306040573246605  1.0000
  C   C39       1.0  0.35839171422358623  0.3197397715386431  0.722043650928761  1.0000
  C   C40       1.0  0.6416074300629405  0.6802605293558699  0.27795466224718984  1.0000
  C   C41       1.0  0.43005577256384697  0.44884749848199584  0.6164435134094007  1.0000
  C   C42       1.0  0.5699398320211913  0.5511516950415328  0.38355484523393113  1.0000
  C   C43       1.0  0.35753856436309667  0.30275160019653674  0.5278516892434482  1.0000
  C   C44       1.0  0.6424575170016311  0.6972487040919119  0.4721470877126707  1.0000
  N   N1        1.0  0.7496865490339887  0.8835682973608244  0.06535223159070824  1.0000
  N   N2        1.0  0.2503146467367898  0.11643200117354983  0.9346471899895903  1.0000
  N   N3        1.0  0.9022156310410239  0.12240607604606882  0.17150308057966876  1.0000
  N   N4        1.0  0.09778912731857761  0.877595329625244  0.8284996977519229  1.0000
  N   N5        1.0  0.42968870933977144  0.4577255924580327  0.736327471796514  1.0000
  N   N6        1.0  0.5703094063437104  0.5422747096458096  0.2636698618999347  1.0000
  N   N7        1.0  0.312741772240294  0.221888680079573  0.5962853565845592  1.0000
  N   N8        1.0  0.6872554070493064  0.7781094003188825  0.403713692150319  1.0000
  O   O1        1.0  0.3922863803015275  0.6838562785728614  0.04429323302706227  1.0000
  O   O2        1.0  0.6077142114895792  0.3161473544408935  0.9557088867512674  1.0000
  O   O3        1.0  0.31942180363549977  0.4400220111365983  0.9910781442181645  1.0000
  O   O4        1.0  0.6805737259058802  0.5599794051261072  0.008920071571239432  1.0000
  O   O5        1.0  0.4846887950496069  0.8413203290112679  0.8515256740375677  1.0000
  O   O6        1.0  0.5153113778399642  0.15867997067392284  0.14847361861789213  1.0000
  O   O7        1.0  0.6551266349419792  0.7850322771236267  0.7646978631215334  1.0000
  O   O8        1.0  0.34487305544605823  0.21496691185514294  0.23530016066646914  1.0000
