data_image0
_chemical_formula_structural       Al6H56C106O32
_chemical_formula_sum              "Al6 H56 C106 O32"
_cell_length_a       12.799901566603186
_cell_length_b       12.70617524641446
_cell_length_c       27.69312783964177
_cell_angle_alpha    89.8034933198631
_cell_angle_beta     89.46419570663707
_cell_angle_gamma    61.55715029210679

_space_group_name_H-M_alt    "P 1"
_space_group_IT_number       1

loop_
  _space_group_symop_operation_xyz
  'x, y, z'

loop_
  _atom_site_type_symbol
  _atom_site_label
  _atom_site_symmetry_multiplicity
  _atom_site_fract_x
  _atom_site_fract_y
  _atom_site_fract_z
  _atom_site_occupancy
  Al  Al1       1.0  0.5753042353033707  0.6154966222913885  0.4979992570705392  1.0000
  Al  Al2       1.0  0.3398338524465886  0.5873145780741778  0.4992966359144049  1.0000
  Al  Al3       1.0  0.5734694428944778  0.36354145273254806  0.5003370271144689  1.0000
  Al  Al4       1.0  0.07890204376001722  0.074520631596009  0.9838356104449701  1.0000
  Al  Al5       1.0  0.07280264374379902  0.3301937535887872  0.985072350147469  1.0000
  Al  Al6       1.0  0.3113135119233235  0.1102124717476372  0.9837763266846906  1.0000
  H   H1        1.0  0.10263468274185784  0.4584549507708785  0.22753908178664517  1.0000
  H   H2        1.0  0.19372807915435436  0.26297343045739296  0.2927795584949351  1.0000
  H   H3        1.0  0.0036939664761491417  0.4875961598880565  0.7696955170756254  1.0000
  H   H4        1.0  0.03348330275826336  0.4997080925905947  0.6824239372667408  1.0000
  H   H5        1.0  0.46604045583251263  0.21747594026601294  0.870622165386287  1.0000
  H   H6        1.0  0.6035300198353257  0.18285678012085776  0.8005906129037469  1.0000
  H   H7        1.0  0.6331845896199868  0.20405986975851675  0.7137422480355015  1.0000
  H   H8        1.0  0.5486414974416364  0.2779398600273523  0.6321345423268525  1.0000
  H   H9        1.0  0.9503613972461125  0.1212349057471442  0.8541512925824009  1.0000
  H   H10       1.0  0.7958772754893887  0.20532235541536883  0.6179782278119248  1.0000
  H   H11       1.0  0.9359215036033179  0.0378322819739765  0.7746405838476704  1.0000
  H   H12       1.0  0.0412886944047131  0.31464107732925584  0.22632833477402406  1.0000
  H   H13       1.0  0.253508891540598  0.5392820565868561  0.267181267188441  1.0000
  H   H14       1.0  0.8830969282317511  0.06750698023527951  0.6881592901388345  1.0000
  H   H15       1.0  0.8416174973717078  0.49573650793086443  0.868877309242592  1.0000
  H   H16       1.0  0.7526487829318144  0.63407029656247  0.7987375696959021  1.0000
  H   H17       1.0  0.7016501191253256  0.6636427933972301  0.712013918865445  1.0000
  H   H18       1.0  0.6885060038472234  0.5797290729346043  0.6323817874831406  1.0000
  H   H19       1.0  0.4494377599321666  0.9667501106457835  0.8504095524381867  1.0000
  H   H20       1.0  0.4990300044023857  0.8081188491732757  0.613638608814405  1.0000
  H   H21       1.0  0.5500108746261535  0.9412725527254292  0.7694951690124514  1.0000
  H   H22       1.0  0.15859419839000582  0.8901507049604688  0.8672711263620914  1.0000
  H   H23       1.0  0.5154510465500269  0.7984333199399171  0.21810594359972416  1.0000
  H   H24       1.0  0.4330262961218026  0.396816099715437  0.19816044480782583  1.0000
  H   H25       1.0  0.08847177439299284  0.8188667321616305  0.7971246830693133  1.0000
  H   H26       1.0  0.10108310636468344  0.7697288037792231  0.7099567935125607  1.0000
  H   H27       1.0  0.19914489867592527  0.7460146094422838  0.6301418494177256  1.0000
  H   H28       1.0  0.524200870172777  0.20517680121706414  0.2637220737946819  1.0000
  H   H29       1.0  0.3722823663356111  0.12321975093979635  0.22387392906186684  1.0000
  H   H30       1.0  0.8522267076747312  0.1390606455360697  0.22089659074622864  1.0000
  H   H31       1.0  0.00430802705005821  0.1600927751296268  0.2905204013152627  1.0000
  H   H32       1.0  0.5277681032155144  0.4764041505970555  0.2074524882640674  1.0000
  H   H33       1.0  0.39241409959932844  0.6000061694431125  0.1423673894688378  1.0000
  H   H34       1.0  0.3988626548547105  0.9781788935564107  0.2902791281929282  1.0000
  H   H35       1.0  0.4606219406782587  0.7016789049695832  0.08270563139486602  1.0000
  H   H36       1.0  0.6631347451464509  0.6814673765891897  0.0895829170032769  1.0000
  H   H37       1.0  0.7982067877469065  0.5562505480765978  0.1534832761675489  1.0000
  H   H38       1.0  0.7655850938729929  0.6662870603607729  0.2277856880201696  1.0000
  H   H39       1.0  0.9219519633813675  0.568953655694905  0.2211280602562411  1.0000
  H   H40       1.0  0.8673449422880921  0.6749933806202364  0.2698018417517787  1.0000
  H   H41       1.0  0.0022418038870455044  0.6299931847981526  0.5858004704435018  1.0000
  H   H42       1.0  0.13670131532170873  0.6420530244722754  0.5874982869656125  1.0000
  H   H43       1.0  0.06151918494443016  0.6421930617488627  0.6427505895700989  1.0000
  H   H44       1.0  0.5299736282350977  0.06468791547143128  0.6707915338834596  1.0000
  H   H45       1.0  0.4200196493255533  0.6614282028183353  0.2614047054417767  1.0000
  H   H46       1.0  0.4796814491233265  0.9996326478253863  0.6251214813899324  1.0000
  H   H47       1.0  0.6323383273154947  0.9661273598299044  0.6260251064629756  1.0000
  H   H48       1.0  0.5811105429847603  0.49617221422184327  0.2987511355662349  1.0000
  H   H49       1.0  0.5630749731094227  0.38842068651496225  0.3348035695738716  1.0000
  H   H50       1.0  0.4691889387096  0.4560817383058691  0.2839825484244969  1.0000
  H   H51       1.0  0.21827209396519723  0.774043145200693  0.20083611636620452  1.0000
  H   H52       1.0  0.10188337602969014  0.952128482575574  0.2725398848144067  1.0000
  H   H53       1.0  0.1970817115169083  0.09109336150480371  0.2294173502646188  1.0000
  H   H54       1.0  0.08783349982768844  0.4243253033924503  0.8521752758611214  1.0000
  H   H55       1.0  0.6943975001117977  0.6969081232254339  0.4698224649654321  1.0000
  H   H56       1.0  0.9688784529497809  0.9813294974821855  0.010583807154297603  1.0000
  C   C1        1.0  0.3674129788565923  0.7315029854695966  0.4306476611513474  1.0000
  C   C2        1.0  0.3484618947830357  0.34962121245437316  0.3442104176994008  1.0000
  C   C3        1.0  0.5188256587691953  0.6490773318416457  0.1118036042736037  1.0000
  C   C4        1.0  0.6324644109752883  0.6377489373131482  0.1157810415825296  1.0000
  C   C5        1.0  0.7080937406386881  0.5682933286571269  0.15237390319890656  1.0000
  C   C6        1.0  0.8490038094787028  0.6147728334632063  0.24747284195147765  1.0000
  C   C7        1.0  0.08401364666201516  0.6060121635213916  0.60578883918663  1.0000
  C   C8        1.0  0.5545804649752669  0.9846696653323265  0.6485035040503462  1.0000
  C   C9        1.0  0.5592699072249518  0.4224249568977427  0.2980873706664867  1.0000
  C   C10       1.0  0.9357259165989621  0.23339211657022926  0.26986888061058784  1.0000
  C   C11       1.0  0.38911709399279476  0.3985906024953039  0.4327692408578514  1.0000
  C   C12       1.0  0.8511258123708532  0.2217735229073838  0.23233296937416978  1.0000
  C   C13       1.0  0.9081961141530643  0.29525571038907816  0.1037741654408109  1.0000
  C   C14       1.0  0.7742567486819997  0.3688430671952787  0.38706393433268  1.0000
  C   C15       1.0  0.9556816467512236  0.3204469888791762  0.23566700008110789  1.0000
  C   C16       1.0  0.8717753173476555  0.3082318370387185  0.1975577291787545  1.0000
  C   C17       1.0  0.8451637001547285  0.4309846499526698  0.2594653313597988  1.0000
  C   C18       1.0  0.8272478116129562  0.34318805545787257  0.2944966686144284  1.0000
  C   C19       1.0  0.36396306558430785  0.3650983532982579  0.3864704282968745  1.0000
  C   C20       1.0  0.7578460551587725  0.42182090851893866  0.2204322447334235  1.0000
  C   C21       1.0  0.7421609693597732  0.33065439820892806  0.2554222063403273  1.0000
  C   C22       1.0  0.8930792492213585  0.2967749206680423  0.1473205328145397  1.0000
  C   C23       1.0  0.7148252403894093  0.39918069696587116  0.43314026373739983  1.0000
  C   C24       1.0  0.8021816518522871  0.3580629041597021  0.3444195165508077  1.0000
  C   C25       1.0  0.3591227811635351  0.9330523491358633  0.2697707844300297  1.0000
  C   C26       1.0  0.4237573615637233  0.8334116683642065  0.23076618640084942  1.0000
  C   C27       1.0  0.30558785018966744  0.938333694601894  0.1037097086455461  1.0000
  C   C28       1.0  0.3284759296266273  0.7912542362259102  0.38510941662889314  1.0000
  C   C29       1.0  0.24671718838213513  0.9953446713615294  0.2372128657768044  1.0000
  C   C30       1.0  0.34604540422413527  0.21553930496609303  0.23397732099131474  1.0000
  C   C31       1.0  0.3117375921030574  0.8961419144951748  0.19690184552125342  1.0000
  C   C32       1.0  0.193732802839648  0.9184333567164342  0.2602541897352495  1.0000
  C   C33       1.0  0.30573086098026203  0.8559092823224075  0.2940489180029218  1.0000
  C   C34       1.0  0.25826102379809873  0.8190406901194078  0.22124042573751987  1.0000
  C   C35       1.0  0.36888783281337834  0.7292970461571288  0.5671495552185135  1.0000
  C   C36       1.0  0.37048279745834395  0.7569381675628077  0.2536625329216164  1.0000
  C   C37       1.0  0.3103544793342081  0.9194305861811074  0.1470027575321069  1.0000
  C   C38       1.0  0.311940661610045  0.8259598924276756  0.34341452619374735  1.0000
  C   C39       1.0  0.2452089469602329  0.4260833648128965  0.6360893001921184  1.0000
  C   C40       1.0  0.22664525176539746  0.4141277927570641  0.6858747666152071  1.0000
  C   C41       1.0  0.2945591617392722  0.3241929097298097  0.19705158952096724  1.0000
  C   C42       1.0  0.1921397755769476  0.3950639953243352  0.7867976370551588  1.0000
  C   C43       1.0  0.09330179895604825  0.4521297086671651  0.7547813354318508  1.0000
  C   C44       1.0  0.10967704092414009  0.4598134643568129  0.7063473273475792  1.0000
  C   C45       1.0  0.1769297237573895  0.3855152664043118  0.8365503981537828  1.0000
  C   C46       1.0  0.2752224039963523  0.32168942423812996  0.8663433666981746  1.0000
  C   C47       1.0  0.38844954300680007  0.3981539015916838  0.5664906515589792  1.0000
  C   C48       1.0  0.45944730354872126  0.3149484379095071  0.6476099984058692  1.0000
  C   C49       1.0  0.4446830992120284  0.3033107817562239  0.6971590480661121  1.0000
  C   C50       1.0  0.3269194069484628  0.3541441699737078  0.7167299411459852  1.0000
  C   C51       1.0  0.5436362275994002  0.24160900854671044  0.7288909503787906  1.0000
  C   C52       1.0  0.4301598603931751  0.26024281958977  0.2555493881220201  1.0000
  C   C53       1.0  0.5271797111392403  0.2299529832881575  0.7769970351793135  1.0000
  C   C54       1.0  0.4100344323140917  0.28019585470069325  0.7978028667277286  1.0000
  C   C55       1.0  0.30975330832130515  0.34338488313700577  0.7670200200280846  1.0000
  C   C56       1.0  0.3907649479339669  0.26842576323937817  0.8470253097337447  1.0000
  C   C57       1.0  0.3619526097642024  0.3771285602569563  0.6170205398320405  1.0000
  C   C58       1.0  0.78566663258723  0.2795753153997964  0.6407218414347966  1.0000
  C   C59       1.0  0.6949731124542283  0.4178480738004424  0.5702779660043973  1.0000
  C   C60       1.0  0.8190652211490105  0.2599253613281078  0.6893573042203585  1.0000
  C   C61       1.0  0.8802216384821621  0.2253608951950881  0.7889607889223313  1.0000
  C   C62       1.0  0.8972245249847077  0.1269538555342322  0.7587072808730255  1.0000
  C   C63       1.0  0.33154503079365594  0.33822294113306833  0.2943643127835287  1.0000
  C   C64       1.0  0.8683819508917878  0.1433629307990856  0.7109534127875392  1.0000
  C   C65       1.0  0.9122236490624687  0.20967314749239563  0.8376692196542379  1.0000
  C   C66       1.0  0.8995322519292377  0.3064121805590219  0.8658613692010846  1.0000
  C   C67       1.0  0.7249204349829984  0.49154777220084606  0.6490146956305338  1.0000
  C   C68       1.0  0.7546547883733938  0.4764175515392992  0.6980242622047116  1.0000
  C   C69       1.0  0.8018858019530268  0.35953839912986046  0.7187268504136172  1.0000
  C   C70       1.0  0.7379329675078811  0.5749107659522321  0.7282256031637644  1.0000
  C   C71       1.0  0.24668022578837423  0.2930050100501447  0.2713142260014578  1.0000
  C   C72       1.0  0.7664785727449583  0.5583289895901515  0.7760576307745098  1.0000
  C   C73       1.0  0.8155083248011011  0.44184640880377657  0.7977736001987452  1.0000
  C   C74       1.0  0.3797015516695978  0.36857043867866685  0.22012964881899677  1.0000
  C   C75       1.0  0.8320519796340378  0.342425742582023  0.7684189020846688  1.0000
  C   C76       1.0  0.8507965961218105  0.4216661875041296  0.8462557227462568  1.0000
  C   C77       1.0  0.7387340190953468  0.39436599243149556  0.6208275010412123  1.0000
  C   C78       1.0  0.4282113790556893  0.8112304993051042  0.6366767309213942  1.0000
  C   C79       1.0  0.41803093453243884  0.846518682968572  0.685066815171936  1.0000
  C   C80       1.0  0.4006410585121573  0.9077211145477905  0.785137793914167  1.0000
  C   C81       1.0  0.4885054701277625  0.9134194363595398  0.7544747125405067  1.0000
  C   C82       1.0  0.4976425709604443  0.8834256190037452  0.7066862202014974  1.0000
  C   C83       1.0  0.19633334962271237  0.40159306531591427  0.2358004018121989  1.0000
  C   C84       1.0  0.3906491929444444  0.936827150351817  0.8343813828864697  1.0000
  C   C85       1.0  0.2802416351695102  0.4466049112329316  0.2572226002370073  1.0000
  C   C86       1.0  0.30356367958312114  0.9302553625332589  0.8632003176446758  1.0000
  C   C87       1.0  0.2588968578756976  0.7748102132559254  0.6459496653734219  1.0000
  C   C88       1.0  0.24794921693156632  0.8059880724645295  0.6948830916275669  1.0000
  C   C89       1.0  0.3282846473163303  0.8424616835542552  0.7150173959715006  1.0000
  C   C90       1.0  0.160822123469707  0.7989631732154265  0.7257309937936753  1.0000
  C   C91       1.0  0.15385449965177134  0.825999555024673  0.7736798306397787  1.0000
  C   C92       1.0  0.23257569846596507  0.8637117000701975  0.7947516615900981  1.0000
  C   C93       1.0  0.3202816938556271  0.8715668578149404  0.7648385209482669  1.0000
  C   C94       1.0  0.22557655548502714  0.8935891456344293  0.8436870514382306  1.0000
  C   C95       1.0  0.2703099804219491  0.31526413636813544  0.10297963398864601  1.0000
  C   C96       1.0  0.28000420252106306  0.3191170376556797  0.14666351585920986  1.0000
  C   C97       1.0  0.3489062561978785  0.7760228758260794  0.617370510517965  1.0000
  C   C98       1.0  0.947254156246274  0.2785898901772228  0.0542755886062025  1.0000
  C   C99       1.0  0.2535953865832994  0.29324497515762715  0.05355243474153331  1.0000
  C   C100      1.0  0.27998686218537494  0.9732079016470934  0.0541182844228629  1.0000
  C   C101      1.0  0.9482476682605141  0.2802390113599742  0.915658482868281  1.0000
  C   C102      1.0  0.253537858582206  0.30097772006917  0.9174462736548179  1.0000
  C   C103      1.0  0.28484255320815066  0.9713483064826323  0.9142324092146553  1.0000
  C   C104      1.0  0.6713185768658435  0.5096335146692468  0.18637906035451826  1.0000
  C   C105      1.0  0.5563557918770599  0.5233966401663466  0.1822243374134516  1.0000
  C   C106      1.0  0.48080814016780266  0.5921636969253185  0.1453483112498546  1.0000
  O   O1        1.0  0.6888067391357854  0.5007281974105666  0.4503648215823476  1.0000
  O   O2        1.0  0.334655939946849  0.1962792473354611  0.0348818585562327  1.0000
  O   O3        1.0  0.35804428932878823  0.9879985702067986  0.029271819721437  1.0000
  O   O4        1.0  0.47341100818373144  0.7004093869554637  0.4421016158239084  1.0000
  O   O5        1.0  0.19556843836763013  0.9768345350145392  0.9362516164244995  1.0000
  O   O6        1.0  0.9834802682861296  0.1754905702646639  0.9313442526592368  1.0000
  O   O7        1.0  0.9563362814683103  0.3644393039773703  0.9387595279389133  1.0000
  O   O8        1.0  0.15109154863037585  0.36992636282867153  0.9358704305273663  1.0000
  O   O9        1.0  0.33548942510770985  0.2110577460221066  0.9394284251620278  1.0000
  O   O10       1.0  0.3580379517682673  0.003672940249444405  0.9322919591373946  1.0000
  O   O11       1.0  0.15528607595571498  0.17314815860316907  0.9849783545388533  1.0000
  O   O12       1.0  0.31196128737220635  0.4904814153002305  0.5440248440118651  1.0000
  O   O13       1.0  0.29238321544861634  0.7109574611205999  0.4550202948038518  1.0000
  O   O14       1.0  0.31326079016569264  0.5015406394427372  0.4489365226856634  1.0000
  O   O15       1.0  0.4869799722653243  0.3268776750781015  0.4530115543480591  1.0000
  O   O16       1.0  0.688094135438199  0.32164444353261956  0.45191463100417917  1.0000
  O   O17       1.0  0.6648939449752477  0.5202999811082946  0.5531223798072418  1.0000
  O   O18       1.0  0.4581040326974419  0.7214435820474207  0.5443154258324228  1.0000
  O   O19       1.0  0.29587771902894394  0.6946801380566326  0.5507077338964876  1.0000
  O   O20       1.0  0.8402597897000987  0.5314371090360696  0.2800335286752755  1.0000
  O   O21       1.0  0.14874164432799838  0.4771890667901816  0.6062768256062299  1.0000
  O   O22       1.0  0.5888258612082212  0.8812074557302338  0.6789076114680839  1.0000
  O   O23       1.0  0.4915890743061695  0.3264089448585564  0.5491929106929945  1.0000
  O   O24       1.0  0.6397532735250311  0.3260676461118947  0.2670093586122206  1.0000
  O   O25       1.0  0.6862986799203558  0.33300705260418073  0.547928257573183  1.0000
  O   O26       1.0  0.4956924896581328  0.5206523018167672  0.49856814875020217  1.0000
  O   O27       1.0  0.18030569460898976  0.989978709602056  0.039280115154809905  1.0000
  O   O28       1.0  0.967427811760146  0.1816767796668515  0.0341615770851433  1.0000
  O   O29       1.0  0.9633242119480984  0.3627902165599721  0.0352546038705768  1.0000
  O   O30       1.0  0.15764718975344044  0.36755529329830233  0.0327471919384763  1.0000
  O   O31       1.0  0.6467432301195261  0.7041067235917281  0.49815782491372573  1.0000
  O   O32       1.0  0.011528768011011463  0.982286250079582  0.9817469247965394  1.0000
