data_image0
_chemical_formula_structural       Ba4Hg4H36C36S8N12O28
_chemical_formula_sum              "Ba4 Hg4 H36 C36 S8 N12 O28"
_cell_length_a       6.907827693
_cell_length_b       15.698331199838607
_cell_length_c       15.9747
_cell_angle_alpha    100.05946024569111
_cell_angle_beta     90.0
_cell_angle_gamma    102.7096635933968

_space_group_name_H-M_alt    "P 1"
_space_group_IT_number       1

loop_
  _space_group_symop_operation_xyz
  'x, y, z'

loop_
  _atom_site_type_symbol
  _atom_site_label
  _atom_site_symmetry_multiplicity
  _atom_site_fract_x
  _atom_site_fract_y
  _atom_site_fract_z
  _atom_site_occupancy
  Ba  Ba1       1.0  0.4822048948098967  0.4418807413115289  0.6696050509379036  1.0000
  Ba  Ba2       1.0  0.04003754883293453  0.5579598423586987  0.8302917781606497  1.0000
  Ba  Ba3       1.0  0.5177962469222662  0.5581204668902726  0.33039571983866284  1.0000
  Ba  Ba4       1.0  0.9599610294911044  0.4420420295808326  0.16970910654531934  1.0000
  Hg  Hg1       1.0  0.0332455930976465  0.14499815410786  0.3704832731450481  1.0000
  Hg  Hg2       1.0  0.8883035239771075  0.8548689790717106  0.12963032368777058  1.0000
  Hg  Hg3       1.0  0.9667547647175493  0.8550043815694008  0.6295152215309444  1.0000
  Hg  Hg4       1.0  0.11168525277330589  0.14513355660555044  0.8703694229679187  1.0000
  H   H1        1.0  0.8648239979657362  0.4484696657947395  0.5587533305307418  1.0000
  H   H2        1.0  0.4162578118580598  0.5516695998556855  0.9411772390857254  1.0000
  H   H3        1.0  0.1351761481922366  0.5515295511938587  0.44124709845759474  1.0000
  H   H4        1.0  0.5837436617321642  0.4483322720838458  0.058823019630402505  1.0000
  H   H5        1.0  0.7979428952943337  0.5165299967540307  0.5080377240555052  1.0000
  H   H6        1.0  0.28135671051315814  0.4837665747392989  0.9920237611451769  1.0000
  H   H7        1.0  0.2020598142717773  0.483468556496831  0.49196133902373174  1.0000
  H   H8        1.0  0.7186400883197166  0.5162346334624957  0.007975131661851289  1.0000
  H   H9        1.0  0.4099554506460947  0.3574008662940428  0.8541890326581056  1.0000
  H   H10       1.0  0.05231157466042901  0.6425671550210623  0.6456733318006158  1.0000
  H   H11       1.0  0.5900468068611033  0.6425996781700221  0.14580974621951273  1.0000
  H   H12       1.0  0.9476906828467689  0.3574333894429954  0.3543266990566992  1.0000
  H   H13       1.0  0.6415782816091988  0.36860608671567957  0.8407468421535855  1.0000
  H   H14       1.0  0.2726661755350577  0.6312988795147234  0.6591259826661473  1.0000
  H   H15       1.0  0.35842397589799885  0.631394457748385  0.15925193672402574  1.0000
  H   H16       1.0  0.7273343024809831  0.3687010012116047  0.3408751862414476  1.0000
  H   H17       1.0  0.6238915128420004  0.6371371166210338  0.6000800297189459  1.0000
  H   H18       1.0  0.9870899167405297  0.3629470587974878  0.8998942928935991  1.0000
  H   H19       1.0  0.3761121922982936  0.3628634278430312  0.3999206271282106  1.0000
  H   H20       1.0  0.01291267262473641  0.6370541494043067  0.10010522590327044  1.0000
  H   H21       1.0  0.4185795445721323  0.5945377651294448  0.5478362531740901  1.0000
  H   H22       1.0  0.82406569378265  0.4053399878538642  0.9520976294737907  1.0000
  H   H23       1.0  0.5814241605681616  0.40546277933461267  0.4521631516933696  1.0000
  H   H24       1.0  0.17593590000842588  0.594659229134727  0.047901547534856107  1.0000
  H   H25       1.0  0.7585117036129673  0.2217030053118734  0.7424644012064264  1.0000
  H   H26       1.0  0.5370235259399578  0.7781269585546084  0.7577060405540339  1.0000
  H   H27       1.0  0.24149501699436368  0.7782948842012516  0.25753705190278714  1.0000
  H   H28       1.0  0.4629808429164655  0.2218749133849229  0.24229296618239726  1.0000
  H   H29       1.0  0.6605548710743747  0.0684924242239831  0.6550469313040284  1.0000
  H   H30       1.0  0.5928577603570914  0.9313156362972848  0.845097841141346  1.0000
  H   H31       1.0  0.3394488340659193  0.9315081202400817  0.34495309955327974  1.0000
  H   H32       1.0  0.40713146845223486  0.0686849081667802  0.1549015637261206  1.0000
  H   H33       1.0  0.7733866713330071  0.043407784051325386  0.5048880669242308  1.0000
  H   H34       1.0  0.7304569091198018  0.9563000520721444  0.9953008491854832  1.0000
  H   H35       1.0  0.22661368648218874  0.9565947516259425  0.4951116797314585  1.0000
  H   H36       1.0  0.2695290925652642  0.043699828654183585  0.004699067742414801  1.0000
  C   C1        1.0  0.0728047125529159  0.3303236854445827  0.508859454316884  1.0000
  C   C2        1.0  0.742260151271509  0.6692872449697516  0.9912251895207548  1.0000
  C   C3        1.0  0.927198660729317  0.6696761952817452  0.4911404626110142  1.0000
  C   C4        1.0  0.25773697941942686  0.3307146269697795  0.008773191225834896  1.0000
  C   C5        1.0  0.9674050849390099  0.3686047592402062  0.6947495063678633  1.0000
  C   C6        1.0  0.5983965571138085  0.6310931208172474  0.805313754811131  1.0000
  C   C7        1.0  0.03259940411825811  0.631394457748385  0.30525029663063213  1.0000
  C   C8        1.0  0.4015991259440241  0.3689087511222766  0.19468462593545155  1.0000
  C   C9        1.0  0.9621683039999454  0.2586028408835047  0.554397671892744  1.0000
  C   C10       1.0  0.7032193844514295  0.7410207005477716  0.9457673853344561  1.0000
  C   C11       1.0  0.03783540114035586  0.7413977035805528  0.4456029849544124  1.0000
  C   C12       1.0  0.2967853162630547  0.2589818351294966  0.05423298731108162  1.0000
  C   C13       1.0  0.9119293295335211  0.2776507863674595  0.6397463807202899  1.0000
  C   C14       1.0  0.6338748238887533  0.7220125793278456  0.8604380320683166  1.0000
  C   C15       1.0  0.0880762752987819  0.722347766883402  0.3602551863183337  1.0000
  C   C16       1.0  0.3661248702103137  0.277988628873949  0.13956399068793965  1.0000
  C   C17       1.0  0.8019209980205559  0.20842891437405334  0.6766266739063769  1.0000
  C   C18       1.0  0.5936159315426437  0.7913386581454487  0.8235505862054354  1.0000
  C   C19       1.0  0.19809151311917356  0.7915689751390713  0.32337540519268526  1.0000
  C   C20       1.0  0.4063872013378997  0.208666532482745  0.17644961616788635  1.0000
  C   C21       1.0  0.7478118102701004  0.12355809783137768  0.6286753358397021  1.0000
  C   C22       1.0  0.6246953880615891  0.8762108021635981  0.8715190538567799  1.0000
  C   C23       1.0  0.25219524219529876  0.8764404554194838  0.37132497921923163  1.0000
  C   C24       1.0  0.37530319026244285  0.12379106977593318  0.1284799528796583  1.0000
  C   C25       1.0  0.8072591418357219  0.10906737562753928  0.5448951095748029  1.0000
  C   C26       1.0  0.6984504376797247  0.8906404604959233  0.9552994404435255  1.0000
  C   C27       1.0  0.19274166803837994  0.8909331688365183  0.4551055472723534  1.0000
  C   C28       1.0  0.3015449135200541  0.10936074770587108  0.044700704343192406  1.0000
  C   C29       1.0  0.4250194432490204  0.21545856071249145  0.4899042624757827  1.0000
  C   C30       1.0  0.2090520692082691  0.7846588015927123  0.009993125947431708  1.0000
  C   C31       1.0  0.5749772641274831  0.7845366738497006  0.5100954829361087  1.0000
  C   C32       1.0  0.7909460858013233  0.2153364329694796  0.9900128793629224  1.0000
  C   C33       1.0  0.7971311170019391  0.923169583090633  0.32063248566498714  1.0000
  C   C34       1.0  0.8746355222254962  0.07691857475428779  0.17930433514337812  1.0000
  C   C35       1.0  0.2028799465046873  0.07682830642249167  0.6793714714036199  1.0000
  C   C36       1.0  0.1253537065838231  0.923081969709777  0.8206950697240816  1.0000
  S   S1        1.0  0.3910923507160149  0.1367127159771115  0.4043299862831874  1.0000
  S   S2        1.0  0.2541751848615732  0.863396017737557  0.09557468491557594  1.0000
  S   S3        1.0  0.6089032408854533  0.86328318232281  0.5956711250378035  1.0000
  S   S4        1.0  0.7458181751898251  0.13660120803783823  0.9044291582236142  1.0000
  S   S5        1.0  0.7069490329017185  0.8256618638345613  0.26089934551687594  1.0000
  S   S6        1.0  0.8819081573402913  0.1744077093538152  0.23906308080100305  1.0000
  S   S7        1.0  0.2930573558475587  0.1743353619408339  0.7391038716324732  1.0000
  S   S8        1.0  0.11807950363508714  0.8255954900611824  0.7609405357231724  1.0000
  N   N1        1.0  0.910307781553591  0.1752559661775805  0.5093990460967606  1.0000
  N   N2        1.0  0.7349563304654011  0.824376203844231  0.9907856459182869  1.0000
  N   N3        1.0  0.08969124882935377  0.8247439145487476  0.49060212281083443  1.0000
  N   N4        1.0  0.2650411320836028  0.1756263318330298  0.009211596778016007  1.0000
  N   N5        1.0  0.4511485905283408  0.2721397719639  0.5506172351767733  1.0000
  N   N6        1.0  0.17827775998684098  0.7279231638471372  0.9493221422023982  1.0000
  N   N7        1.0  0.5488493240795691  0.7278607725001576  0.4493784137516102  1.0000
  N   N8        1.0  0.8217169274968014  0.27207671687919077  0.05068090467473501  1.0000
  N   N9        1.0  0.8572417019992072  0.9910726082070196  0.36739718635149643  1.0000
  N   N10       1.0  0.8667195549917392  0.0089870089153479  0.13258105874095352  1.0000
  N   N11       1.0  0.1427542214603221  0.008923953830638697  0.6326027869192077  1.0000
  N   N12       1.0  0.1332644268004798  0.9910175179751162  0.867423411631883  1.0000
  O   O1        1.0  0.0986000675716596  0.31254613398308345  0.429638150526742  1.0000
  O   O2        1.0  0.7859223812146396  0.6870535128897757  0.0704395485921907  1.0000
  O   O3        1.0  0.90139685146206  0.6874524192677781  0.5703609125525021  1.0000
  O   O4        1.0  0.21407619710939227  0.3129483590497557  0.929558832154399  1.0000
  O   O5        1.0  0.13259426176706765  0.4076517863806116  0.5538860210305928  1.0000
  O   O6        1.0  0.724830554517858  0.5919983045600148  0.9461321038300812  1.0000
  O   O7        1.0  0.8674137862725216  0.5923487580834459  0.4461127578470184  1.0000
  O   O8        1.0  0.2751680238061738  0.4080035673795165  0.05386627691650151  1.0000
  O   O9        1.0  0.12902120198848618  0.3892569588266993  0.7385655987001061  1.0000
  O   O10       1.0  0.7393212998853398  0.6105690226133758  0.7614113546111981  1.0000
  O   O11       1.0  0.8709782804533643  0.6107409306864253  0.2614352284192591  1.0000
  O   O12       1.0  0.260679057929856  0.38943351306388496  0.23858901803433247  1.0000
  O   O13       1.0  0.8418732625288285  0.4170695610851851  0.6984223072428792  1.0000
  O   O14       1.0  0.42445295122233506  0.5825632726743633  0.8015953594125734  1.0000
  O   O15       1.0  0.1581262199130221  0.5829283284279396  0.30157538992725824  1.0000
  O   O16       1.0  0.5755390526523314  0.4174399267406343  0.19840011924359405  1.0000
  O   O17       1.0  0.7476866660455741  0.46417569178911566  0.5364997907929947  1.0000
  O   O18       1.0  0.283490960737538  0.536115569802341  0.9635394993176406  1.0000
  O   O19       1.0  0.252316375378598  0.5358235251994756  0.4634987602258037  1.0000
  O   O20       1.0  0.716508733361529  0.4638856383994536  0.0364600194792288  1.0000
  O   O21       1.0  0.5148660155816814  0.3716964496041442  0.8141293698167476  1.0000
  O   O22       1.0  0.1427666061696158  0.6280897075719096  0.6856729824512302  1.0000
  O   O23       1.0  0.4851362419255167  0.6283040948599208  0.18587003505071212  1.0000
  O   O24       1.0  0.8572330879294583  0.371911500629892  0.314327788325329  1.0000
  O   O25       1.0  0.4862527534967568  0.60472215691653  0.6047390994014067  1.0000
  O   O26       1.0  0.8816597514332256  0.3952525017759142  0.8952051570415805  1.0000
  O   O27       1.0  0.5137509516435372  0.3952783875475275  0.3952603054660529  1.0000
  O   O28       1.0  0.11834217421591116  0.6047473789504136  0.10479475988632461  1.0000
