data_image0
_chemical_formula_structural       Cd2H32C52N4O12F12
_chemical_formula_sum              "Cd2 H32 C52 N4 O12 F12"
_cell_length_a       7.801127799128781
_cell_length_b       7.78858767131012
_cell_length_c       21.583
_cell_angle_alpha    93.16593387648054
_cell_angle_beta     93.16083953963842
_cell_angle_gamma    98.32850608144123

_space_group_name_H-M_alt    "P 1"
_space_group_IT_number       1

loop_
  _space_group_symop_operation_xyz
  'x, y, z'

loop_
  _atom_site_type_symbol
  _atom_site_label
  _atom_site_symmetry_multiplicity
  _atom_site_fract_x
  _atom_site_fract_y
  _atom_site_fract_z
  _atom_site_occupancy
  Cd  Cd1       1.0  0.3665821600170176  0.6333906977806123  0.7499956134394241  1.0000
  Cd  Cd2       1.0  0.6334187965461098  0.3666085159405626  0.2500041119577574  1.0000
  H   H1        1.0  0.4571597504867029  0.7562475768590318  0.9647951406957206  1.0000
  H   H2        1.0  0.2437564847097136  0.5429367760672152  0.5351982461216451  1.0000
  H   H3        1.0  0.5428406925753678  0.24375683797889997  0.03520514145277791  1.0000
  H   H4        1.0  0.7562455630929534  0.4570611373747725  0.46480054845415725  1.0000
  H   H5        1.0  0.1949683386839496  0.4412120343522119  0.09023912704074633  1.0000
  H   H6        1.0  0.5588270410209973  0.805052255901515  0.40976641745509584  1.0000
  H   H7        1.0  0.8050311414806545  0.5587858790897757  0.909761469672766  1.0000
  H   H8        1.0  0.4411704492440195  0.19494955837803477  0.5902328273603602  1.0000
  H   H9        1.0  0.9945659277652582  0.17392144334965565  0.017850685132877707  1.0000
  H   H10       1.0  0.8259788302904527  0.0053428471834991  0.4821572777463956  1.0000
  H   H11       1.0  0.005436120037408914  0.826076470092332  0.9821490360981571  1.0000
  H   H12       1.0  0.17402251143166583  0.9946589670960506  0.5178420438282104  1.0000
  H   H13       1.0  0.06713753547776238  0.244098811405344  0.8986993180235673  1.0000
  H   H14       1.0  0.7557951889156699  0.9327838816557588  0.6012981152513106  1.0000
  H   H15       1.0  0.9328661813029271  0.7559017025950183  0.10130048829889662  1.0000
  H   H16       1.0  0.24420685888699725  0.06721403178622863  0.398701142652108  1.0000
  H   H17       1.0  0.970886014829631  0.651836458341613  0.7061663903844321  1.0000
  H   H18       1.0  0.3476331161766879  0.029241978658987505  0.7937882449806896  1.0000
  H   H19       1.0  0.029114941733503496  0.3481627553795619  0.2938342616679819  1.0000
  H   H20       1.0  0.652366749146907  0.9707585353413748  0.206212411237864  1.0000
  H   H21       1.0  0.7496995723261719  0.8487624410854124  0.7070751813780732  1.0000
  H   H22       1.0  0.1509371230490473  0.2506405160001819  0.7929359874301128  1.0000
  H   H23       1.0  0.250299907838432  0.15123547235657506  0.2929244886801997  1.0000
  H   H24       1.0  0.8490625496950486  0.749358697720993  0.2070641757083038  1.0000
  H   H25       1.0  0.3988475240545881  0.2512633497312322  0.6945467841368824  1.0000
  H   H26       1.0  0.7486010303558714  0.6016079735882656  0.8055112056905717  1.0000
  H   H27       1.0  0.6011519561100158  0.7487345637107554  0.3054524225937669  1.0000
  H   H28       1.0  0.2513973585691859  0.3983912401329094  0.19448893186146424  1.0000
  H   H29       1.0  0.5987420269462901  0.030457739699770107  0.6923893060289786  1.0000
  H   H30       1.0  0.9692169916145376  0.4014976071130505  0.807594346128845  1.0000
  H   H31       1.0  0.40125764579780576  0.9695414740214048  0.3076099304541914  1.0000
  H   H32       1.0  0.0307812047310279  0.5985003063289369  0.1924052983430471  1.0000
  C   C1        1.0  0.5363690103902242  0.8318185029865506  0.8768508434562606  1.0000
  C   C2        1.0  0.1681972960408018  0.4636743573249548  0.6231380112162483  1.0000
  C   C3        1.0  0.463632138752395  0.1681820110138119  0.12314983834867381  1.0000
  C   C4        1.0  0.8318014780432463  0.5363274569545953  0.37686125918558844  1.0000
  C   C5        1.0  0.43860628099997007  0.7237002885041408  0.9150406655215876  1.0000
  C   C6        1.0  0.2762802729994007  0.561474856450566  0.5849514829109737  1.0000
  C   C7        1.0  0.5613950607221411  0.2763015257754091  0.08495958270825102  1.0000
  C   C8        1.0  0.7237208761432185  0.43852565754979633  0.4150478089111118  1.0000
  C   C9        1.0  0.3174049656700362  0.5719382030764211  0.895938854469108  1.0000
  C   C10       1.0  0.4280230373051523  0.6825906616962527  0.6040549113090989  1.0000
  C   C11       1.0  0.6825963760520823  0.428063611203129  0.10406185708835383  1.0000
  C   C12       1.0  0.5719768280184355  0.3174098523041096  0.3959443549265986  1.0000
  C   C13       1.0  0.23784406286639384  0.4702680730873184  0.9443322203096898  1.0000
  C   C14       1.0  0.5297091000844889  0.7621209379512381  0.5556719091586403  1.0000
  C   C15       1.0  0.7621570862762254  0.529732440913051  0.0556689248228679  1.0000
  C   C16       1.0  0.4702918564786387  0.23787827576993695  0.4443273529109178  1.0000
  C   C17       1.0  0.17969485495734724  0.4127203167847  0.0404214246805026  1.0000
  C   C18       1.0  0.5872911840893665  0.8202863268681568  0.4595869547146307  1.0000
  C   C19       1.0  0.8203048177867488  0.5872788969364751  0.9595787384579071  1.0000
  C   C20       1.0  0.4127088738137204  0.17971548741139295  0.5404123412735872  1.0000
  C   C21       1.0  0.08253437972527422  0.28232571925342853  0.0028588925077813027  1.0000
  C   C22       1.0  0.7176129201357286  0.9173963777449359  0.4971502731063994  1.0000
  C   C23       1.0  0.9174676680773928  0.7176721941885589  0.9971408287232605  1.0000
  C   C24       1.0  0.2823867526083673  0.082602835976239  0.5028489633767705  1.0000
  C   C25       1.0  0.12012819118614709  0.3191639289287309  0.9409136907561972  1.0000
  C   C26       1.0  0.6807592264301833  0.8797910033487143  0.5590921558489867  1.0000
  C   C27       1.0  0.879874049196012  0.6808352847924439  0.05908652355498132  1.0000
  C   C28       1.0  0.31924173013294427  0.1202082103724607  0.44090710622057133  1.0000
  C   C29       1.0  0.6541058615751895  0.9933534867912928  0.9079988739434628  1.0000
  C   C30       1.0  0.006754140729881901  0.3459314762929466  0.5919986406016521  1.0000
  C   C31       1.0  0.3458918212693192  0.006649627767444602  0.09200179060736961  1.0000
  C   C32       1.0  0.9932457245937059  0.6540690377074156  0.4080006256340454  1.0000
  C   C33       1.0  0.003841152195668896  0.7853673292743508  0.725785370925216  1.0000
  C   C34       1.0  0.21429823325993883  0.9962088998881458  0.7741776403559372  1.0000
  C   C35       1.0  0.9961596117879666  0.21463058416763667  0.2742152513746774  1.0000
  C   C36       1.0  0.785701439484157  0.003790313833029301  0.22582298611009588  1.0000
  C   C37       1.0  0.8812797848620451  0.8981041354325472  0.7258243365224004  1.0000
  C   C38       1.0  0.1016461443504824  0.118883225879884  0.7741592942138028  1.0000
  C   C39       1.0  0.11871988788205101  0.10189507828862793  0.2741758266160161  1.0000
  C   C40       1.0  0.898352244574582  0.8811159878412911  0.22584084333822574  1.0000
  C   C41       1.0  0.9295198739115024  0.0704829336648629  0.7499966736630911  1.0000
  C   C42       1.0  0.07047979883259366  0.9295162800563121  0.25000348947531853  1.0000
  C   C43       1.0  0.5272630704731824  0.2778072490751171  0.7188800714795321  1.0000
  C   C44       1.0  0.7221198089429777  0.47301556301156483  0.7811668394032409  1.0000
  C   C45       1.0  0.4727353184518819  0.7221919646460577  0.28111960274488024  1.0000
  C   C46       1.0  0.2778798638011182  0.5269836507096102  0.21883286040755226  1.0000
  C   C47       1.0  0.6404356518098524  0.1556031101490731  0.7179694057981011  1.0000
  C   C48       1.0  0.8442280732341062  0.3597677471324801  0.7820388819970889  1.0000
  C   C49       1.0  0.3595625445357129  0.8443948032929143  0.2820302386737907  1.0000
  C   C50       1.0  0.15577159950998268  0.6402314665886948  0.21796128114132074  1.0000
  C   C51       1.0  0.8043553465774593  0.1956270038349857  0.7499948759710335  1.0000
  C   C52       1.0  0.19564304234760502  0.8043722098861892  0.2500047982533787  1.0000
  N   N1        1.0  0.1677273092111164  0.8320733577074011  0.749970405294583  1.0000
  N   N2        1.0  0.8322723635329794  0.167925856013774  0.2500302211714498  1.0000
  N   N3        1.0  0.5661216680740253  0.4340344932344352  0.7500354062140744  1.0000
  N   N4        1.0  0.43387652827153994  0.5659634202075523  0.24996423825781736  1.0000
  O   O1        1.0  0.5481035202006623  0.8229102902695473  0.8179394652055905  1.0000
  O   O2        1.0  0.1771400620587258  0.4518054088968669  0.6820423021588838  1.0000
  O   O3        1.0  0.451897436362465  0.17708892345162755  0.1820607235192  1.0000
  O   O4        1.0  0.8228578133652819  0.5481990059410577  0.3179574654892363  1.0000
  O   O5        1.0  0.2688026902607774  0.5153383503018603  0.8399923975431992  1.0000
  O   O6        1.0  0.48460581171400463  0.7311482876930172  0.6600038446276032  1.0000
  O   O7        1.0  0.73119826630235  0.4846608634193147  0.16000779118159872  1.0000
  O   O8        1.0  0.5153925772110597  0.2688509260281578  0.3399953662691857  1.0000
  O   O9        1.0  0.2752725590080232  0.5276259886284862  0.005989176739575401  1.0000
  O   O10       1.0  0.4724165591844738  0.7247379112961669  0.49401113858193213  1.0000
  O   O11       1.0  0.7247271137360728  0.4723732250926887  0.9940114497264575  1.0000
  O   O12       1.0  0.5275836912981049  0.2752652032625775  0.5059881871588132  1.0000
  F   F1        1.0  0.5983685554013007  0.14193197476641475  0.8887985012347671  1.0000
  F   F2        1.0  0.8584544152286995  0.4018629855648754  0.6112144627252505  1.0000
  F   F3        1.0  0.4016298335237636  0.8580672389547601  0.1112011729896381  1.0000
  F   F4        1.0  0.14154397369636484  0.5981362281562996  0.388784284843922  1.0000
  F   F5        1.0  0.8210496025570961  0.9977120226294789  0.8905159086683555  1.0000
  F   F6        1.0  0.002270704452115498  0.1787103715990668  0.6094796120520841  1.0000
  F   F7        1.0  0.178951931744507  0.0022910919292585008  0.10948575929686652  1.0000
  F   F8        1.0  0.9977317285095424  0.8212901424012955  0.390520632011615  1.0000
  F   F9        1.0  0.6628372682276833  0.004994372361117902  0.9712044561323411  1.0000
  F   F10       1.0  0.9950774644602661  0.3371740959617498  0.5287946074206928  1.0000
  F   F11       1.0  0.3371604146168252  0.9950087421976195  0.028795745090867807  1.0000
  F   F12       1.0  0.004923684682353293  0.6628264180386128  0.4712046844013857  1.0000
