data_image0
_chemical_formula_structural       Cd4H56C52N8Cl8
_chemical_formula_sum              "Cd4 H56 C52 N8 Cl8"
_cell_length_a       8.58380536585223
_cell_length_b       11.926649800620147
_cell_length_c       13.691
_cell_angle_alpha    85.38865705576549
_cell_angle_beta     77.18557848323019
_cell_angle_gamma    82.46883690984737

_space_group_name_H-M_alt    "P 1"
_space_group_IT_number       1

loop_
  _space_group_symop_operation_xyz
  'x, y, z'

loop_
  _atom_site_type_symbol
  _atom_site_label
  _atom_site_symmetry_multiplicity
  _atom_site_fract_x
  _atom_site_fract_y
  _atom_site_fract_z
  _atom_site_occupancy
  Cd  Cd1       1.0  0.8602670618449864  0.1162335622126491  0.06664897502368211  1.0000
  Cd  Cd2       1.0  0.1397339806550022  0.8837665325609265  0.933350581208636  1.0000
  Cd  Cd3       1.0  0.9107210440045037  0.39938887964063247  0.9430749593245338  1.0000
  Cd  Cd4       1.0  0.0892807727992988  0.6006137559793956  0.056925041692061  1.0000
  H   H1        1.0  0.7529728163516083  0.2933271727608684  0.19405332985094503  1.0000
  H   H2        1.0  0.2470268912613491  0.7066737689615294  0.8059470830976281  1.0000
  H   H3        1.0  0.6115352330049788  0.2075685230034807  0.2152018456874316  1.0000
  H   H4        1.0  0.3884646147537794  0.7924315717700949  0.784798607089421  1.0000
  H   H5        1.0  0.6232400740225117  0.037438525656512  0.3374614623182597  1.0000
  H   H6        1.0  0.3767689777996921  0.9625564874241448  0.6625351448369869  1.0000
  H   H7        1.0  0.6721202923360394  0.9863294938636642  0.5082669830759629  1.0000
  H   H8        1.0  0.32788236534259607  0.013668060063452  0.49173106568981956  1.0000
  H   H9        1.0  0.9556203321371156  0.2635780954446787  0.482115378270656  1.0000
  H   H10       1.0  0.0443743162193115  0.7364245401753564  0.5178863499790225  1.0000
  H   H11       1.0  0.9024273176929895  0.3173805192599346  0.312122090077871  1.0000
  H   H12       1.0  0.09756733066343772  0.6826221163601006  0.6878789077649687  1.0000
  H   H13       1.0  0.5911969644512852  0.2337646500181378  0.6911000534073396  1.0000
  H   H14       1.0  0.40880597351897313  0.766231210011334  0.30890026623551853  1.0000
  H   H15       1.0  0.3733247266797051  0.1977888049744436  0.8380329828132957  1.0000
  H   H16       1.0  0.626678845448552  0.8022104428503098  0.16196774178555984  1.0000
  H   H17       1.0  0.5860099224129482  0.8519068587843179  0.8652578706122825  1.0000
  H   H18       1.0  0.4139843720770955  0.1480906951427912  0.1347442627447961  1.0000
  H   H19       1.0  0.2730843108522478  0.0738056610552249  0.9727304878691284  1.0000
  H   H20       1.0  0.7269153967607095  0.9261952806671658  0.02727065548628364  1.0000
  H   H21       1.0  0.3792745522095515  0.9530029047301483  0.0017989185885483089  1.0000
  H   H22       1.0  0.6207238205163674  0.04699888394107181  0.9982030814831192  1.0000
  H   H23       1.0  0.8899115010257006  0.2393858493390653  0.8103387196558104  1.0000
  H   H24       1.0  0.11008884074525581  0.7606184801786142  0.18966136784192864  1.0000
  H   H25       1.0  0.8000407440382985  0.3631979095965577  0.7725197873663846  1.0000
  H   H26       1.0  0.19996198721511857  0.6368064199211148  0.22747923744909573  1.0000
  H   H27       1.0  0.15219108680654608  0.1630317192832891  0.7339134366934488  1.0000
  H   H28       1.0  0.8478083405147956  0.836970916336746  0.2660876270053977  1.0000
  H   H29       1.0  0.3889671975470677  0.180461926006906  0.5937574234930736  1.0000
  H   H30       1.0  0.611033704807113  0.8195390157154847  0.4062428233177968  1.0000
  H   H31       1.0  0.1882464648182776  0.5166828217764134  0.5160831309826436  1.0000
  H   H32       1.0  0.8117557724229414  0.4833172729971622  0.4839155287051258  1.0000
  H   H33       1.0  0.9521601458226666  0.4999335619043848  0.6557751764894492  1.0000
  H   H34       1.0  0.04784286572235892  0.5000690737156503  0.34422392798259693  1.0000
  H   H35       1.0  0.5315025453191566  0.2786622539358206  0.45979393679390773  1.0000
  H   H36       1.0  0.46849835703502407  0.7213386877865773  0.5402048492032849  1.0000
  H   H37       1.0  0.5235350010393559  0.4242425927749736  0.4732113661338247  1.0000
  H   H38       1.0  0.47646590131482475  0.5757583489474172  0.5267874198633677  1.0000
  H   H39       1.0  0.5596404610108721  0.5173451357539562  0.31106681915799334  1.0000
  H   H40       1.0  0.4403580518608552  0.4826558059684345  0.6889330295214506  1.0000
  H   H41       1.0  0.2379872803427432  0.3748332924910756  0.05530270593601469  1.0000
  H   H42       1.0  0.7620122871244063  0.6251684961801374  0.944696206370601  1.0000
  H   H43       1.0  0.37980881353497864  0.4607698015007458  0.018474435566972106  1.0000
  H   H44       1.0  0.620192088819202  0.5392311402216521  0.9815250808370592  1.0000
  H   H45       1.0  0.4894074070798808  0.5524943587489517  0.1450825304136529  1.0000
  H   H46       1.0  0.5105899110506158  0.447506582973439  0.8549182148103327  1.0000
  H   H47       1.0  0.1756815145166684  0.2902917081885903  0.21608156317276436  1.0000
  H   H48       1.0  0.824315943759636  0.7097083865849854  0.7839177610658369  1.0000
  H   H49       1.0  0.24496829115953733  0.2559225250571728  0.38387095083636785  1.0000
  H   H50       1.0  0.7550302217121894  0.7440784166652179  0.6161288978430761  1.0000
  H   H51       1.0  0.8060217345110986  0.8899128401504939  0.7190882155411843  1.0000
  H   H52       1.0  0.19397192582093936  0.1100813259813407  0.2809120520462329  1.0000
  H   H53       1.0  0.9165392033212924  0.1537364559795051  0.6312488670365967  1.0000
  H   H54       1.0  0.0834560056183591  0.8462627918452412  0.3687537509330525  1.0000
  H   H55       1.0  0.9436453661959163  0.011022191948555402  0.6032083312888477  1.0000
  H   H56       1.0  0.05635448156284892  0.9889779028250203  0.3967906606743342  1.0000
  C   C1        1.0  0.7607943349052846  0.1804272011052745  0.3135971288739938  1.0000
  C   C2        1.0  0.2392083227733579  0.8195703528218417  0.6864016502986203  1.0000
  C   C3        1.0  0.6961568007370573  0.0871036044841631  0.369385116728033  1.0000
  C   C4        1.0  0.3038470516828085  0.912893949442946  0.6306127659000396  1.0000
  C   C5        1.0  0.7235258170759593  0.05898151585194  0.4654963555762635  1.0000
  C   C6        1.0  0.27647684060268324  0.9410160380751691  0.5345031540031897  1.0000
  C   C7        1.0  0.8173176865652181  0.1213432044460632  0.5079760618327143  1.0000
  C   C8        1.0  0.18268124674392544  0.8786551964298683  0.49202390633158194  1.0000
  C   C9        1.0  0.882703934882258  0.2134344905335013  0.4505889345340394  1.0000
  C   C10       1.0  0.11729218850701531  0.7865664511888895  0.5494127072344952  1.0000
  C   C11       1.0  0.8552141792162402  0.2431454551527708  0.35452709758679646  1.0000
  C   C12       1.0  0.144782084318841  0.7568546396207978  0.6454731231963536  1.0000
  C   C13       1.0  0.5903984881280309  0.1493119953417903  0.7283879265741577  1.0000
  C   C14       1.0  0.4096019202139587  0.8506847116364967  0.27161195510898756  1.0000
  C   C15       1.0  0.467112606026589  0.1297195282797148  0.8109204292707306  1.0000
  C   C16       1.0  0.5328876621695996  0.8702780256473944  0.18908014299097428  1.0000
  C   C17       1.0  0.4650522923944749  0.022336581240139704  0.8607310710862706  1.0000
  C   C18       1.0  0.5349454461734453  0.9776618196357918  0.13927052402940635  1.0000
  C   C19       1.0  0.5860995180453443  0.9352500105059535  0.8258725208815179  1.0000
  C   C20       1.0  0.4138986409599923  0.0647458495235185  0.17412773290533323  1.0000
  C   C21       1.0  0.03789725075699121  0.3303972756805038  0.704049067178687  1.0000
  C   C22       1.0  0.9621033713055808  0.6696053599395242  0.2959518303824566  1.0000
  C   C23       1.0  0.1612635191788669  0.2407384266052262  0.6863170506495353  1.0000
  C   C24       1.0  0.8387371028836981  0.759264209014809  0.31368311650476943  1.0000
  C   C25       1.0  0.2936209195438479  0.2510610388281336  0.6075240696406895  1.0000
  C   C26       1.0  0.7063811775515629  0.7489399028942572  0.3924760110324712  1.0000
  C   C27       1.0  0.3075220772781364  0.35015659166020197  0.5459300233231305  1.0000
  C   C28       1.0  0.6924788250760514  0.649844350062196  0.45406876267406204  1.0000
  C   C29       1.0  0.1819987370313285  0.4390896055964078  0.5641486868338532  1.0000
  C   C30       1.0  0.8180045548053129  0.5609113361259901  0.4358504972947586  1.0000
  C   C31       1.0  0.04841331409798501  0.4298417714265668  0.642146064456533  1.0000
  C   C32       1.0  0.9515896974470478  0.5701608641934612  0.35785304001551316  1.0000
  C   C33       1.0  0.4517185122257389  0.35887423586846984  0.4607649260464441  1.0000
  C   C34       1.0  0.5482826704200576  0.6411250119562837  0.539234670014153  1.0000
  C   C35       1.0  0.4737453479150489  0.4677156287767588  0.2915772171082622  1.0000
  C   C36       1.0  0.5262531649566782  0.532285312945632  0.7084226315711889  1.0000
  C   C37       1.0  0.4351227962529905  0.4873411268428285  0.19731550784242557  1.0000
  C   C38       1.0  0.5648770515057677  0.5126589679307401  0.8026842145275951  1.0000
  C   C39       1.0  0.3291704903099131  0.4223606724960689  0.1693221430649388  1.0000
  C   C40       1.0  0.6708293574488522  0.5776394222775068  0.8306775793050818  1.0000
  C   C41       1.0  0.25972249789052887  0.3397111718583332  0.2377318080257353  1.0000
  C   C42       1.0  0.7402773498682363  0.6602889229152424  0.7622671839374463  1.0000
  C   C43       1.0  0.2991494570490971  0.320942785998497  0.3314031068871941  1.0000
  C   C44       1.0  0.7008491959684379  0.6790573087750786  0.6685967816205363  1.0000
  C   C45       1.0  0.7086943943051905  0.9566718870200719  0.7435446356642501  1.0000
  C   C46       1.0  0.2913025699589156  0.043323973009400205  0.25645505385347184  1.0000
  C   C47       1.0  0.713982678465065  0.06367191841926  0.6936024939748863  1.0000
  C   C48       1.0  0.2860157608318872  0.9363222477125676  0.30639710906169887  1.0000
  C   C49       1.0  0.8550985133287127  0.08713663548815731  0.6098160110106932  1.0000
  C   C50       1.0  0.1448983107895927  0.9128600714901296  0.3901836386787423  1.0000
  C   C51       1.0  0.40750588067660937  0.38379147016433995  0.359784830374501  1.0000
  C   C52       1.0  0.5924929124867262  0.6162077776604136  0.6402150979615087  1.0000
  N   N1        1.0  0.7293919869964114  0.2118193591330169  0.21643726462531282  1.0000
  N   N2        1.0  0.2706080009081546  0.7881798886917367  0.7835632279798261  1.0000
  N   N3        1.0  0.33976369510212123  0.0009121638795619  0.9447835081541385  1.0000
  N   N4        1.0  0.660236152656637  0.9990879308940138  0.05521913584322388  1.0000
  N   N5        1.0  0.9055570481014142  0.3218600315709779  0.7867233821940475  1.0000
  N   N6        1.0  0.09444343381534992  0.6781434509978794  0.2132760147251318  1.0000
  N   N7        1.0  0.2859113335753065  0.4422233162318463  0.07493041748417544  1.0000
  N   N8        1.0  0.7140883740376438  0.5577776254905444  0.9250692650575588  1.0000
  Cl  Cl1       1.0  0.10388222867997847  0.2387616480584356  0.016016124238170414  1.0000
  Cl  Cl2       1.0  0.8961183933825936  0.7612409875615995  0.9839833125092953  1.0000
  Cl  Cl3       1.0  0.04185929127588393  0.9506348358283319  0.1277337635615936  1.0000
  Cl  Cl4       1.0  0.9581413307866881  0.0493677997916961  0.8722664035927041  1.0000
  Cl  Cl5       1.0  0.6565182800832616  0.2819450275636513  0.9980952171849964  1.0000
  Cl  Cl6       1.0  0.34348381701214953  0.7180559141587466  0.0019041330813251937  1.0000
  Cl  Cl7       1.0  0.856492424195679  0.4795364934629376  0.12967288627858414  1.0000
  Cl  Cl8       1.0  0.143506862979855  0.5204669891059126  0.8703266767783051  1.0000
