data_image0
_chemical_formula_structural       Zn4H20C44S10N8O16
_chemical_formula_sum              "Zn4 H20 C44 S10 N8 O16"
_cell_length_a       11.399384306572273
_cell_length_b       12.767042870298871
_cell_length_c       26.104063129768235
_cell_angle_alpha    90.16262334512248
_cell_angle_beta     89.83239879581927
_cell_angle_gamma    89.94597663730316

_space_group_name_H-M_alt    "P 1"
_space_group_IT_number       1

loop_
  _space_group_symop_operation_xyz
  'x, y, z'

loop_
  _atom_site_type_symbol
  _atom_site_label
  _atom_site_symmetry_multiplicity
  _atom_site_fract_x
  _atom_site_fract_y
  _atom_site_fract_z
  _atom_site_occupancy
  Zn  Zn1       1.0  0.6156619314560317  0.5026304319818846  0.5000734791847208  1.0000
  Zn  Zn2       1.0  0.37624456280183693  0.5020868190470722  0.49768920300157754  1.0000
  Zn  Zn3       1.0  0.3843938255914808  0.505234257491473  0.009263156549231197  1.0000
  Zn  Zn4       1.0  0.6237960194216968  0.504328026796685  0.011677116416635196  1.0000
  H   H1        1.0  0.8248628957443886  0.3845225953277945  0.44819998352235757  1.0000
  H   H2        1.0  0.1675607378471469  0.6196130383301932  0.5484867840613674  1.0000
  H   H3        1.0  0.686618760991621  0.14227988075481326  0.5037135790735476  1.0000
  H   H4        1.0  0.3110045922892226  0.8624245908496558  0.4947444246193838  1.0000
  H   H5        1.0  0.7069508200073144  0.4817540262522683  0.8580088072239676  1.0000
  H   H6        1.0  0.2930446387686843  0.4815155882172846  0.65129665033907  1.0000
  H   H7        1.0  0.31471913878046115  0.5000651202266511  0.3248943771947238  1.0000
  H   H8        1.0  0.6850913331166383  0.5017072973505419  0.18442360414172748  1.0000
  H   H9        1.0  0.17565975989436572  0.3872956786270548  0.06108367379878389  1.0000
  H   H10       1.0  0.8322260063920198  0.6214160088326465  0.9610490545157261  1.0000
  H   H11       1.0  0.3134757918572291  0.14502828348378924  0.0057495120759298995  1.0000
  H   H12       1.0  0.6890700753678232  0.8645577640985066  0.014439835910167197  1.0000
  H   H13       1.0  0.21595870315216814  0.4156254791192707  0.7704062081047666  1.0000
  H   H14       1.0  0.17225746728879443  0.4710644764186183  0.7164678812225843  1.0000
  H   H15       1.0  0.3097716262710862  0.5328813132622017  0.8782304136566521  1.0000
  H   H16       1.0  0.2477697970550423  0.5428802294173848  0.8155714473900912  1.0000
  H   H17       1.0  0.7840107685321344  0.41504272501745726  0.7387840151880523  1.0000
  H   H18       1.0  0.8277336630019221  0.4706581540685874  0.7928155430976176  1.0000
  H   H19       1.0  0.6902156677333552  0.5315672662586977  0.6311242876602988  1.0000
  H   H20       1.0  0.7522309462318902  0.5419897815477623  0.6937829401795668  1.0000
  C   C1        1.0  0.4934633862497649  0.7080137065432691  0.49789553987611157  1.0000
  C   C2        1.0  0.487048842230145  0.5061398922280204  0.599963389279857  1.0000
  C   C3        1.0  0.5027449936193875  0.2966848993118275  0.49936022175390343  1.0000
  C   C4        1.0  0.4991799334801216  0.4985081902737889  0.3985848079594163  1.0000
  C   C5        1.0  0.5065571898856831  0.7105119274177553  0.011454872071034598  1.0000
  C   C6        1.0  0.5128934600977146  0.5072175107971262  0.9093949256920693  1.0000
  C   C7        1.0  0.49737467614917824  0.2990838975532242  0.0099513097313775  1.0000
  C   C8        1.0  0.5007333844760352  0.5014055243514333  0.11073762222809337  1.0000
  C   C9        1.0  0.8659611983573755  0.4425460462116034  0.4729632852046989  1.0000
  C   C10       1.0  0.12628160226621082  0.5617133470535406  0.5237165657077866  1.0000
  C   C11       1.0  0.005334520835880601  0.5434535622762695  0.5159135118953913  1.0000
  C   C12       1.0  0.9869951237584688  0.46088730951835527  0.480709675807951  1.0000
  C   C13       1.0  0.5968697331627268  0.1139648755121598  0.5015078487943255  1.0000
  C   C14       1.0  0.4007609260338755  0.8907568966479854  0.4967417762759112  1.0000
  C   C15       1.0  0.5018189858948006  0.18117596068852035  0.49943453975500757  1.0000
  C   C16       1.0  0.4957342589352506  0.8234919011631302  0.498404802357676  1.0000
  C   C17       1.0  0.4373022267918926  0.996372657826306  0.4977509714322678  1.0000
  C   C18       1.0  0.5604514901674876  0.008252803412155197  0.5004022359930929  1.0000
  C   C19       1.0  0.4232444099127335  0.5081652711952316  0.8198697502103015  1.0000
  C   C20       1.0  0.6341822291652122  0.4909688085533474  0.8313718351086904  1.0000
  C   C21       1.0  0.6550831882671488  0.4895242580541248  0.7794523455482434  1.0000
  C   C22       1.0  0.5587052981702811  0.49898158983209123  0.7443317800422662  1.0000
  C   C23       1.0  0.5767621166203583  0.5075176661420854  0.6894762064729247  1.0000
  C   C24       1.0  0.36581383742961293  0.49074369022791586  0.6779503387809098  1.0000
  C   C25       1.0  0.3449067820863547  0.4896653266930212  0.7298680481084714  1.0000
  C   C26       1.0  0.4412873654634312  0.4991764561965794  0.7649980542831897  1.0000
  C   C27       1.0  0.5213759420388514  0.5033072221163764  0.8528450749996921  1.0000
  C   C28       1.0  0.4786233191626509  0.5026702078544574  0.6565046534751886  1.0000
  C   C29       1.0  0.40394476459872664  0.4995167212252054  0.31009884727274073  1.0000
  C   C30       1.0  0.5958777269181114  0.5008505096459643  0.19921667724966596  1.0000
  C   C31       1.0  0.5004039409881287  0.498789963666745  0.3421115539026615  1.0000
  C   C32       1.0  0.49942726133478743  0.5008065286395931  0.16720474648633396  1.0000
  C   C33       1.0  0.5614574667492749  0.49983012905500585  0.2512008107933212  1.0000
  C   C34       1.0  0.43839395603669834  0.49971074760105677  0.25812573105229564  1.0000
  C   C35       1.0  0.13431931890816173  0.44508346417744343  0.0363928505559841  1.0000
  C   C36       1.0  0.873643535185586  0.5637049772382667  0.9857590676225596  1.0000
  C   C37       1.0  0.9946284652449933  0.5455011841372794  0.9935043689433342  1.0000
  C   C38       1.0  0.013244932757771699  0.46325200709168957  0.028657546847362894  1.0000
  C   C39       1.0  0.4032289363425222  0.11658204183554227  0.007880766724205998  1.0000
  C   C40       1.0  0.5993306048849334  0.8930791364439301  0.012500602049733798  1.0000
  C   C41       1.0  0.49832179736592525  0.18359537124805314  0.009864044734427998  1.0000
  C   C42       1.0  0.5043222911140645  0.8259865554505124  0.010945409368289898  1.0000
  C   C43       1.0  0.5628118172432863  0.9987506029463232  0.011551241003182597  1.0000
  C   C44       1.0  0.4396414371117957  0.0108306316068862  0.0089833493349047  1.0000
  S   S1        1.0  0.872309613484724  0.5914501308503474  0.5358277627089477  1.0000
  S   S2        1.0  0.120039203240637  0.4134618522522897  0.460470240875395  1.0000
  S   S3        1.0  0.36778371595575277  0.11635861981861238  0.4963651355216782  1.0000
  S   S4        1.0  0.6299114101709763  0.8881440768289507  0.5011543322233364  1.0000
  S   S5        1.0  0.63338246620053  0.4988920064633646  0.309253165881195  1.0000
  S   S6        1.0  0.3664511872575745  0.5000441880202756  0.2000652279055828  1.0000
  S   S7        1.0  0.1274753304087071  0.5934458551931455  0.9736253338637084  1.0000
  S   S8        1.0  0.8803179550070723  0.415944809861088  0.04886666475182009  1.0000
  S   S9        1.0  0.6323534651829378  0.11860990759249286  0.012878994773522796  1.0000
  S   S10       1.0  0.37014459451845033  0.8908450085026232  0.0082985605806414  1.0000
  N   N1        1.0  0.7977079155245548  0.5062070509824678  0.5000776435845609  1.0000
  N   N2        1.0  0.1944559871492828  0.49810171237563566  0.49652995589593013  1.0000
  N   N3        1.0  0.20235006758129254  0.5085887825205828  0.0093124478768303  1.0000
  N   N4        1.0  0.8056377707281328  0.5002783258194086  0.012889645479809496  1.0000
  N   N5        1.0  0.2263487779328842  0.4792440578063974  0.7472115847049706  1.0000
  N   N6        1.0  0.3131534283096401  0.5210165036315358  0.8396167821166498  1.0000
  N   N7        1.0  0.7736399598338579  0.4787886117779862  0.762086578782494  1.0000
  N   N8        1.0  0.686852576643098  0.5199950559751939  0.669727646971367  1.0000
  O   O1        1.0  0.5932291309883838  0.6620444106011405  0.4967145984428851  1.0000
  O   O2        1.0  0.3932649242272745  0.6638428205000718  0.4985749810797201  1.0000
  O   O3        1.0  0.3908484390022694  0.5014457101499302  0.5748517415446202  1.0000
  O   O4        1.0  0.5886516614237395  0.5126024532318495  0.5782029027803687  1.0000
  O   O5        1.0  0.4029581568318862  0.34165313154137766  0.4959178285542193  1.0000
  O   O6        1.0  0.6022555635069224  0.3420238855854264  0.5027040111952913  1.0000
  O   O7        1.0  0.5982712890097233  0.49377807656928485  0.4212410441140476  1.0000
  O   O8        1.0  0.3986559586008768  0.5033263756963889  0.4200826526478493  1.0000
  O   O9        1.0  0.40680084525411087  0.6647014589638968  0.012728308867366396  1.0000
  O   O10       1.0  0.6067303868760163  0.6661184474000024  0.010648192383214896  1.0000
  O   O11       1.0  0.6090696981527443  0.5024153164380321  0.93451756439471  1.0000
  O   O12       1.0  0.411289554130903  0.5142185933126697  0.9311403072011115  1.0000
  O   O13       1.0  0.5971169358260157  0.34395518139228887  0.013565787213344997  1.0000
  O   O14       1.0  0.3978821151259808  0.34454011526004524  0.006482140269433498  1.0000
  O   O15       1.0  0.40167394438670817  0.49676381694435884  0.08804538476464777  1.0000
  O   O16       1.0  0.6012510432688744  0.5066241537462303  0.0892847737560771  1.0000
