data_image0
_chemical_formula_structural       Al2H12C48Br12O12
_chemical_formula_sum              "Al2 H12 C48 Br12 O12"
_cell_length_a       4.063159295596599
_cell_length_b       29.188654724502584
_cell_length_c       29.19140163705458
_cell_angle_alpha    119.99490714674279
_cell_angle_beta     90.00124849118701
_cell_angle_gamma    90.00120097792698

_space_group_name_H-M_alt    "P 1"
_space_group_IT_number       1

loop_
  _space_group_symop_operation_xyz
  'x, y, z'

loop_
  _atom_site_type_symbol
  _atom_site_label
  _atom_site_symmetry_multiplicity
  _atom_site_fract_x
  _atom_site_fract_y
  _atom_site_fract_z
  _atom_site_occupancy
  Al  Al1       1.0  0.00014253681053589997  0.4999896761114685  0.4999769208369287  1.0000
  Al  Al2       1.0  8.733138713499967e-06  0.16665624222090988  0.8333280267793484  1.0000
  H   H1        1.0  0.6567561148040255  0.2191373372390971  0.6394517323022484  1.0000
  H   H2        1.0  0.3424989355863133  0.36057631990561867  0.7808691270624807  1.0000
  H   H3        1.0  0.3412607987226367  0.30622092836652837  0.5524164001570142  1.0000
  H   H4        1.0  0.6584137171226345  0.4475226658982906  0.6937386925678692  1.0000
  H   H5        1.0  0.6569443422150486  0.9203383795647258  0.7809749939997488  1.0000
  H   H6        1.0  0.34274445943272985  0.9202568616541031  0.6394970880162629  1.0000
  H   H7        1.0  0.3413769232454698  0.7461693485934973  0.693777199449748  1.0000
  H   H8        1.0  0.6585552680013153  0.7462434171525134  0.5525005564380193  1.0000
  H   H9        1.0  0.6562438893019619  0.36058421509652316  0.07966943214351836  1.0000
  H   H10       1.0  0.3420452986085466  0.2191585354511645  0.07970098823832221  1.0000
  H   H11       1.0  0.34098631903779625  0.44760702569303146  0.2538036378844737  1.0000
  H   H12       1.0  0.6581535611592672  0.30625890796353167  0.25373494085520315  1.0000
  C   C1        1.0  0.5001373951607846  0.4593506665528012  0.41868493959596254  1.0000
  C   C2        1.0  0.5001507325696011  0.4593352732325544  0.540613156100946  1.0000
  C   C3        1.0  0.5001471270271197  0.581284035704748  0.540634582179564  1.0000
  C   C4        1.0  0.4999662591473708  0.20736968544527218  0.7926680062405467  1.0000
  C   C5        1.0  0.4999969153544015  0.08528807863466185  0.7926506159783385  1.0000
  C   C6        1.0  0.5000017696247385  0.20733273498102986  0.914702041956019  1.0000
  C   C7        1.0  0.4998703933056632  0.2372570841952  0.7627947144479066  1.0000
  C   C8        1.0  0.5886432116945671  0.21261648318004248  0.7091390180724204  1.0000
  C   C9        1.0  0.5875775763278595  0.2394946093690252  0.6810107199811171  1.0000
  C   C10       1.0  0.4995214206344301  0.2933347788078963  0.7066722272475515  1.0000
  C   C11       1.0  0.41168159976998453  0.3190110030978417  0.7605173222971117  1.0000
  C   C12       1.0  0.41099930877237517  0.2909069457384065  0.7874229662444916  1.0000
  C   C13       1.0  0.499477377692493  0.3213110103891596  0.6786660563540038  1.0000
  C   C14       1.0  0.49964775971550074  0.3454178677093724  0.6545377575503153  1.0000
  C   C15       1.0  0.4998670618230818  0.37340183320992554  0.62653892405757  1.0000
  C   C16       1.0  0.41126045244042325  0.34774528516014414  0.5727263270850712  1.0000
  C   C17       1.0  0.41077616893710467  0.3758548600556254  0.5458384640231984  1.0000
  C   C18       1.0  0.5000940114742818  0.4294819129305056  0.5704777615503716  1.0000
  C   C19       1.0  0.589323062717881  0.4541047212758046  0.624097699345988  1.0000
  C   C20       1.0  0.5885576032409717  0.42721357062405485  0.6522054599847209  1.0000
  C   C21       1.0  0.5000037504205751  0.025528890585654582  0.762793426923011  1.0000
  C   C22       1.0  0.5887904589761419  0.9965334312764402  0.787455787446966  1.0000
  C   C23       1.0  0.5877528804737581  0.9415278588293321  0.7605978157200182  1.0000
  C   C24       1.0  0.4997734158772147  0.9133320508723772  0.7067517455904025  1.0000
  C   C25       1.0  0.4118919301980669  0.9414890049085759  0.6810541489429554  1.0000
  C   C26       1.0  0.4111725638822961  0.9964946637295712  0.7091424399467384  1.0000
  C   C27       1.0  0.4997813722112598  0.8573431543490176  0.6787772296684907  1.0000
  C   C28       1.0  0.4998802231533333  0.8091108083003322  0.6546234052951972  1.0000
  C   C29       1.0  0.49995954537964604  0.7531341069732423  0.6266120323789366  1.0000
  C   C30       1.0  0.4113158161435493  0.7249624635723039  0.6522531756384565  1.0000
  C   C31       1.0  0.4107750706791081  0.6699655765919207  0.6241246058413524  1.0000
  C   C32       1.0  0.5000886026704876  0.6409934716605366  0.5705045241821197  1.0000
  C   C33       1.0  0.5892987983026858  0.6700107392215742  0.5458956384592921  1.0000
  C   C34       1.0  0.5886209740762495  0.7250094657553207  0.5728029378296425  1.0000
  C   C35       1.0  0.49982008114841386  0.2372084964674672  0.9744539000870843  1.0000
  C   C36       1.0  0.5884699266275463  0.29087246015125606  0.003462407873527705  1.0000
  C   C37       1.0  0.5871669306747479  0.3190162641769946  0.05846385045340696  1.0000
  C   C38       1.0  0.49894020434688013  0.2933610237438131  0.08664608992575748  1.0000
  C   C39       1.0  0.4112482504189998  0.23950106188787154  0.058479968623686276  1.0000
  C   C40       1.0  0.4108138939530407  0.2125854282200592  0.0034795203368176188  1.0000
  C   C41       1.0  0.4987794025888165  0.3213757544481625  0.14263635838351968  1.0000
  C   C42       1.0  0.4991328193623731  0.34548671678950893  0.19085490488159  1.0000
  C   C43       1.0  0.49954053294747774  0.37346922163558827  0.24683628865376755  1.0000
  C   C44       1.0  0.4110444605458953  0.42729043547271334  0.2750124859332033  1.0000
  C   C45       1.0  0.41062479301386656  0.4541687315632076  0.3300036864831029  1.0000
  C   C46       1.0  0.4999966916720169  0.429513351060706  0.35897548001378954  1.0000
  C   C47       1.0  0.5891915526621787  0.3758854653697343  0.3299688504644038  1.0000
  C   C48       1.0  0.5883386010862708  0.34779457350473564  0.2749720574063446  1.0000
  Br  Br1       1.0  0.721715272063591  0.14064605893540988  0.6731475693989566  1.0000
  Br  Br2       1.0  0.27820572755776857  0.3269222584457055  0.8594061608756788  1.0000
  Br  Br3       1.0  0.27800793147731884  0.3398735507479742  0.4738594549555088  1.0000
  Br  Br4       1.0  0.7220786302333765  0.5260738438547251  0.6600872018830586  1.0000
  Br  Br5       1.0  0.721804885207874  0.03253298207881996  0.8594322769069932  1.0000
  Br  Br6       1.0  0.27843809946106296  0.03243500283020514  0.6731002559788095  1.0000
  Br  Br7       1.0  0.2780683481209962  0.6339592634804493  0.6600941562385502  1.0000
  Br  Br8       1.0  0.7220997743843257  0.6340443113290705  0.4739245359513475  1.0000
  Br  Br9       1.0  0.7217546826733708  0.32686096362496647  0.9674924647489148  1.0000
  Br  Br10      1.0  0.2782647381944514  0.14060776169552025  0.9675242069313582  1.0000
  Br  Br11      1.0  0.2779908202481565  0.5261407817738688  0.3660133746209269  1.0000
  Br  Br12      1.0  0.7219851248036094  0.33987971316983595  0.36592842812192566  1.0000
  O   O1        1.0  0.7372490905044344  0.5584647137745622  0.5494830952217313  1.0000
  O   O2        1.0  0.7372079449904163  0.4910269778470494  0.4415032696172361  1.0000
  O   O3        1.0  0.7372252539296583  0.45048357356417074  0.5089426289624228  1.0000
  O   O4        1.0  0.26313248646398085  0.5584671818985641  0.5089508760069137  1.0000
  O   O5        1.0  0.2630990372488569  0.49101738263868827  0.5494803387949005  1.0000
  O   O6        1.0  0.26309452248214166  0.45049216843819556  0.44150611707564735  1.0000
  O   O7        1.0  0.7371385695562794  0.1756729459719183  0.8918732851354747  1.0000
  O   O8        1.0  0.7371286109157608  0.21618751744657771  0.8243216297301784  1.0000
  O   O9        1.0  0.7370998473236553  0.108126693374274  0.7838169940600465  1.0000
  O   O10       1.0  0.26287911904358213  0.21615039250518467  0.8918566902375388  1.0000
  O   O11       1.0  0.2628288119123567  0.10812081593490339  0.8243000150903441  1.0000
  O   O12       1.0  0.26283522764560985  0.17570117569964347  0.7838366226727799  1.0000
