data_image0
_chemical_formula_structural       Zn2P4H22C6N2O14
_chemical_formula_sum              "Zn2 P4 H22 C6 N2 O14"
_cell_length_a       7.572476219457635
_cell_length_b       7.905240628188909
_cell_length_c       8.526082912170226
_cell_angle_alpha    89.43379065437529
_cell_angle_beta     64.41744164407116
_cell_angle_gamma    82.14353991931209

_space_group_name_H-M_alt    "P 1"
_space_group_IT_number       1

loop_
  _space_group_symop_operation_xyz
  'x, y, z'

loop_
  _atom_site_type_symbol
  _atom_site_label
  _atom_site_symmetry_multiplicity
  _atom_site_fract_x
  _atom_site_fract_y
  _atom_site_fract_z
  _atom_site_occupancy
  Zn  Zn1       1.0  0.5743564242948125  0.767022830736316  0.3644729070179196  1.0000
  Zn  Zn2       1.0  0.425643268330738  0.23297508274845313  0.6355268545734631  1.0000
  P   P1        1.0  0.5144044844451159  0.8613532207156782  0.7505711897348134  1.0000
  P   P2        1.0  0.48559520620607094  0.13864469588165215  0.24942974545274416  1.0000
  P   P3        1.0  0.9722679259267935  0.3900994434161619  0.7781497529144231  1.0000
  P   P4        1.0  0.027734015436699587  0.6099023212741415  0.2218491046659921  1.0000
  H   H1        1.0  0.9264311016053527  0.7029194067468438  0.5912026901164465  1.0000
  H   H2        1.0  0.07356813774381979  0.2970810676126804  0.40879838899464  1.0000
  H   H3        1.0  0.17587332972498607  0.613982147363295  0.6859736981655473  1.0000
  H   H4        1.0  0.8241273724696684  0.38601833427735244  0.31402682099741236  1.0000
  H   H5        1.0  0.9965375905985709  0.652668027535789  0.9061348035379382  1.0000
  H   H6        1.0  0.0034628859450833984  0.3473337329859519  0.0938657875867861  1.0000
  H   H7        1.0  0.6409965229771329  0.6442959372732773  0.8883796894329166  1.0000
  H   H8        1.0  0.35900417526879375  0.35570455059249895  0.1116231769223859  1.0000
  H   H9        1.0  0.6634598653269987  0.8504685632281695  0.9526985311609266  1.0000
  H   H10       1.0  0.336540385565648  0.1495344761746651  0.047302131925555144  1.0000
  H   H11       1.0  0.13295986684416047  0.891062279468663  0.5963872573327434  1.0000
  H   H12       1.0  0.8670412925755925  0.10893563507210051  0.4036095971181624  1.0000
  H   H13       1.0  0.8878799352289874  0.0070271271359914  0.6695033680546983  1.0000
  H   H14       1.0  0.11212099853975836  0.992972066285866  0.330493558357972  1.0000
  H   H15       1.0  0.9829834912351246  0.9443650874263768  0.8245102435979277  1.0000
  H   H16       1.0  0.017017216882621297  0.0556353848765738  0.1754867547765002  1.0000
  H   H17       1.0  0.44879936390579883  0.46964313757042225  0.35198508024479475  1.0000
  H   H18       1.0  0.5511993171762695  0.5303522108710369  0.6480150973711858  1.0000
  H   H19       1.0  0.2870244706322395  0.6245752729915993  0.3459961077732672  1.0000
  H   H20       1.0  0.712976457213415  0.3754239297679548  0.6540043394279209  1.0000
  H   H21       1.0  0.7453051473475084  0.26740692059618704  0.008789937878468393  1.0000
  H   H22       1.0  0.2546955568215096  0.7325935579318922  0.9912094076883164  1.0000
  C   C1        1.0  0.019828044426894575  0.6117521181380712  0.7753326813105375  1.0000
  C   C2        1.0  0.980172655793396  0.3882483666151444  0.22466901144859014  1.0000
  C   C3        1.0  0.6843011448605338  0.768861761942894  0.8407542263686593  1.0000
  C   C4        1.0  0.3156980944886385  0.23113871241663023  0.1592468527424202  1.0000
  C   C5        1.0  0.9823642491129192  0.9091897689678704  0.700988574187228  1.0000
  C   C6        1.0  0.017638145526945  0.0908094348476709  0.2990089658734902  1.0000
  N   N1        1.0  0.9006616180905097  0.7439255925048514  0.7184904562105885  1.0000
  N   N2        1.0  0.09934077260063391  0.2560736175358258  0.2815094310424796  1.0000
  O   O1        1.0  0.42830158310273697  0.5939428284053535  0.32886929322899056  1.0000
  O   O2        1.0  0.5716983351738064  0.4060538061983223  0.6711303964006277  1.0000
  O   O3        1.0  0.3114151918381295  0.8800187873569598  0.9053459170375006  1.0000
  O   O4        1.0  0.6885859596841684  0.11997913963406151  0.09465563179810493  1.0000
  O   O5        1.0  0.5397910157934191  0.728547163847509  0.6057492596082311  1.0000
  O   O6        1.0  0.46020529983915287  0.27145329283720093  0.39425176580292737  1.0000
  O   O7        1.0  0.5772095937621415  0.0302445642659137  0.6696813408529181  1.0000
  O   O8        1.0  0.42279009886340185  0.9697533492188556  0.3303184207384646  1.0000
  O   O9        1.0  0.9403003598936266  0.3467091468909445  0.6195839910000699  1.0000
  O   O10       1.0  0.05970236736233392  0.6532964617237627  0.38041452251751207  1.0000
  O   O11       1.0  0.1475749419167656  0.2815505734698576  0.7927353985005183  1.0000
  O   O12       1.0  0.8524235154886597  0.7184460507401269  0.2072636774810519  1.0000
  O   O13       1.0  0.7807821270659474  0.38785200951550547  0.9508941523951862  1.0000
  O   O14       1.0  0.21921880275407093  0.6121471901314877  0.049105121209834075  1.0000
