data_image0
_chemical_formula_structural       CoH22C22S2N8O6
_chemical_formula_sum              "Co1 H22 C22 S2 N8 O6"
_cell_length_a       8.142135383195683
_cell_length_b       9.696903210436236
_cell_length_c       9.70951390625489
_cell_angle_alpha    60.9956554314625
_cell_angle_beta     86.32969656634685
_cell_angle_gamma    75.26880547459291

_space_group_name_H-M_alt    "P 1"
_space_group_IT_number       1

loop_
  _space_group_symop_operation_xyz
  'x, y, z'

loop_
  _atom_site_type_symbol
  _atom_site_label
  _atom_site_symmetry_multiplicity
  _atom_site_fract_x
  _atom_site_fract_y
  _atom_site_fract_z
  _atom_site_occupancy
  Co  Co1       1.0  0.49999791360325196  0.49999892943757385  0.500000634456768  1.0000
  H   H1        1.0  0.14223789936443146  0.6519300289476533  0.3103404411851045  1.0000
  H   H2        1.0  0.8577636123434472  0.34807400252452686  0.6896503319660283  1.0000
  H   H3        1.0  0.9745878950584766  0.45280097817570214  0.2726394471725299  1.0000
  H   H4        1.0  0.025412761501804784  0.5472017974891019  0.7273478597725641  1.0000
  H   H5        1.0  0.3898304107940901  0.2124636232007546  0.7956670270761491  1.0000
  H   H6        1.0  0.6101687367170144  0.787535517918741  0.20433551227952032  1.0000
  H   H7        1.0  0.9006979539942535  0.07033262854579901  0.3322638878050128  1.0000
  H   H8        1.0  0.09930419737761999  0.9296689959867382  0.6677352337655619  1.0000
  H   H9        1.0  0.6480314002186917  0.10843243215756362  0.9349561200542452  1.0000
  H   H10       1.0  0.35197074437684234  0.8915691969772157  0.06504402955135168  1.0000
  H   H11       1.0  0.3550073523796726  0.6979218501907952  0.6831536099078473  1.0000
  H   H12       1.0  0.6449917883550924  0.30207729553093543  0.31684995748285155  1.0000
  H   H13       1.0  0.6334701261333038  0.13830238973400102  0.17286198004507008  1.0000
  H   H14       1.0  0.36653569586870566  0.8616992928629513  0.8271379600197549  1.0000
  H   H15       1.0  0.178864512738123  0.16444104220587263  0.4173784168572112  1.0000
  H   H16       1.0  0.8211339815563008  0.8355605150577505  0.5826178301490684  1.0000
  H   H17       1.0  0.3016344933924699  0.23580760801220896  0.04069009424704004  1.0000
  H   H18       1.0  0.698364108638522  0.764189080733452  0.9593146951648563  1.0000
  H   H19       1.0  0.25831228749936497  0.5309570572770143  0.9901567653296509  1.0000
  H   H20       1.0  0.7416850751767827  0.46903962285239953  0.00985014999921672  1.0000
  H   H21       1.0  0.4395513579347821  0.1651613697587067  0.544709704706662  1.0000
  H   H22       1.0  0.5604434250714617  0.834840157053961  0.45529189201551645  1.0000
  C   C1        1.0  0.9069286958276094  0.05734356103877761  0.22665805064768563  1.0000
  C   C2        1.0  0.09307469489910854  0.9426580721099924  0.7733389450059178  1.0000
  C   C3        1.0  0.7644923074738443  0.07807537745645732  0.003629497659829881  1.0000
  C   C4        1.0  0.23551142002572317  0.9219250407168788  0.9963691021159277  1.0000
  C   C5        1.0  0.3674078285508172  0.32287406112880035  0.8044288318400276  1.0000
  C   C6        1.0  0.6325904299309784  0.6771238471945298  0.19557538148472978  1.0000
  C   C7        1.0  0.7568338132181934  0.09621472491311785  0.13624207196015448  1.0000
  C   C8        1.0  0.24317130813275148  0.9037894060436714  0.8637587720004448  1.0000
  C   C9        1.0  0.34947533197183844  0.5721526647440315  0.7529474250228176  1.0000
  C   C10       1.0  0.6505223742535051  0.42784279580771317  0.2470600663931819  1.0000
  C   C11       1.0  0.2991116780898224  0.4915560733113794  0.9035407424991674  1.0000
  C   C12       1.0  0.7008885136215353  0.5084393998705964  0.09646146904785972  1.0000
  C   C13       1.0  0.3382399575889394  0.27241019028800656  0.4754363985867441  1.0000
  C   C14       1.0  0.6617579776726926  0.7275889238062732  0.524564154545807  1.0000
  C   C15       1.0  0.09617690692220994  0.4253700511139159  0.3319694807845508  1.0000
  C   C16       1.0  0.9038273863864957  0.5746328056265287  0.6680237848299128  1.0000
  C   C17       1.0  0.17927300396019052  0.5222046128200974  0.35174691284020543  1.0000
  C   C18       1.0  0.8207251271304373  0.4777895729270441  0.6482488182426351  1.0000
  C   C19       1.0  0.07721204587733141  0.9794620373704319  0.04572521166610945  1.0000
  C   C20       1.0  0.9227909945238509  0.020540819958263505  0.9542722359353775  1.0000
  C   C21       1.0  0.06277403143433682  0.9992767022265313  0.18311183902231662  1.0000
  C   C22       1.0  0.9372298776671286  0.0007274017050490997  0.816887018715164  1.0000
  S   S1        1.0  0.24716597320571043  0.9434885771989914  0.3074762255981581  1.0000
  S   S2        1.0  0.7528356326860501  0.056510594959704  0.6925251460286361  1.0000
  N   N1        1.0  0.39324168171227564  0.4649428724966924  0.6930792885802717  1.0000
  N   N2        1.0  0.6067574657988288  0.5350562686228031  0.3069232507754052  1.0000
  N   N3        1.0  0.31056828468840786  0.3351304427668325  0.9331746979103528  1.0000
  N   N4        1.0  0.6894296302441986  0.6648686851341735  0.06682893932726582  1.0000
  N   N5        1.0  0.19827915491096346  0.2690493206170857  0.4108301522275468  1.0000
  N   N6        1.0  0.8017184571304979  0.7309509992481366  0.5891667407127982  1.0000
  N   N7        1.0  0.3307380664137511  0.42520712004110817  0.44168491523415543  1.0000
  N   N8        1.0  0.6692560498231398  0.5747968321201855  0.5583124452086848  1.0000
  O   O1        1.0  0.18716358660285679  0.9758998789780337  0.437655100703715  1.0000
  O   O2        1.0  0.8128352173590585  0.024100481719138103  0.5623468625648228  1.0000
  O   O3        1.0  0.32434092119953567  0.7701920827206125  0.3613149942210399  1.0000
  O   O4        1.0  0.6756575527658698  0.2298094883497441  0.6386843368903142  1.0000
  O   O5        1.0  0.3602531800426121  0.046771617610829715  0.2094241026408028  1.0000
  O   O6        1.0  0.6397480755236132  0.953228778727784  0.7905777209338893  1.0000
