data_image0
_chemical_formula_structural       Zn4H40C56S8O20
_chemical_formula_sum              "Zn4 H40 C56 S8 O20"
_cell_length_a       10.986842576
_cell_length_b       11.557576505712014
_cell_length_c       17.2715
_cell_angle_alpha    90.0
_cell_angle_beta     90.0
_cell_angle_gamma    95.97313223571952

_space_group_name_H-M_alt    "P 1"
_space_group_IT_number       1

loop_
  _space_group_symop_operation_xyz
  'x, y, z'

loop_
  _atom_site_type_symbol
  _atom_site_label
  _atom_site_symmetry_multiplicity
  _atom_site_fract_x
  _atom_site_fract_y
  _atom_site_fract_z
  _atom_site_occupancy
  Zn  Zn1       1.0  0.9245632586638592  0.8980177756884657  0.9921240193382131  1.0000
  Zn  Zn2       1.0  0.9245721772582056  0.3980433585850847  0.5078725067307417  1.0000
  Zn  Zn3       1.0  0.0754270829617951  0.1019580271685641  0.0078765596502919  1.0000
  Zn  Zn4       1.0  0.07544098124898109  0.6019829017466307  0.49212459832672545  1.0000
  H   H1        1.0  0.49545746228002213  0.8669063927619689  0.24133920041687418  1.0000
  H   H2        1.0  0.49547472081258087  0.3669250160069097  0.2586625365486483  1.0000
  H   H3        1.0  0.5045300957172572  0.1330772397031978  0.7586642735141709  1.0000
  H   H4        1.0  0.5045378241585965  0.6330873250214424  0.7413397794053793  1.0000
  H   H5        1.0  0.3896722896829202  0.7173643570947092  0.3268013779926449  1.0000
  H   H6        1.0  0.38969329511301953  0.217367321123362  0.17320846481197086  1.0000
  H   H7        1.0  0.6103130560793416  0.2826323247173619  0.6732096227889881  1.0000
  H   H8        1.0  0.6103219913438734  0.7826284907322432  0.8268042729351848  1.0000
  H   H9        1.0  0.17160034615813657  0.643803448697092  0.3033569753640393  1.0000
  H   H10       1.0  0.17162106589156417  0.1438038028563682  0.1966557623831164  1.0000
  H   H11       1.0  0.828388883876549  0.3561871434197528  0.6966522884520714  1.0000
  H   H12       1.0  0.8283963797107817  0.8561867892604836  0.8033621862605997  1.0000
  H   H13       1.0  0.060249945044169785  0.7271826857035251  0.1927568537764515  1.0000
  H   H14       1.0  0.06026926748994299  0.2271952192532396  0.3072495150971264  1.0000
  H   H15       1.0  0.9397385762222824  0.2727931171535047  0.8072471991430985  1.0000
  H   H16       1.0  0.9397463468062809  0.7728119020363522  0.6927609066960017  1.0000
  H   H17       1.0  0.4948684663497146  0.0685221205806528  0.24851634195061217  1.0000
  H   H18       1.0  0.494890556253324  0.5685469951587194  0.251467446371187  1.0000
  H   H19       1.0  0.5051160754120828  0.9314589020151375  0.7514686043482044  1.0000
  H   H20       1.0  0.5051258199007123  0.4314670857825504  0.7485174999276296  1.0000
  H   H21       1.0  0.5861238319546018  0.2121136540607509  0.3424259618446541  1.0000
  H   H22       1.0  0.5861717035306454  0.7121246093354614  0.1575543525461001  1.0000
  H   H23       1.0  0.4138414898564236  0.7878830277513131  0.6575526155805775  1.0000
  H   H24       1.0  0.4138604423202067  0.2878755523024523  0.8424242248791387  1.0000
  H   H25       1.0  0.804018627067087  0.2987647973136589  0.327398894131953  1.0000
  H   H26       1.0  0.8040722563643284  0.7987618332850062  0.1725901050864138  1.0000
  H   H27       1.0  0.19593983637869167  0.7012440638888505  0.6725854731783583  1.0000
  H   H28       1.0  0.1959599847187548  0.2012391983093664  0.8273983151434479  1.0000
  H   H29       1.0  0.9285820682293033  0.2291126032913269  0.21841530845613014  1.0000
  H   H30       1.0  0.9286078097982297  0.7291209486966538  0.2815893234519322  1.0000
  H   H31       1.0  0.07140151026332119  0.7708762489126073  0.781585270532382  1.0000
  H   H32       1.0  0.0714006073464972  0.270903571722144  0.71841530845613  1.0000
  H   H33       1.0  0.7272652655227175  0.7657060976701616  0.0209865964160585  1.0000
  H   H34       1.0  0.7272831375912858  0.2657386402184656  0.47900935066439126  1.0000
  H   H35       1.0  0.27271746682679066  0.23425839575288168  0.9790110876299137  1.0000
  H   H36       1.0  0.2727329840618182  0.7342980595907704  0.5209877543930759  1.0000
  H   H37       1.0  0.8383352966343125  0.7007516685324262  0.044998986770110584  1.0000
  H   H38       1.0  0.8383501103247466  0.2007729016467437  0.4550073821034672  1.0000
  H   H39       1.0  0.16165068455778447  0.2992258742375213  0.9550085400804774  1.0000
  H   H40       1.0  0.16165754496218196  0.7992446591203688  0.545000723735633  1.0000
  C   C1        1.0  0.3360927609202591  0.8876139663819984  0.17169904177401915  1.0000
  C   C2        1.0  0.3361067175206571  0.3876273698881718  0.3283038531685136  1.0000
  C   C3        1.0  0.6638957072566213  0.1123696660831754  0.8283032741800083  1.0000
  C   C4        1.0  0.6639047268064643  0.6123832312272626  0.671698462785514  1.0000
  C   C5        1.0  0.3987168581981563  0.8387833102759572  0.2321222823726927  1.0000
  C   C6        1.0  0.3987334501051336  0.3387958438256717  0.26788061256983997  1.0000
  C   C7        1.0  0.6012702657806557  0.161204671971511  0.7678811915583452  1.0000
  C   C8        1.0  0.6012795288845182  0.6612121474203789  0.7321222823726927  1.0000
  C   C9        1.0  0.3393128926202066  0.7532744198551738  0.2796844512636412  1.0000
  C   C10       1.0  0.33933418374698476  0.2532799937532104  0.22032481255246944  1.0000
  C   C11       1.0  0.66067288716053  0.24671791217459568  0.7203242335639644  1.0000
  C   C12       1.0  0.6606823938184121  0.7467192979282373  0.7796861882291637  1.0000
  C   C13       1.0  0.21712175567198239  0.7114730119468362  0.2664406681527395  1.0000
  C   C14       1.0  0.2171429515665366  0.2114777158884138  0.23356917465188326  1.0000
  C   C15       1.0  0.7828645533594524  0.2885158402570909  0.7335674376863608  1.0000
  C   C16       1.0  0.782874440946237  0.7885207058365751  0.7664435630952724  1.0000
  C   C17       1.0  0.15499869346552939  0.7582705798055969  0.205742987001706  1.0000
  C   C18       1.0  0.1550196458060569  0.2582813734423937  0.2942662768144045  1.0000
  C   C19       1.0  0.844987763887701  0.2417113127466521  0.7942622238948545  1.0000
  C   C20       1.0  0.8449968786697751  0.7417257478471982  0.7057458819442457  1.0000
  C   C21       1.0  0.2113202571173147  0.8478404269821739  0.1592791593086886  1.0000
  C   C22       1.0  0.2113371347209636  0.347855570401272  0.3407266305763841  1.0000
  C   C23       1.0  0.7886678301306701  0.1521397256571504  0.8407248936108616  1.0000
  C   C24       1.0  0.7886774210738707  0.6521585105399978  0.6592785803201835  1.0000
  C   C25       1.0  0.1361901594947739  0.9007772775799339  0.0998384622065274  1.0000
  C   C26       1.0  0.1362043065596197  0.4007924209990322  0.4001655907130227  1.0000
  C   C27       1.0  0.863801473239391  0.0992020051029314  0.9001644327360123  1.0000
  C   C28       1.0  0.8638058888016573  0.5992233998551626  0.5998355672639875  1.0000
  C   C29       1.0  0.6608090790117699  0.0621975371156438  0.1822713719132665  1.0000
  C   C30       1.0  0.6608244167292624  0.562218931867875  0.3177234171901659  1.0000
  C   C31       1.0  0.33918054289873106  0.9377800056543036  0.8177257331442007  1.0000
  C   C32       1.0  0.33918629693580016  0.4378099383332241  0.6822754248328167  1.0000
  C   C33       1.0  0.5913981603658698  0.10060524487308702  0.24345482442173247  1.0000
  C   C34       1.0  0.5914255208826374  0.6006283795382359  0.25653185884259944  1.0000
  C   C35       1.0  0.4085836508571248  0.8993757777226961  0.7565335958081219  1.0000
  C   C36       1.0  0.40859415720355935  0.39939092114179425  0.74345714037576  1.0000
  C   C37       1.0  0.6432794955116208  0.18256384298015857  0.2963054743363358  1.0000
  C   C38       1.0  0.643320276115304  0.6825765381677869  0.2036812089280033  1.0000
  C   C39       1.0  0.356690906448108  0.8174293590060699  0.7036817879165085  1.0000
  C   C40       1.0  0.3567084616242582  0.3174340629476475  0.7963054743363358  1.0000
  C   C41       1.0  0.7650090726434726  0.2303009638158358  0.2884526532148328  1.0000
  C   C42       1.0  0.76505229808928  0.7303110491340803  0.21153808296905643  1.0000
  C   C43       1.0  0.23495859877745315  0.7696922381703928  0.7115351880265166  1.0000
  C   C44       1.0  0.23497600563180748  0.2697039017636484  0.7884526532148328  1.0000
  C   C45       1.0  0.8343831681226703  0.19252136462259273  0.22785050516747415  1.0000
  C   C46       1.0  0.8344094810849468  0.6925349297666799  0.2721506528095432  1.0000
  C   C47       1.0  0.1655992144936747  0.8074648777119577  0.7721494948325256  1.0000
  C   C48       1.0  0.16560396311891876  0.3074939404344192  0.7278510841559793  1.0000
  C   C49       1.0  0.7852060237693052  0.1074535421270824  0.1755377355759506  1.0000
  C   C50       1.0  0.7852250974374327  0.6074758068357724  0.3244611064470391  1.0000
  C   C51       1.0  0.21478067713793783  0.8925222607299403  0.8244611064470391  1.0000
  C   C52       1.0  0.21478474819068785  0.3925617629299225  0.6755412095069886  1.0000
  C   C53       1.0  0.8658974309272054  0.068669143222408  0.1135234345598235  1.0000
  C   C54       1.0  0.8659044396533985  0.5686809684535774  0.3864771444286815  1.0000
  C   C55       1.0  0.13410277435227158  0.9313136192862999  0.8864800393712213  1.0000
  C   C56       1.0  0.1341053107424983  0.4313557313556586  0.6135251715253459  1.0000
  S   S1        1.0  0.4114545450257552  0.9938478295520029  0.1082899574443417  1.0000
  S   S2        1.0  0.411471655236518  0.4938734124486217  0.3917083055901357  1.0000
  S   S3        1.0  0.5885318701848163  0.0061253634356433  0.8917094635671461  1.0000
  S   S4        1.0  0.5885412175739972  0.50615023801371  0.6082899574443417  1.0000
  S   S5        1.0  0.5928679414786656  0.9646390414037712  0.1106377558405498  1.0000
  S   S6        1.0  0.5928818449894919  0.4646602745180886  0.3893552962973671  1.0000
  S   S7        1.0  0.4071233103265897  0.0353367614532516  0.8893576122513949  1.0000
  S   S8        1.0  0.407128392514437  0.535364245900702  0.6106418087600929  1.0000
  O   O1        1.0  0.0415255472330358  0.8404423172453903  0.0734209535940735  1.0000
  O   O2        1.0  0.04154822470054849  0.3404522409257282  0.426587731233532  1.0000
  O   O3        1.0  0.9584547293274284  0.1595413152197764  0.9265877312335319  1.0000
  O   O4        1.0  0.9584742370140232  0.659559230146165  0.5734215325825787  1.0000
  O   O5        1.0  0.17181693855387434  0.005949632230702699  0.0805905682772163  1.0000
  O   O6        1.0  0.1718223595279653  0.5059718969393856  0.4194047998147212  1.0000
  O   O7        1.0  0.8281801131152378  0.9940209508875668  0.9194024838606933  1.0000
  O   O8        1.0  0.8281763313378221  0.4940552333487886  0.5805830414266282  1.0000
  O   O9        1.0  0.8337445247650733  0.96913149656379  0.083355817387023  1.0000
  O   O10       1.0  0.8337647152477956  0.4691353305489017  0.4166285499232814  1.0000
  O   O11       1.0  0.1662407788545366  0.0308564856836782  0.9166337608198487  1.0000
  O   O12       1.0  0.1662634401514964  0.5308865800005123  0.5833610282835906  1.0000
  O   O13       1.0  0.9609569831355955  0.1359211273713044  0.095262137046582  1.0000
  O   O14       1.0  0.9609581389083599  0.635946001949371  0.4047488637350583  1.0000
  O   O15       1.0  0.039043423555248986  0.8640468458775814  0.9047471267695357  1.0000
  O   O16       1.0  0.0390405410105146  0.3640976575115431  0.5952592421040421  1.0000
  O   O17       1.0  0.8057284839038558  0.744024172814811  0.0024717019367131  1.0000
  O   O18       1.0  0.8057399425725578  0.2440480157985121  0.4975311930058197  1.0000
  O   O19       1.0  0.19426085230996648  0.2559507600857529  0.9975329299713422  1.0000
  O   O20       1.0  0.19426976568067997  0.755979984446121  0.5024717019367131  1.0000
