data_image0
_chemical_formula_structural       Zn2H42C34S2N6O14
_chemical_formula_sum              "Zn2 H42 C34 S2 N6 O14"
_cell_length_a       9.30560704276616
_cell_length_b       9.790937905011772
_cell_length_c       11.453764522477728
_cell_angle_alpha    89.99995992052573
_cell_angle_beta     94.05779654682047
_cell_angle_gamma    89.99982995291874

_space_group_name_H-M_alt    "P 1"
_space_group_IT_number       1

loop_
  _space_group_symop_operation_xyz
  'x, y, z'

loop_
  _atom_site_type_symbol
  _atom_site_label
  _atom_site_symmetry_multiplicity
  _atom_site_fract_x
  _atom_site_fract_y
  _atom_site_fract_z
  _atom_site_occupancy
  Zn  Zn1       1.0  0.19532706136241265  0.1688607426887003  0.575643362306117  1.0000
  Zn  Zn2       1.0  0.8046733412021396  0.6688569840069931  0.4243564123492263  1.0000
  H   H1        1.0  0.7611013721005405  0.7377277614135381  0.705568706965117  1.0000
  H   H2        1.0  0.23889456455272295  0.23772651444273407  0.294426363270567  1.0000
  H   H3        1.0  0.8328031656170436  0.9769702992293007  0.7503565821519871  1.0000
  H   H4        1.0  0.1671952537963577  0.4769713335508214  0.2496376414518764  1.0000
  H   H5        1.0  0.4487191445629506  0.0365082639158985  0.9319559474460207  1.0000
  H   H6        1.0  0.551287993279196  0.536504485045974  0.0680548323136208  1.0000
  H   H7        1.0  0.37476082781429193  0.7967654804788895  0.8871854222808722  1.0000
  H   H8        1.0  0.6252401203621929  0.2967643067426381  0.1128230456128421  1.0000
  H   H9        1.0  0.602461080223179  0.23542670046642666  0.8833764097635068  1.0000
  H   H10       1.0  0.3975456237978818  0.73542331780056  0.11662025486522512  1.0000
  H   H11       1.0  0.7621758362919238  0.20908786252660858  0.8103372955291306  1.0000
  H   H12       1.0  0.23782661764106183  0.709089980209214  0.1896608465579774  1.0000
  H   H13       1.0  0.757625407893144  0.1681233983660348  0.9608573119305034  1.0000
  H   H14       1.0  0.24237935583494863  0.6681205165061216  0.0391392622112718  1.0000
  H   H15       1.0  0.25642796908277177  0.6544698775889941  0.6442155277731203  1.0000
  H   H16       1.0  0.7435702998713936  0.1544681752173531  0.3557858588848077  1.0000
  H   H17       1.0  0.36329591534900624  0.5845408725885192  0.4049930615889251  1.0000
  H   H18       1.0  0.6367025761688082  0.0845392816906596  0.5950083807239182  1.0000
  H   H19       1.0  0.18726133505923306  0.6420310089664698  0.42615343621385904  1.0000
  H   H20       1.0  0.8127369610379985  0.14202383016129974  0.573848832647073  1.0000
  H   H21       1.0  0.4672470613121077  0.8029467343426119  0.4894155598197756  1.0000
  H   H22       1.0  0.5327571612132616  0.30294652624024115  0.5105887577269925  1.0000
  H   H23       1.0  0.35322035217293996  0.8291517892838485  0.3648746378128678  1.0000
  H   H24       1.0  0.6467816324556992  0.3291480951597876  0.6351295148272911  1.0000
  H   H25       1.0  0.2632590356815215  0.33831317496400715  0.7847788857656255  1.0000
  H   H26       1.0  0.7367408026462313  0.8383148821002352  0.2152224986260833  1.0000
  H   H27       1.0  0.2629630977183481  0.3123374273590969  0.0003278884282381021  1.0000
  H   H28       1.0  0.7370357335694135  0.8123446358765563  0.9996743169098252  1.0000
  H   H29       1.0  0.16919079543499288  0.0958710325385255  0.08454545776293539  1.0000
  H   H30       1.0  0.830804490534625  0.5958780429631005  0.9154513979461284  1.0000
  H   H31       1.0  0.08607478160673308  0.9524680938400177  0.7282598484292677  1.0000
  H   H32       1.0  0.9139204965013691  0.4524659765790702  0.2717333062976692  1.0000
  H   H33       1.0  0.0006330589831903988  0.8273187471628629  0.8986477655019057  1.0000
  H   H34       1.0  0.9993637320456726  0.3273216308858622  0.10134294394963916  1.0000
  H   H35       1.0  0.04104161635769539  0.8793109877954777  0.03862875107520129  1.0000
  H   H36       1.0  0.9589549593710414  0.37931636370444016  0.9613654061998673  1.0000
  H   H37       1.0  0.5398980125135253  0.5525957114152434  0.5697328591197461  1.0000
  H   H38       1.0  0.4601005557623238  0.0525967942977488  0.4302703532184822  1.0000
  H   H39       1.0  0.9680350188137293  0.2497426557338684  0.4501266989536035  1.0000
  H   H40       1.0  0.031964073974343386  0.74974711112732  0.549871194698369  1.0000
  H   H41       1.0  0.9881240193418535  0.086008578047462  0.4269130306518464  1.0000
  H   H42       1.0  0.011878813859830497  0.5860120503955103  0.5730860816918124  1.0000
  C   C1        1.0  0.6927850690910373  0.802866643569246  0.7556949628492049  1.0000
  C   C2        1.0  0.30721280228839726  0.3028652433132423  0.2443010718969063  1.0000
  C   C3        1.0  0.7328383261996265  0.9371284841982189  0.7814638196260547  1.0000
  C   C4        1.0  0.267162349608398  0.4371292605204431  0.21853232434109768  1.0000
  C   C5        1.0  0.646755430088028  0.023520498457408202  0.8455059362722182  1.0000
  C   C6        1.0  0.353249781413389  0.52351823224501  0.1544916252565756  1.0000
  C   C7        1.0  0.516857236823057  0.9715473113463489  0.8818139920869115  1.0000
  C   C8        1.0  0.48315183535063966  0.4715424499155535  0.118190551406137  1.0000
  C   C9        1.0  0.4746937521492497  0.837244619205279  0.8570295128004731  1.0000
  C   C10       1.0  0.5253103487636395  0.3372426827773652  0.142975649751051  1.0000
  C   C11       1.0  0.5635245287576466  0.7531197890978093  0.7949569715852008  1.0000
  C   C12       1.0  0.43647667042445437  0.25311907581723153  0.2050436803359972  1.0000
  C   C13       1.0  0.6942540998288749  0.16643624736277474  0.8759627671159862  1.0000
  C   C14       1.0  0.3057517340623121  0.6664341398311394  0.12403475269523768  1.0000
  C   C15       1.0  0.31145773375538244  0.5869379886440597  0.5851026058350257  1.0000
  C   C16       1.0  0.6885428921772955  0.08693639479088232  0.41489985092297127  1.0000
  C   C17       1.0  0.2315402132425746  0.44972857114882464  0.583447397507328  1.0000
  C   C18       1.0  0.7684582056944365  0.949725942501317  0.4165529538860682  1.0000
  C   C19       1.0  0.300055082885045  0.6485133603818838  0.4613863738669579  1.0000
  C   C20       1.0  0.6999453470744611  0.14850959285322324  0.5386160338854182  1.0000
  C   C21       1.0  0.35372442571483725  0.7948659661877571  0.4565219092710819  1.0000
  C   C22       1.0  0.6462776804905274  0.2948623466135417  0.5434813983553823  1.0000
  C   C23       1.0  0.2688055254437102  0.9000980635910949  0.519204376659701  1.0000
  C   C24       1.0  0.7311973230849061  0.4000962964861615  0.48079891924010804  1.0000
  C   C25       1.0  0.22007941829193806  0.24672036134749928  0.8228488379921899  1.0000
  C   C26       1.0  0.7799196467564612  0.7467209553463547  0.17715167496968579  1.0000
  C   C27       1.0  0.21928488765718157  0.23094450186149368  0.9435937736375309  1.0000
  C   C28       1.0  0.7807142525061296  0.7309482540109757  0.056405007276751504  1.0000
  C   C29       1.0  0.16562696330889537  0.11176905107210193  0.990096995978128  1.0000
  C   C30       1.0  0.8343714913610398  0.6117726885207732  0.009900935458333  1.0000
  C   C31       1.0  0.11315173857318682  0.007669833553976002  0.9136660959221885  1.0000
  C   C32       1.0  0.8868449302805955  0.5076732615633972  0.08632915740967208  1.0000
  C   C33       1.0  0.11846526428665527  0.0307238454471204  0.7926985492987981  1.0000
  C   C34       1.0  0.8815302664048871  0.5307231065631655  0.207295741359566  1.0000
  S   S1        1.0  0.5140636862679457  0.5808278991881436  0.7644073743598554  1.0000
  S   S2        1.0  0.4859283286619131  0.08082497890758591  0.2355953833546849  1.0000
  N   N1        1.0  0.17017903948260477  0.14694146049711784  0.7495194571759568  1.0000
  N   N2        1.0  0.8298203929566697  0.646939812108009  0.2504776459946498  1.0000
  N   N3        1.0  0.0655300351938095  0.884712521963607  0.9539394185018254  1.0000
  N   N4        1.0  0.934465471005744  0.3847166547595934  0.04605291784679371  1.0000
  N   N5        1.0  0.4616574510990289  0.575508823606576  0.627325329815676  1.0000
  N   N6        1.0  0.5383410442529025  0.0755087097344642  0.3726778642869775  1.0000
  O   O1        1.0  0.6456147574462747  0.5011601605665633  0.7797410591788392  1.0000
  O   O2        1.0  0.3543850393295714  0.0011606887439867997  0.2202631384230074  1.0000
  O   O3        1.0  0.391837605147721  0.5495654631793485  0.8316250859607733  1.0000
  O   O4        1.0  0.6081631148268015  0.049560208016856705  0.168379145144641  1.0000
  O   O5        1.0  0.306175296771137  0.34162953264399937  0.5680595367265155  1.0000
  O   O6        1.0  0.6938245434615311  0.8416281242229573  0.43194097272601784  1.0000
  O   O7        1.0  0.0980415140830289  0.44896682596374415  0.5959316539516522  1.0000
  O   O8        1.0  0.9019558300294006  0.9489638295913282  0.4040686260221661  1.0000
  O   O9        1.0  0.32403803821549804  0.022405766900369904  0.5221806907327746  1.0000
  O   O10       1.0  0.675965999944708  0.5224033510496683  0.47782377806526444  1.0000
  O   O11       1.0  0.1526880151314387  0.8737003303521431  0.5640591838200919  1.0000
  O   O12       1.0  0.8473127878264108  0.3736972491735457  0.4359422444356511  1.0000
  O   O13       1.0  0.04182712272678659  0.17510760390013053  0.4465475711021085  1.0000
  O   O14       1.0  0.9581754393527573  0.675111478760023  0.5534505980284407  1.0000
