data_image0
_chemical_formula_structural       Hg4H24C28Br8N8
_chemical_formula_sum              "Hg4 H24 C28 Br8 N8"
_cell_length_a       7.463101569011288
_cell_length_b       9.161443002027358
_cell_length_c       15.668619556166284
_cell_angle_alpha    106.456630045963
_cell_angle_beta     93.53178386916822
_cell_angle_gamma    107.72630661898306

_space_group_name_H-M_alt    "P 1"
_space_group_IT_number       1

loop_
  _space_group_symop_operation_xyz
  'x, y, z'

loop_
  _atom_site_type_symbol
  _atom_site_label
  _atom_site_symmetry_multiplicity
  _atom_site_fract_x
  _atom_site_fract_y
  _atom_site_fract_z
  _atom_site_occupancy
  Hg  Hg1       1.0  0.14635150891770374  0.06285598572689818  0.6353332410234243  1.0000
  Hg  Hg2       1.0  0.8536372655267143  0.9371426616823798  0.3646659978949315  1.0000
  Hg  Hg3       1.0  0.3825816647393836  0.36138520781048566  0.8748450969531232  1.0000
  Hg  Hg4       1.0  0.6174179502373678  0.6386169509299294  0.1251537600388275  1.0000
  H   H1        1.0  0.8597561087762955  0.7551714713325597  0.6770515457133396  1.0000
  H   H2        1.0  0.14023885293408256  0.24482587854720353  0.3229502066897893  1.0000
  H   H3        1.0  0.8844000345528611  0.6038366405475273  0.7232106335682641  1.0000
  H   H4        1.0  0.11559725379070326  0.3961631137625545  0.27678967112927205  1.0000
  H   H5        1.0  0.04666089023628224  0.4318161711402625  0.6476933383592962  1.0000
  H   H6        1.0  0.9533337217469511  0.5681836207863996  0.3523049814985767  1.0000
  H   H7        1.0  0.2516576236714058  0.36743832640829766  0.5323510879358151  1.0000
  H   H8        1.0  0.7483400029456391  0.6325589957537687  0.467648183091377  1.0000
  H   H9        1.0  0.41167859129107837  0.5819901315233977  0.4622871034569157  1.0000
  H   H10       1.0  0.5883165235089224  0.4180108645984077  0.537713345999954  1.0000
  H   H11       1.0  0.35418829518374645  0.8442005475701323  0.5101389491319138  1.0000
  H   H12       1.0  0.6458036518928197  0.15579927207422634  0.4898618521018958  1.0000
  H   H13       1.0  0.032257157899209764  0.7096535778358232  0.8871117519409777  1.0000
  H   H14       1.0  0.9677394745379786  0.29034132603707247  0.11288772610383548  1.0000
  H   H15       1.0  0.4863433188144341  0.2577507600423701  0.024894726608664486  1.0000
  H   H16       1.0  0.5136557933455561  0.7422501945029011  0.9751020007842963  1.0000
  H   H17       1.0  0.6072373948406237  0.3510196688623353  0.18818860366004486  1.0000
  H   H18       1.0  0.3927673794917439  0.6489885001056238  0.8118107635813201  1.0000
  H   H19       1.0  0.4804975108576954  0.1741313375331046  0.28173212137586023  1.0000
  H   H20       1.0  0.5195086024729676  0.8258768119194999  0.7182685573007387  1.0000
  H   H21       1.0  0.23102171139692718  0.9052658817620199  0.2092444559515485  1.0000
  H   H22       1.0  0.7689900847466901  0.0947397673800552  0.7907559685800363  1.0000
  H   H23       1.0  0.10162344078674583  0.816011018283618  0.04793097474947675  1.0000
  H   H24       1.0  0.8983885454494497  0.1839885482260115  0.9520716331504242  1.0000
  C   C1        1.0  0.9627675568774733  0.7109308751966311  0.7058793790549769  1.0000
  C   C2        1.0  0.03722873564999668  0.2890664622384094  0.29412049462938217  1.0000
  C   C3        1.0  0.09260518198733082  0.6709252357070882  0.6390149550752964  1.0000
  C   C4        1.0  0.9073876045432385  0.32907335739851357  0.3609863040563538  1.0000
  C   C5        1.0  0.11707435599697648  0.5203261605790885  0.6157990611567639  1.0000
  C   C6        1.0  0.8829184239886342  0.4796724381830231  0.38419964585168725  1.0000
  C   C7        1.0  0.233321973796599  0.48555598445712883  0.5520691130332692  1.0000
  C   C8        1.0  0.7666719871889709  0.5144389527899661  0.44793029426428166  1.0000
  C   C9        1.0  0.3215759338522801  0.6027418518093628  0.513398498800548  1.0000
  C   C10       1.0  0.6784168494058136  0.39725674412449763  0.48660148426949934  1.0000
  C   C11       1.0  0.2901377089570686  0.7503521073900359  0.5399804020101155  1.0000
  C   C12       1.0  0.7098478977639286  0.2496453635417879  0.4600191886851872  1.0000
  C   C13       1.0  0.20746253095617115  0.9769290552121107  0.928407314551485  1.0000
  C   C14       1.0  0.7925422771066832  0.023069387709611512  0.07159426294285956  1.0000
  C   C15       1.0  0.09360754849125634  0.8229339513988094  0.8737271757600876  1.0000
  C   C16       1.0  0.9063935939401233  0.1770621066079343  0.12627453800461547  1.0000
  C   C17       1.0  0.281976198063532  0.03257900669729  0.0247664453179723  1.0000
  C   C18       1.0  0.7180372802605602  0.9674241865390343  0.9752361710708963  1.0000
  C   C19       1.0  0.42563133959585286  0.1825725245729828  0.06567849882522127  1.0000
  C   C20       1.0  0.5743791224581968  0.8174331398420663  0.9343225283635375  1.0000
  C   C21       1.0  0.4953362088638897  0.2341028250760431  0.15766336922085594  1.0000
  C   C22       1.0  0.5046734137361496  0.7659040658777556  0.842337200070055  1.0000
  C   C23       1.0  0.4253558302624754  0.13524496865476723  0.20993328064250955  1.0000
  C   C24       1.0  0.574662143329654  0.8647593914425473  0.7900658291890463  1.0000
  C   C25       1.0  0.2850203218606353  0.9843031356877534  0.16947142544312746  1.0000
  C   C26       1.0  0.7149986540925468  0.015703635628106803  0.8305306675248116  1.0000
  C   C27       1.0  0.212614708306731  0.933680354087784  0.07791542392460829  1.0000
  C   C28       1.0  0.7873982704730763  0.06632163212514541  0.922086338926874  1.0000
  Br  Br1       1.0  0.7921234779436971  0.9630633857463948  0.5790068655390213  1.0000
  Br  Br2       1.0  0.2078634628668681  0.03693406991245499  0.42099212249911466  1.0000
  Br  Br3       1.0  0.4898574043060648  0.24766563352752513  0.6784011009725004  1.0000
  Br  Br4       1.0  0.5101367032241626  0.7523329556181226  0.32159445125558506  1.0000
  Br  Br5       1.0  0.07341243721261043  0.3646578384882205  0.8006796394010889  1.0000
  Br  Br6       1.0  0.9265843532229071  0.6353407073843444  0.19932044978985888  1.0000
  Br  Br7       1.0  0.7306447765810801  0.47254778604134634  0.9430857133431017  1.0000
  Br  Br8       1.0  0.2693568555771505  0.5274494874735537  0.05691302577419317  1.0000
  N   N1        1.0  0.06688236202860759  0.8359286029704763  0.7903982395417939  1.0000
  N   N2        1.0  0.9331142720448183  0.1640662994882973  0.20960187653382423  1.0000
  N   N3        1.0  0.15577141275375075  0.9871350510884656  0.7908436556932583  1.0000
  N   N4        1.0  0.8442252213196751  0.012859851370301104  0.2091564603823527  1.0000
  N   N5        1.0  0.2412876945300582  0.0725255505143352  0.8737411301099554  1.0000
  N   N6        1.0  0.7587112694490301  0.9274717535465058  0.12625881432167316  1.0000
  N   N7        1.0  0.17810127631148737  0.7836818197439329  0.6011367501216964  1.0000
  N   N8        1.0  0.8218878429513694  0.2163143898608197  0.3988640072495072  1.0000
