data_image0
_chemical_formula_structural       Zn2H35C45N5O8
_chemical_formula_sum              "Zn2 H35 C45 N5 O8"
_cell_length_a       14.685281779237497
_cell_length_b       16.12110292171315
_cell_length_c       16.06722037772801
_cell_angle_alpha    90.34606027469694
_cell_angle_beta     90.55806070156021
_cell_angle_gamma    90.66430239018477

_space_group_name_H-M_alt    "P 1"
_space_group_IT_number       1

loop_
  _space_group_symop_operation_xyz
  'x, y, z'

loop_
  _atom_site_type_symbol
  _atom_site_label
  _atom_site_symmetry_multiplicity
  _atom_site_fract_x
  _atom_site_fract_y
  _atom_site_fract_z
  _atom_site_occupancy
  Zn  Zn1       1.0  0.5945263190573585  0.5007689598312555  0.5005193386508751  1.0000
  Zn  Zn2       1.0  0.405773323727999  0.4990297433614972  0.499252426954321  1.0000
  H   H1        1.0  0.4001404099004446  0.9471467021292528  0.6093686050513156  1.0000
  H   H2        1.0  0.5542764170538776  0.0526966227725367  0.6355659399083251  1.0000
  H   H3        1.0  0.08074204838020904  0.412539438916447  0.5992012696294183  1.0000
  H   H4        1.0  0.07522346124268611  0.3766633889552367  0.449077528036959  1.0000
  H   H5        1.0  0.9175375996479078  0.3763727776987339  0.4454529143233259  1.0000
  H   H6        1.0  0.9172640925555698  0.45734339688501546  0.37155369191334847  1.0000
  H   H7        1.0  0.07662056522603683  0.6050749570951908  0.4142396895964069  1.0000
  H   H8        1.0  0.9224228588973277  0.6325541702161532  0.5263268736996736  1.0000
  H   H9        1.0  0.08262620296068231  0.5170969976960507  0.6323353744314419  1.0000
  H   H10       1.0  0.9236721290621972  0.5173870464165732  0.6338128844645894  1.0000
  H   H11       1.0  0.9192540760083077  0.6082615828432694  0.4186906439189429  1.0000
  H   H12       1.0  0.3940268839378335  0.4007733904084319  0.921689207276117  1.0000
  H   H13       1.0  0.44712775564630663  0.9468120241907415  0.3647533637761882  1.0000
  H   H14       1.0  0.6012026277118566  0.0522600310901211  0.3909112913484094  1.0000
  H   H15       1.0  0.6561098108196434  0.9510687785377601  0.5264357076137927  1.0000
  H   H16       1.0  0.5793323265761217  0.39145896882207865  0.07856127200612663  1.0000
  H   H17       1.0  0.2960922531102668  0.532550483792761  0.0839438760010225  1.0000
  H   H18       1.0  0.2651122124606502  0.4277604389110153  0.0653112045479105  1.0000
  H   H19       1.0  0.325695923482094  0.45583299594912324  0.1578102272783681  1.0000
  H   H20       1.0  0.45217027115017333  0.7155009409667701  0.06199240186695221  1.0000
  H   H21       1.0  0.36503878615643975  0.6404500233477393  0.04599936763688111  1.0000
  H   H22       1.0  0.4213519764824483  0.6483192545832139  0.14473425575936016  1.0000
  H   H23       1.0  0.4247154468217715  0.386342844509592  0.0583592095986631  1.0000
  H   H24       1.0  0.27102919674414494  0.004849724361911  0.46156196444705705  1.0000
  H   H25       1.0  0.2967851498950439  0.0954168781100009  0.5220296583044828  1.0000
  H   H26       1.0  0.3175557623848491  0.0950861225650357  0.4132910574973039  1.0000
  H   H27       1.0  0.6365334223300111  0.32274656027784226  0.9462313913638454  1.0000
  H   H28       1.0  0.5161647033860248  0.3203692001911662  0.9482110782242827  1.0000
  H   H29       1.0  0.5734650641238161  0.3505863452262759  0.8556709055698875  1.0000
  H   H30       1.0  0.5757510056134194  0.6119419503369417  0.9300591450966281  1.0000
  H   H31       1.0  0.45696514692028983  0.6264038213160675  0.9231098424000308  1.0000
  H   H32       1.0  0.5693601304811367  0.6136851934027664  0.0731327398384849  1.0000
  H   H33       1.0  0.6396934529931146  0.4740902347709977  0.9288138199377514  1.0000
  H   H34       1.0  0.6408054083566626  0.48593421958123184  0.0717617355741211  1.0000
  H   H35       1.0  0.9213888000185125  0.41246179156313906  0.6013297653172316  1.0000
  C   C1        1.0  0.5017867002941331  0.49922381939092747  0.6623242314032894  1.0000
  C   C2        1.0  0.4051117689002339  0.46219902131503693  0.950574353248662  1.0000
  C   C3        1.0  0.4090122901397707  0.4520599188324539  0.0474525173131539  1.0000
  C   C4        1.0  0.5007830997783885  0.6615488703698347  0.4997142609149421  1.0000
  C   C5        1.0  0.49915549485926664  0.500639181440633  0.24736472682830882  1.0000
  C   C6        1.0  0.49800894487771796  0.4979214944070877  0.9182666914208539  1.0000
  C   C7        1.0  0.5790070791867805  0.45317205694529156  0.049799835446478403  1.0000
  C   C8        1.0  0.4945845525246568  0.500676461195532  0.0814711070813701  1.0000
  C   C9        1.0  0.5035246015835214  0.5912472564472965  0.047846941987103306  1.0000
  C   C10       1.0  0.5098421438233558  0.5877738321593498  0.9515296777298943  1.0000
  C   C11       1.0  0.4961914915591592  0.5012063688370034  0.1717593529731403  1.0000
  C   C12       1.0  0.501602746250164  0.9144757028124604  0.500201658705592  1.0000
  C   C13       1.0  0.49908594010485535  0.49794650135059737  0.8279432673590251  1.0000
  C   C14       1.0  0.5009462471965733  0.49841233386268163  0.7523781456272971  1.0000
  C   C15       1.0  0.05392983482456511  0.4742858429179151  0.5853620091145189  1.0000
  C   C16       1.0  0.5004961322615955  0.49970343240204335  0.3373909301516917  1.0000
  C   C17       1.0  0.0503253461277779  0.43836952513761673  0.4316704093944708  1.0000
  C   C18       1.0  0.9440944073831758  0.438797505618858  0.4325351556635368  1.0000
  C   C19       1.0  0.08822625346457613  0.5011858956148674  0.4987477339090277  1.0000
  C   C20       1.0  0.9486537195303272  0.474229630111303  0.5864033900231078  1.0000
  C   C21       1.0  0.9119133130356333  0.5004357686744145  0.49990895009307224  1.0000
  C   C22       1.0  0.946665586069223  0.5888389632119342  0.4791642082427856  1.0000
  C   C23       1.0  0.5567500181270405  0.0279690214002244  0.4394631663119313  1.0000
  C   C24       1.0  0.052934164258140015  0.5898383668360481  0.4771797121025685  1.0000
  C   C25       1.0  0.8131094907133446  0.5004001334595785  0.5006172013089127  1.0000
  C   C26       1.0  0.1871055089677256  0.5006563657718957  0.4982181355154367  1.0000
  C   C27       1.0  0.4978243291094985  0.33779097236451605  0.4998968072514032  1.0000
  C   C28       1.0  0.5305682945867929  0.0281637934233601  0.5754695374935253  1.0000
  C   C29       1.0  0.4449173098325759  0.9713764687795178  0.5609722422383072  1.0000
  C   C30       1.0  0.5010659782344008  0.7510925769385751  0.4993268980154043  1.0000
  C   C31       1.0  0.4984988978376422  0.24824222407668373  0.5003279352592075  1.0000
  C   C32       1.0  0.5872348519439116  0.9735618985822114  0.5147158664262435  1.0000
  C   C33       1.0  0.3189892868558317  0.4685500728437333  0.0910568920293429  1.0000
  C   C34       1.0  0.5002626730455901  0.08492634389234151  0.5001950665640038  1.0000
  C   C35       1.0  0.43090028443609907  0.6517755367635304  0.07711616646054863  1.0000
  C   C36       1.0  0.0849614756949251  0.4571712723145823  0.3489674806789226  1.0000
  C   C37       1.0  0.0904544388148878  0.6521923936317865  0.5344604611685639  1.0000
  C   C38       1.0  0.3196688296326898  0.05676998617599341  0.46972528364909755  1.0000
  C   C39       1.0  0.575319267533942  0.3546938827793014  0.9239600549822597  1.0000
  C   C40       1.0  0.3294841256963181  0.5130994757434238  0.9221378752744229  1.0000
  C   C41       1.0  0.4710896209799032  0.9711994565055307  0.424888054304482  1.0000
  C   C42       1.0  0.4137781464037219  0.025863759935674597  0.48558260385587465  1.0000
  C   C43       1.0  0.5013290112903307  0.8267121091108012  0.4996127074384091  1.0000
  C   C44       1.0  0.4998304922373791  0.1726195253617036  0.5005048979390594  1.0000
  C   C45       1.0  0.5775239196108828  0.44498038220908154  0.9536462464665477  1.0000
  N   N1        1.0  0.7343131184862628  0.5004006092635722  0.5011599838970753  1.0000
  N   N2        1.0  0.26581907771658564  0.49911841792164324  0.49849128241734764  1.0000
  N   N3        1.0  0.110488686073289  0.4738046080694931  0.2825943476602859  1.0000
  N   N4        1.0  0.1174634910155561  0.7022720893237634  0.5814206989296979  1.0000
  N   N5        1.0  0.26851157212049515  0.5534546211611799  0.9001096934882613  1.0000
  O   O1        1.0  0.5796951031425763  0.5003052225995219  0.6281066226210258  1.0000
  O   O2        1.0  0.42430772403079703  0.4986036933653539  0.6260588451583688  1.0000
  O   O3        1.0  0.5784777868157392  0.6268479396031665  0.500992582825461  1.0000
  O   O4        1.0  0.42312448736353053  0.6254617299921179  0.49877805095029265  1.0000
  O   O5        1.0  0.5785214391925564  0.500770988313306  0.3728461926055715  1.0000
  O   O6        1.0  0.42315346558871886  0.4978022848456618  0.37261185724644014  1.0000
  O   O7        1.0  0.575384602172811  0.3742947726848698  0.4999186614660048  1.0000
  O   O8        1.0  0.41998827360870916  0.3720172398101553  0.4995145484552665  1.0000
