data_image0
_chemical_formula_structural       Cu4H24C16N16Cl8
_chemical_formula_sum              "Cu4 H24 C16 N16 Cl8"
_cell_length_a       6.776312762505712
_cell_length_b       8.995971485917625
_cell_length_c       14.126166794262486
_cell_angle_alpha    89.99935002768898
_cell_angle_beta     90.00050246168796
_cell_angle_gamma    111.15865998720678

_space_group_name_H-M_alt    "P 1"
_space_group_IT_number       1

loop_
  _space_group_symop_operation_xyz
  'x, y, z'

loop_
  _atom_site_type_symbol
  _atom_site_label
  _atom_site_symmetry_multiplicity
  _atom_site_fract_x
  _atom_site_fract_y
  _atom_site_fract_z
  _atom_site_occupancy
  Cu  Cu1       1.0  0.30306931078887805  0.7411114048557436  0.2550727926297612  1.0000
  Cu  Cu2       1.0  0.1969261940718426  0.25888774756399613  0.7550705526242611  1.0000
  Cu  Cu3       1.0  0.6969221822050005  0.25888594021672867  0.7449315793899276  1.0000
  Cu  Cu4       1.0  0.8030670473473197  0.7411131733299428  0.2449288640431959  1.0000
  H   H1        1.0  0.6917188016151317  0.6127853611067877  0.6213751672001778  1.0000
  H   H2        1.0  0.8082793504763474  0.3872214666055526  0.1213672822976406  1.0000
  H   H3        1.0  0.308274773615608  0.3872071879922672  0.3786292048415661  1.0000
  H   H4        1.0  0.19172477194227608  0.6127805802777146  0.8786321343890651  1.0000
  H   H5        1.0  0.43259499520099354  0.6192772337832934  0.6423540926739835  1.0000
  H   H6        1.0  0.06740633077266268  0.3807259083960233  0.14234876001962252  1.0000
  H   H7        1.0  0.5674015223636035  0.3807152964811707  0.3576495714680236  1.0000
  H   H8        1.0  0.9325951548422325  0.6192737640502132  0.8576506566701244  1.0000
  H   H9        1.0  0.6644993152162401  0.7966606523847658  0.6531919832751001  1.0000
  H   H10       1.0  0.8355024317241374  0.20334329926155453  0.1531876873717621  1.0000
  H   H11       1.0  0.3354989790627982  0.20332947516757122  0.3468138045979146  1.0000
  H   H12       1.0  0.16450316186335098  0.7966587382018346  0.8468117293181338  1.0000
  H   H13       1.0  0.10069524981376778  0.7433419212759771  0.45959704789064665  1.0000
  H   H14       1.0  0.3993112558122365  0.2566661494762529  0.9595850751248137  1.0000
  H   H15       1.0  0.8993094837307469  0.25665533897633  0.5404129874068034  1.0000
  H   H16       1.0  0.6006978345601939  0.7433430397178072  0.0403923964564896  1.0000
  H   H17       1.0  0.3710372741140945  0.8757423660126449  0.6400473698844352  1.0000
  H   H18       1.0  0.1289713260291023  0.12427271969141877  0.140038519032025  1.0000
  H   H19       1.0  0.6289556618482596  0.12426094805483955  0.3599662048961037  1.0000
  H   H20       1.0  0.8710447581911184  0.875750772592397  0.8599460315731166  1.0000
  H   H21       1.0  0.09654576489303682  0.8603375945854524  0.6166335495113132  1.0000
  H   H22       1.0  0.40346466219179433  0.13967303650508708  0.11663001248806643  1.0000
  H   H23       1.0  0.9034483931474072  0.1396561464523671  0.3833694067150618  1.0000
  H   H24       1.0  0.5965576405154492  0.860342046304346  0.8833594935041448  1.0000
  C   C1        1.0  0.41746629615286684  0.7462731833634849  0.4672749595633547  1.0000
  C   C2        1.0  0.08253587971273653  0.2537348036698148  0.967266602643008  1.0000
  C   C3        1.0  0.5825387146596412  0.2537276621146843  0.5327322440970408  1.0000
  C   C4        1.0  0.9174670487625607  0.746270837915951  0.0327221954360724  1.0000
  C   C5        1.0  0.591389869788266  0.6842611182387087  0.6145398559751102  1.0000
  C   C6        1.0  0.9086138151739721  0.3157421862326402  0.11453504998700482  1.0000
  C   C7        1.0  0.4086069533064674  0.31572901875414777  0.3854631002702078  1.0000
  C   C8        1.0  0.0913935551240925  0.6842574485237803  0.8854657825277743  1.0000
  C   C9        1.0  0.23717423117405192  0.7741275947827759  0.5065045038765846  1.0000
  C   C10       1.0  0.2628335520527473  0.22587867304405046  0.006501146317894802  1.0000
  C   C11       1.0  0.7628328336286149  0.22587443319880413  0.4935034076900139  1.0000
  C   C12       1.0  0.7371761494687308  0.7741257294880909  0.9934911913109091  1.0000
  C   C13       1.0  0.2358461524457383  0.8380985160222281  0.5921665708875851  1.0000
  C   C14       1.0  0.26416134275648073  0.16191607589428264  0.0921594406513506  1.0000
  C   C15       1.0  0.7641470890120133  0.16190240482009696  0.40783992484112735  1.0000
  C   C16       1.0  0.7358535758134294  0.8381050325532796  0.9078222783355301  1.0000
  N   N1        1.0  0.5740406454569966  0.7158929272678449  0.5142768344910493  1.0000
  N   N2        1.0  0.925959309353843  0.2841094647015651  0.014273042892952503  1.0000
  N   N3        1.0  0.42596056290148004  0.2841031599370467  0.48572753755411924  1.0000
  N   N4        1.0  0.0740457014123521  0.7158913808385351  0.985725665893938  1.0000
  N   N5        1.0  0.7178184435574977  0.7035326937344306  0.4521492234019321  1.0000
  N   N6        1.0  0.7821771818867874  0.29645978490307107  0.9521449504204116  1.0000
  N   N7        1.0  0.28217985070995877  0.2964574338333961  0.5478544407527082  1.0000
  N   N8        1.0  0.21781581050721135  0.7035315722933432  0.0478558820938275  1.0000
  N   N9        1.0  0.6499088083455149  0.7245215192249927  0.369202931960949  1.0000
  N   N10       1.0  0.8500832475261932  0.27547577290535236  0.8691983967228936  1.0000
  N   N11       1.0  0.35008446135508114  0.2754734231456695  0.6308021479774908  1.0000
  N   N12       1.0  0.14990441475537605  0.7245227923861535  0.13080172784734156  1.0000
  N   N13       1.0  0.4658233535405858  0.7480924997593662  0.37482251681451834  1.0000
  N   N14       1.0  0.03417459453822863  0.25191326894509564  0.874816797095946  1.0000
  N   N15       1.0  0.5341737186101839  0.25190720088972546  0.6251846868330235  1.0000
  N   N16       1.0  0.9658183130809307  0.7480960237282375  0.12517978791559872  1.0000
  Cl  Cl1       1.0  0.5941762549181392  0.938736634297058  0.19309692796374384  1.0000
  Cl  Cl2       1.0  0.9058230413825118  0.0612547973153781  0.6930998662536043  1.0000
  Cl  Cl3       1.0  0.40581643194573064  0.061257116170963896  0.8069046124471839  1.0000
  Cl  Cl4       1.0  0.09417405898793872  0.9387389248930232  0.3069016741669089  1.0000
  Cl  Cl5       1.0  0.5267433049623165  0.5292423282455728  0.18625920339204782  1.0000
  Cl  Cl6       1.0  0.9732582480250475  0.47075397080695325  0.6862587207537915  1.0000
  Cl  Cl7       1.0  0.47325848619043154  0.4707549509187388  0.8137409212132526  1.0000
  Cl  Cl8       1.0  0.026741489156854845  0.5292421258281407  0.3137442354759301  1.0000
