data_image0
_chemical_formula_structural       Hg4H36C48N28O4
_chemical_formula_sum              "Hg4 H36 C48 N28 O4"
_cell_length_a       8.238874258
_cell_length_b       14.02399002497899
_cell_length_c       14.482
_cell_angle_alpha    90.0
_cell_angle_beta     90.0
_cell_angle_gamma    97.0320480774971

_space_group_name_H-M_alt    "P 1"
_space_group_IT_number       1

loop_
  _space_group_symop_operation_xyz
  'x, y, z'

loop_
  _atom_site_type_symbol
  _atom_site_label
  _atom_site_symmetry_multiplicity
  _atom_site_fract_x
  _atom_site_fract_y
  _atom_site_fract_z
  _atom_site_occupancy
  Hg  Hg1       1.0  0.5435542227899078  0.1815705822385922  0.9878531970722262  1.0000
  Hg  Hg2       1.0  0.4564443497847392  0.3184308841551413  0.4878545780969503  1.0000
  Hg  Hg3       1.0  0.4564489090880812  0.8184294766758031  0.0121454219030497  1.0000
  Hg  Hg4       1.0  0.5435507349466846  0.6815713301640614  0.5121461124154152  1.0000
  H   H1        1.0  0.27980813599786103  0.7295757874952147  0.6749834277033528  1.0000
  H   H2        1.0  0.7201912085970223  0.7704235824081138  0.17498342770335276  1.0000
  H   H3        1.0  0.7202007652305227  0.2704228344826447  0.3250172628090055  1.0000
  H   H4        1.0  0.2798028120962925  0.2295793503793533  0.8250172628090056  1.0000
  H   H5        1.0  0.2628825756748014  0.8408837654578251  0.8101505316945178  1.0000
  H   H6        1.0  0.7371158546019103  0.6591170413820464  0.31015122220687624  1.0000
  H   H7        1.0  0.7371235985975844  0.1591134195835053  0.1898515398425644  1.0000
  H   H8        1.0  0.2628764871749993  0.34088948374676425  0.6898522303549228  1.0000
  H   H9        1.0  0.6790902341364456  0.0191737626700075  0.6984249413064487  1.0000
  H   H10       1.0  0.3209068252402645  0.4808262667871901  0.1984263223311729  1.0000
  H   H11       1.0  0.32090955590726367  0.9808277331809307  0.3015778207429918  1.0000
  H   H12       1.0  0.679091601325439  0.5191745105954766  0.8015757492059095  1.0000
  H   H13       1.0  0.6872467652816212  0.8972145515476484  0.5708824747962993  1.0000
  H   H14       1.0  0.3127492374789753  0.6027862552922159  0.07088454633338159  1.0000
  H   H15       1.0  0.3127560511579617  0.1027898181763618  0.4291189062284246  1.0000
  H   H16       1.0  0.6872510177230781  0.3972116482173789  0.9291154536666184  1.0000
  H   H17       1.0  0.12801419084252066  0.9845084461182552  0.0265909404778313  1.0000
  H   H18       1.0  0.8719839399943012  0.5154909237850731  0.5265930120149136  1.0000
  H   H19       1.0  0.8719886415955855  0.015490175859604  0.9734104405468853  1.0000
  H   H20       1.0  0.12800871722100743  0.4845112905341297  0.4734118215716094  1.0000
  H   H21       1.0  0.9849908717853921  0.0499428847184049  0.1576128987708856  1.0000
  H   H22       1.0  0.015005722432974303  0.4500607370801291  0.6576135892832511  1.0000
  H   H23       1.0  0.015009367418137715  0.9500607665373337  0.8423871012291144  1.0000
  H   H24       1.0  0.9849901268966833  0.5499393218342661  0.3423891727661896  1.0000
  H   H25       1.0  0.9771536459287379  0.1768883245355752  0.28020991575748866  1.0000
  H   H26       1.0  0.022846589563790997  0.3231152972629658  0.7802112967822126  1.0000
  H   H27       1.0  0.022848256192673895  0.8231174821249638  0.7197866316807051  1.0000
  H   H28       1.0  0.9771488106060388  0.676882606246629  0.2197887032177874  1.0000
  H   H29       1.0  0.19967245282139606  0.3161468735309469  0.2832633614141713  1.0000
  H   H30       1.0  0.8003335520215276  0.1838553113310581  0.7832640519265295  1.0000
  H   H31       1.0  0.8003338551724115  0.6838567777247917  0.7167331860240295  1.0000
  H   H32       1.0  0.19966442538435564  0.8161433106468012  0.2167345670487535  1.0000
  H   H33       1.0  0.4245697144520691  0.32115028654978783  0.16773235740919995  1.0000
  H   H34       1.0  0.5754332639949737  0.17884902443914544  0.6677337384339168  1.0000
  H   H35       1.0  0.575435994661973  0.678850490832879  0.8322655710537246  1.0000
  H   H36       1.0  0.42456015781856854  0.821151034475257  0.3322662615660832  1.0000
  C   C1        1.0  0.4671942235667643  0.9403944944587084  0.7625700870045549  1.0000
  C   C2        1.0  0.5328052707480637  0.5596055939128918  0.2625700870045549  1.0000
  C   C3        1.0  0.5328099723493409  0.0596048459874226  0.2374306035078035  1.0000
  C   C4        1.0  0.4671923912194131  0.4403973388745754  0.7374312940201618  1.0000
  C   C5        1.0  0.3661870113004966  0.794562679278755  0.6828863416655153  1.0000
  C   C6        1.0  0.6338114189762152  0.7054381275611092  0.18288772269023915  1.0000
  C   C7        1.0  0.6338183983736627  0.2054366611673686  0.3171150393592015  1.0000
  C   C8        1.0  0.36618381547515366  0.294564805226365  0.8171143488468431  1.0000
  C   C9        1.0  0.35498881036591723  0.8570536122990264  0.7566358237812452  1.0000
  C   C10       1.0  0.645010534228966  0.6429457576043021  0.2566358237812452  1.0000
  C   C11       1.0  0.6450176633463585  0.1429450096788401  0.2433662477558372  1.0000
  C   C12       1.0  0.3549834864643486  0.357057175183165  0.743366247755837  1.0000
  C   C13       1.0  0.5881087883908623  0.9560973369256589  0.6944786631680699  1.0000
  C   C14       1.0  0.411890705923966  0.543902751445934  0.1944786631680699  1.0000
  C   C15       1.0  0.4118934291689556  0.0439041589252724  0.3055240988813708  1.0000
  C   C16       1.0  0.5881101481578597  0.45609802593673276  0.8055227178566469  1.0000
  C   C17       1.0  0.5922618457144608  0.889258952415297  0.6239117525203709  1.0000
  C   C18       1.0  0.4077367342821958  0.610742572892832  0.1239124430327294  1.0000
  C   C19       1.0  0.4077417353233557  0.1107432619039059  0.3760903190167113  1.0000
  C   C20       1.0  0.5922618420034598  0.3892589229580992  0.876088247479629  1.0000
  C   C21       1.0  0.4646111898356295  0.012344003313728502  0.8388337246236688  1.0000
  C   C22       1.0  0.5353882970571959  0.4876560261434762  0.3388330341113103  1.0000
  C   C23       1.0  0.5353881510482523  0.9876553371324022  0.1611662753763312  1.0000
  C   C24       1.0  0.464608151152227  0.5123469066439981  0.6611662753763311  1.0000
  C   C25       1.0  0.22101720995552648  0.0472910183409567  0.028132164065738194  1.0000
  C   C26       1.0  0.7789822769372917  0.4527090111162408  0.5281321640657382  1.0000
  C   C27       1.0  0.7789857722025176  0.952708322105174  0.971871288496061  1.0000
  C   C28       1.0  0.22101372211230347  0.5472917662664258  0.4718705979837025  1.0000
  C   C29       1.0  0.21092353119305335  0.11953803197335591  0.0993260599364731  1.0000
  C   C30       1.0  0.7890733784637193  0.3804612790155701  0.59932744096119  1.0000
  C   C31       1.0  0.7890793012450531  0.8804605900045033  0.9006739400635269  1.0000
  C   C32       1.0  0.21091989362988534  0.6195380614305606  0.4006760116006092  1.0000
  C   C33       1.0  0.08054186063747441  0.1109013249228781  0.1624292224830839  1.0000
  C   C34       1.0  0.9194568616571104  0.389100859939127  0.6624306035078007  1.0000
  C   C35       1.0  0.9194629341583891  0.8891008893963248  0.8375700870045575  1.0000
  C   C36       1.0  0.0805377739144859  0.6108991989752753  0.3375714680292745  1.0000
  C   C37       1.0  0.07528643585492031  0.18176313173443506  0.2293826819500069  1.0000
  C   C38       1.0  0.9247135001977256  0.318239053127563  0.7293833724623651  1.0000
  C   C39       1.0  0.9247175943427167  0.8182412379895683  0.7706166275376347  1.0000
  C   C40       1.0  0.07528204969204924  0.6817595688502963  0.2706180085623515  1.0000
  C   C41       1.0  0.1982048802424075  0.2595085830223809  0.2318920038668679  1.0000
  C   C42       1.0  0.8017980982046425  0.2404907279665451  0.7318906228421511  1.0000
  C   C43       1.0  0.8017997648335253  0.7404929128285502  0.7681079961331319  1.0000
  C   C44       1.0  0.19819730196518753  0.7595071755430427  0.2681093771578489  1.0000
  C   C45       1.0  0.3240054030924568  0.2627380978873646  0.1670694655434346  1.0000
  C   C46       1.0  0.6759966610364216  0.2372626500381045  0.6670701560557928  1.0000
  C   C47       1.0  0.6760012203397637  0.7372612425587661  0.832929843944207  1.0000
  C   C48       1.0  0.3239981242551195  0.7627381273445621  0.3329305344565654  1.0000
  N   N1        1.0  0.3408804419917644  0.9909610096338  0.9002817290429518  1.0000
  N   N2        1.0  0.6591192020430017  0.5090397972060643  0.4002817290429519  1.0000
  N   N3        1.0  0.6591236042043962  0.0090376123440663  0.099719651981772  1.0000
  N   N4        1.0  0.3408784599244825  0.4909631355814028  0.5997203424941304  1.0000
  N   N5        1.0  0.3373284546540276  0.057049254357899315  0.967237260046957  1.0000
  N   N6        1.0  0.6626696687607918  0.44295005663103393  0.4672379505593155  1.0000
  N   N7        1.0  0.6626743777840788  0.9429493676199672  0.0327648114901251  1.0000
  N   N8        1.0  0.3373240524926331  0.5570514392198973  0.5327648114901251  1.0000
  N   N9        1.0  0.32993121884278054  0.1948952947382381  0.10286010219582659  1.0000
  N   N10       1.0  0.6700708452860907  0.305105453187231  0.6028607927081922  1.0000
  N   N11       1.0  0.6700743405513166  0.8051047641761642  0.8971392072918076  1.0000
  N   N12       1.0  0.3299254532033871  0.6948967611319716  0.39714058831653176  1.0000
  N   N13       1.0  0.7929521588895199  0.24760212688391195  0.0154067117801375  1.0000
  N   N14       1.0  0.20705037039770252  0.2523950287002137  0.5154108548543022  1.0000
  N   N15       1.0  0.20705903613356472  0.752390028879539  0.9845787874602934  1.0000
  N   N16       1.0  0.7929459280917757  0.7476071856189891  0.4845850020715402  1.0000
  N   N17       1.0  0.8975742609855786  0.21595072580232266  0.9698763982875319  1.0000
  N   N18       1.0  0.10242145091165611  0.2840428374404667  0.46987777931224867  1.0000
  N   N19       1.0  0.10242634165192754  0.7840313714053765  0.0301125535147051  1.0000
  N   N20       1.0  0.8975737835397056  0.7159600953470076  0.530118768125952  1.0000
  N   N21       1.0  0.0048371630066341926  0.18880340229326012  0.9286410716751803  1.0000
  N   N22       1.0  0.9951573511310698  0.3111844132033782  0.4286445242369864  1.0000
  N   N23       1.0  0.9951558896397046  0.8111657624856079  0.0713471896146913  1.0000
  N   N24       1.0  0.004839396518235634  0.6888199565206252  0.5713520232012143  1.0000
  N   N25       1.0  0.48257907708018183  0.8103876613512854  0.617607374672005  1.0000
  N   N26       1.0  0.5174205669545842  0.6896131454885792  0.11760806518436338  1.0000
  N   N27       1.0  0.5174267817538052  0.1896138344996459  0.382392625327995  1.0000
  N   N28       1.0  0.4825790733691804  0.31038763189408775  0.8823919348156364  1.0000
  O   O1        1.0  0.5734642094644684  0.0841814900333233  0.8391299544261841  1.0000
  O   O2        1.0  0.4265351277084051  0.4158178209556098  0.3391299544261841  1.0000
  O   O3        1.0  0.42653285362324317  0.9158185688810718  0.1608700455738159  1.0000
  O   O4        1.0  0.5734626839790096  0.5841858303001288  0.660872117110898  1.0000
