data_image0
_chemical_formula_structural       Zn3H72C132N24
_chemical_formula_sum              "Zn3 H72 C132 N24"
_cell_length_a       9.038507448915423
_cell_length_b       19.288859715608165
_cell_length_c       19.288842559054512
_cell_angle_alpha    117.60738794684201
_cell_angle_beta     98.98565899546385
_cell_angle_gamma    98.99082436247826

_space_group_name_H-M_alt    "P 1"
_space_group_IT_number       1

loop_
  _space_group_symop_operation_xyz
  'x, y, z'

loop_
  _atom_site_type_symbol
  _atom_site_label
  _atom_site_symmetry_multiplicity
  _atom_site_fract_x
  _atom_site_fract_y
  _atom_site_fract_z
  _atom_site_occupancy
  Zn  Zn1       1.0  0.5000009588253179  0.500000102452802  4.090424496961997e-07  1.0000
  Zn  Zn2       1.0  0.9999939023002185  0.4999966228081903  0.49999912768440413  1.0000
  Zn  Zn3       1.0  0.499997397350988  3.187401603100002e-06  0.500004207954632  1.0000
  H   H1        1.0  0.9423883961359536  0.5041604035257451  0.8487249605246633  1.0000
  H   H2        1.0  0.4382412905887633  0.34458342104276346  0.49582866317805235  1.0000
  H   H3        1.0  0.09371961710804301  0.15129874022898804  0.6554202676459937  1.0000
  H   H4        1.0  0.05761099261123819  0.49583845865507964  0.15127388334216366  1.0000
  H   H5        1.0  0.5617598243267211  0.6554166533525747  0.5041719056805576  1.0000
  H   H6        1.0  0.906281497807434  0.848701334166343  0.34458030121261624  1.0000
  H   H7        1.0  0.7629868955979903  0.3508698728373787  0.7646978974534023  1.0000
  H   H8        1.0  0.4122206212216994  0.4138185264887255  0.6491392332100504  1.0000
  H   H9        1.0  0.9982802751741746  0.23531021131037733  0.5861558915564444  1.0000
  H   H10       1.0  0.2370150366037437  0.6491295954900881  0.2353008950977157  1.0000
  H   H11       1.0  0.5877810999690354  0.586182760089713  0.350861423322435  1.0000
  H   H12       1.0  0.00172308009906182  0.7646898631394522  0.41384432293502726  1.0000
  H   H13       1.0  0.25468820253957597  0.1890390124234216  0.7853792605064527  1.0000
  H   H14       1.0  0.06558798925119899  0.5963131327701134  0.8109608878225885  1.0000
  H   H15       1.0  0.46926020186898404  0.21460926820122242  0.4036796535926399  1.0000
  H   H16       1.0  0.7453117923195336  0.8109610619428765  0.21462070789223725  1.0000
  H   H17       1.0  0.934414035036326  0.40368875990047576  0.18904007176132606  1.0000
  H   H18       1.0  0.5307406102763751  0.7853902000972114  0.5963185384985508  1.0000
  H   H19       1.0  0.0604001473105242  0.22560917818191237  0.8808972377641098  1.0000
  H   H20       1.0  0.8348117644808115  0.655299767082248  0.7743986735566538  1.0000
  H   H21       1.0  0.17948811599180203  0.11909102458690063  0.3447206231133677  1.0000
  H   H22       1.0  0.9396001506453757  0.7743915022765435  0.1191030336860094  1.0000
  H   H23       1.0  0.16518995662825384  0.3447015194973845  0.2256025014048291  1.0000
  H   H24       1.0  0.8205129990870148  0.8809090498060571  0.6552789088872544  1.0000
  H   H25       1.0  0.3372026790940836  0.2726931314484205  0.6835242648812426  1.0000
  H   H26       1.0  0.06438944209742908  0.41078515344919714  0.727296625730098  1.0000
  H   H27       1.0  0.6536646943858456  0.31647938511270723  0.5891806708872664  1.0000
  H   H28       1.0  0.6627958925301841  0.7273063367978951  0.31647531843508864  1.0000
  H   H29       1.0  0.9356105526800108  0.5892149209182947  0.27270386109758965  1.0000
  H   H30       1.0  0.34633387715675223  0.6835200831347948  0.41081943085806216  1.0000
  H   H31       1.0  0.32173013330542943  0.14227834540470502  0.558876624987768  1.0000
  H   H32       1.0  0.17945728437378966  0.4165879109361442  0.8577312762311138  1.0000
  H   H33       1.0  0.7628529536256323  0.441111720202862  0.5833945959977882  1.0000
  H   H34       1.0  0.6782698615536803  0.8577217289615932  0.44112334341092213  1.0000
  H   H35       1.0  0.8205438305416877  0.5834121634591939  0.14226929262750326  1.0000
  H   H36       1.0  0.23714561791696567  0.5588877480446401  0.4166055057475333  1.0000
  H   H37       1.0  0.6457829837113067  0.08589476881657279  0.68704318722056  1.0000
  H   H38       1.0  0.559871647016628  0.6011578796545078  0.9140887909802301  1.0000
  H   H39       1.0  0.9586911259950811  0.31294028164255394  0.3988308413069533  1.0000
  H   H40       1.0  0.35421813136751007  0.914105305576392  0.3129563447800621  1.0000
  H   H41       1.0  0.4401291648837286  0.3988415886474925  0.08591095639795295  1.0000
  H   H42       1.0  0.0413088688640287  0.6870597927237514  0.6011691270917369  1.0000
  H   H43       1.0  0.6753183789575558  0.21338313417797394  0.8167582397558562  1.0000
  H   H44       1.0  0.46185737534245425  0.6033255540988379  0.7865816245610374  1.0000
  H   H45       1.0  0.8585615533332104  0.18324432032237337  0.39663685689732386  1.0000
  H   H46       1.0  0.324680192666712  0.7866163340683417  0.18324134356046787  1.0000
  H   H47       1.0  0.5381426195983181  0.3966745202662808  0.21341782540865492  1.0000
  H   H48       1.0  0.14143956166394395  0.816755754071771  0.6033631935322888  1.0000
  H   H49       1.0  0.883780197744784  0.7324219471123998  0.9585814048993343  1.0000
  H   H50       1.0  0.1512719033566441  0.22617730935337488  0.2675784928555913  1.0000
  H   H51       1.0  0.9251493670097942  0.04142196845943861  0.7738427715976641  1.0000
  H   H52       1.0  0.1162197971143186  0.2675781272538984  0.04141856349935577  1.0000
  H   H53       1.0  0.848726971364421  0.7738227649850842  0.732421393512169  1.0000
  H   H54       1.0  0.07485174790568994  0.9585781059358922  0.22615779726094581  1.0000
  H   H55       1.0  0.12992227133098305  0.8031418012608427  0.9502625967601688  1.0000
  H   H56       1.0  0.3266867306413701  0.1471263091391464  0.19686905577290048  1.0000
  H   H57       1.0  0.1796098190778466  0.04973376197680322  0.852863926141019  1.0000
  H   H58       1.0  0.8700766034717518  0.1968582730764368  0.04973677117859409  1.0000
  H   H59       1.0  0.6733132642177324  0.8528737652271589  0.8031309126257895  1.0000
  H   H60       1.0  0.8203912959193005  0.950266312417341  0.14713612428860048  1.0000
  H   H61       1.0  0.3686364471954136  0.6522215348593791  0.008571523246111228  1.0000
  H   H62       1.0  0.7164236175032954  0.3563358564102685  0.3477347071361336  1.0000
  H   H63       1.0  0.3600732806851851  0.9914188859261657  0.6436522492383928  1.0000
  H   H64       1.0  0.6313649709802007  0.34777914562572226  0.9914283118059474  1.0000
  H   H65       1.0  0.28357668053427443  0.6436648240469938  0.6522650458849953  1.0000
  H   H66       1.0  0.6399264109954573  0.008580582349175402  0.3563479345378582  1.0000
  H   H67       1.0  0.12274252836311926  0.5792084153917332  0.011996174900794182  1.0000
  H   H68       1.0  0.5436110991831172  0.43277228005033674  0.42080901008389293  1.0000
  H   H69       1.0  0.11076998673340206  0.98801969774933  0.5672149121495593  1.0000
  H   H70       1.0  0.8772588897308254  0.420792265094562  0.9880041785802548  1.0000
  H   H71       1.0  0.45638807863473835  0.567228400380273  0.5791911793353038  1.0000
  H   H72       1.0  0.8892300080440378  0.011980376618161901  0.43278557467812123  1.0000
  C   C1        1.0  0.7858670285099761  0.5215858892339397  0.9329436159336667  1.0000
  C   C2        1.0  0.26427366247745016  0.41139196481719165  0.47844661732926147  1.0000
  C   C3        1.0  0.8530027246056874  0.06706923604188124  0.5886272090168632  1.0000
  C   C4        1.0  0.2141337835537129  0.4784135790656877  0.06705509458652162  1.0000
  C   C5        1.0  0.7357246058866949  0.5886068973393465  0.5215536997936283  1.0000
  C   C6        1.0  0.14699645313049808  0.9329314443899152  0.4113734988313311  1.0000
  C   C7        1.0  0.8457581087420394  0.47815401959729803  0.8637145044377804  1.0000
  C   C8        1.0  0.36768613254759697  0.3856045323894436  0.5218685819154771  1.0000
  C   C9        1.0  0.9821362293114008  0.13628302989364016  0.6143854035224479  1.0000
  C   C10       1.0  0.1542438234597014  0.5218454487301614  0.1362842881133375  1.0000
  C   C11       1.0  0.6323138622298358  0.6143955419780484  0.4781319049122033  1.0000
  C   C12       1.0  0.01786376538436231  0.863717044475038  0.385615601734237  1.0000
  C   C13       1.0  0.7536702463349555  0.40037834612584083  0.8205712849628101  1.0000
  C   C14       1.0  0.353455822677006  0.42022326973903296  0.5996474465460366  1.0000
  C   C15       1.0  0.9331204800855559  0.17941976691983538  0.5797685661759501  1.0000
  C   C16       1.0  0.24633026255028065  0.5996205160828226  0.1794276409349393  1.0000
  C   C17       1.0  0.6465455954169387  0.5797774107472621  0.4003529069350122  1.0000
  C   C18       1.0  0.06687981787034411  0.8205809135386135  0.42023170527417625  1.0000
  C   C19       1.0  0.637117890516059  0.39589296970529375  0.863317502121525  1.0000
  C   C20       1.0  0.2412775175250915  0.4674120267208794  0.6041439042837666  1.0000
  C   C21       1.0  0.7737723910792341  0.1366795318382614  0.5325764665377548  1.0000
  C   C22       1.0  0.36288261836917  0.6041058925033697  0.13668142377622422  1.0000
  C   C23       1.0  0.7587207509207161  0.5325868354344794  0.39585589441012564  1.0000
  C   C24       1.0  0.22622820989179368  0.8633217547135248  0.46742462639279847  1.0000
  C   C25       1.0  0.5139029791957058  0.3272023692731595  0.8361800446502982  1.0000
  C   C26       1.0  0.1866330420722591  0.5089197079444077  0.6727898342828524  1.0000
  C   C27       1.0  0.6776516302749442  0.16379932114917758  0.49102954882433647  1.0000
  C   C28       1.0  0.486097832704651  0.6727970990288412  0.16381970272788493  1.0000
  C   C29       1.0  0.8133666496900531  0.4910797603297539  0.3272098310644012  1.0000
  C   C30       1.0  0.3223497876556607  0.8362013593394907  0.5089718415147076  1.0000
  C   C31       1.0  0.3908793501160517  0.31971306316005876  0.871176198563731  1.0000
  C   C32       1.0  0.07105920125149376  0.5513809329708296  0.6802661606871611  1.0000
  C   C33       1.0  0.5196172032163986  0.12881336763329904  0.4485580757029695  1.0000
  C   C34       1.0  0.6091214617843052  0.680286405141942  0.1288235488144522  1.0000
  C   C35       1.0  0.9289393702911043  0.44861853527667245  0.3197339410581606  1.0000
  C   C36       1.0  0.48038227761658453  0.8711879188906482  0.5514429351966541  1.0000
  C   C37       1.0  0.2658024591963795  0.24694406468034208  0.8383502864524104  1.0000
  C   C38       1.0  0.01873102530402106  0.5913219537789519  0.7530366597515936  1.0000
  C   C39       1.0  0.42738087139912306  0.1616552953319044  0.4086386460224105  1.0000
  C   C40       1.0  0.7341961126728977  0.7530554035624138  0.16164774157692827  1.0000
  C   C41       1.0  0.9812692725702095  0.4086787266806838  0.24696413012752316  1.0000
  C   C42       1.0  0.5726202436796939  0.8383447790610533  0.5913608859782115  1.0000
  C   C43       1.0  0.16745828803820467  0.2652891235793717  0.8875635383124489  1.0000
  C   C44       1.0  0.9021442086509808  0.6222715802645594  0.734714157375528  1.0000
  C   C45       1.0  0.2798302475477783  0.11241695657065522  0.3777451001712748  1.0000
  C   C46       1.0  0.8325391634480256  0.7347103446391047  0.11243596297295258  1.0000
  C   C47       1.0  0.09785608914157959  0.37772910019626954  0.2652871509325863  1.0000
  C   C48       1.0  0.7201722907658734  0.8875837239422925  0.6222548169117063  1.0000
  C   C49       1.0  0.2316333190694806  0.34938864012939774  0.9507458839535019  1.0000
  C   C50       1.0  0.8822696043711674  0.601370091030873  0.6506270122526843  1.0000
  C   C51       1.0  0.2808259841037782  0.04924368483239051  0.3986652217241513  1.0000
  C   C52       1.0  0.768367492830869  0.6506108281725959  0.0492538634246813  1.0000
  C   C53       1.0  0.11772866399297752  0.39862877112567224  0.3493733048701984  1.0000
  C   C54       1.0  0.7191757370869567  0.9507576017460552  0.601335434808334  1.0000
  C   C55       1.0  0.8401428319388202  0.6058275748558302  0.9890332354871348  1.0000
  C   C56       1.0  0.23427784881985766  0.3832081264489631  0.3941984187290402  1.0000
  C   C57       1.0  0.8511735494027306  0.011002245730871604  0.6167954725024742  1.0000
  C   C58       1.0  0.15985798004319926  0.39417189344498393  0.010965993462051018  1.0000
  C   C59       1.0  0.7657192994879125  0.6167907356785491  0.6058012979339154  1.0000
  C   C60       1.0  0.1488270514866274  0.9889990408221012  0.38320613885707633  1.0000
  C   C61       1.0  0.5083777290019854  0.25324041910756284  0.7599791310514874  1.0000
  C   C62       1.0  0.2550275005427949  0.5066857223551365  0.7467517241606885  1.0000
  C   C63       1.0  0.7483595823189191  0.2400058276461294  0.4932650929692457  1.0000
  C   C64       1.0  0.4916222658571244  0.7467596552587424  0.24002083734720253  1.0000
  C   C65       1.0  0.7449724943163147  0.49331435201116863  0.2532482442380014  1.0000
  C   C66       1.0  0.2516404125401906  0.7599942467201758  0.5067348754294444  1.0000
  C   C67       1.0  0.40838811088227095  0.23285396556816107  0.6863292469551254  1.0000
  C   C68       1.0  0.17542708479571448  0.45341993253291707  0.7671340016458857  1.0000
  C   C69       1.0  0.7220459570911331  0.3136669276104627  0.5465347762651405  1.0000
  C   C70       1.0  0.5916115808800413  0.7671455027059936  0.3136704183921282  1.0000
  C   C71       1.0  0.8245729100633882  0.5465801418333882  0.23286596675280438  1.0000
  C   C72       1.0  0.2779529175482621  0.68633314672919  0.4534656285316173  1.0000
  C   C73       1.0  0.39936009274297385  0.1605356448611772  0.6171948068394997  1.0000
  C   C74       1.0  0.2388006864701069  0.4566423932169316  0.8394612728988946  1.0000
  C   C75       1.0  0.7821460963644782  0.38279228072436683  0.5433285503933263  1.0000
  C   C76       1.0  0.6006395990193384  0.8394638234129774  0.3828048585077538  1.0000
  C   C77       1.0  0.7612004285270473  0.5433576811772128  0.16053877753071788  1.0000
  C   C78       1.0  0.21785135504007508  0.6172071874952962  0.4566714693210655  1.0000
  C   C79       1.0  0.5806702308007842  0.1293821139425333  0.6885591116860255  1.0000
  C   C80       1.0  0.45124419020481105  0.5591886319238528  0.8706121482123096  1.0000
  C   C81       1.0  0.8920251422791025  0.31141746127870806  0.4407883890930577  1.0000
  C   C82       1.0  0.4193308841147002  0.8706179604527977  0.31144145717259153  1.0000
  C   C83       1.0  0.5487558047359613  0.4408114424412659  0.12938730175738294  1.0000
  C   C84       1.0  0.10797454948321665  0.6885820069954534  0.5592112762541956  1.0000
  C   C85       1.0  0.5973698473618897  0.20030118270019415  0.7605448423264534  1.0000
  C   C86       1.0  0.3969889886792259  0.5601980778132402  0.7996729568133177  1.0000
  C   C87       1.0  0.8367977470269707  0.23944907885314143  0.43976212708182777  1.0000
  C   C88       1.0  0.4026301475788827  0.7996988916649245  0.23945460764323906  1.0000
  C   C89       1.0  0.6030095828633719  0.439801390434262  0.2003271449320039  1.0000
  C   C90       1.0  0.16320224775046208  0.7605509955143505  0.5602383597458527  1.0000
  C   C91       1.0  0.9857831220501722  0.6503777272807127  0.9851946574754677  1.0000
  C   C92       1.0  0.33539006122120435  0.3348147155905822  0.3496686201388357  1.0000
  C   C93       1.0  0.0005652640620042007  0.014807565054653103  0.6651748413052943  1.0000
  C   C94       1.0  0.014216872890607135  0.3496223470844058  0.01480479249422469  1.0000
  C   C95       1.0  0.6646099335562283  0.6651853587769099  0.6503318666888447  1.0000
  C   C96       1.0  0.999435033812226  0.985193115404982  0.3348259485738293  1.0000
  C   C97       1.0  0.9903001222962828  0.7146778562245686  0.969073586244356  1.0000
  C   C98       1.0  0.2755442237741903  0.2544075668033727  0.28532746132581366  1.0000
  C   C99       1.0  0.021163826694234403  0.030913727390633  0.7455982328885042  1.0000
  C   C100      1.0  0.009699569547699124  0.2853216120483993  0.030925560673907195  1.0000
  C   C101      1.0  0.7244543478500775  0.7455919014429429  0.7146721219905174  1.0000
  C   C102      1.0  0.9788375913997099  0.9690869530956621  0.25440212059255163  1.0000
  C   C103      1.0  0.12798453797367423  0.7548956848417989  0.9649293742682518  1.0000
  C   C104      1.0  0.37298232828805317  0.21004210919961255  0.2451133127349294  1.0000
  C   C105      1.0  0.1629836512253817  0.03506052037545261  0.7899484955492186  1.0000
  C   C106      1.0  0.8720154569670981  0.24510438952331984  0.03507007570144077  1.0000
  C   C107      1.0  0.6270176665710493  0.7899579651666926  0.7548866556637536  1.0000
  C   C108      1.0  0.8370174636901028  0.9649395540198783  0.21005207330939152  1.0000
  C   C109      1.0  0.26539699681113404  0.7321388375389121  0.9786947292644967  1.0000
  C   C110      1.0  0.5331695583700977  0.246544492700636  0.26785601378621493  1.0000
  C   C111      1.0  0.2866626847211151  0.0213187177530259  0.7534419207265373  1.0000
  C   C112      1.0  0.7346029982113151  0.26786123682501994  0.021304202276198142  1.0000
  C   C113      1.0  0.4668315567087191  0.7534555816923215  0.732143518214407  1.0000
  C   C114      1.0  0.7133384302760319  0.9786813566411255  0.2465581297030823  1.0000
  C   C115      1.0  0.2623334906813357  0.6691194039817749  0.9965924796543818  1.0000
  C   C116      1.0  0.5932126073519584  0.3274619659764683  0.33085338870439074  1.0000
  C   C117      1.0  0.2657454549806104  0.0034039918603810003  0.6725283210034263  1.0000
  C   C118      1.0  0.7376668073562341  0.3308812764754877  0.0034072733667400773  1.0000
  C   C119      1.0  0.4067862673691068  0.6725381083619909  0.6691464976633696  1.0000
  C   C120      1.0  0.7342559630316644  0.9965966886271006  0.32747255090662714  1.0000
  C   C121      1.0  0.12375456693337843  0.6283065356032936  0.9986698378700468  1.0000
  C   C122      1.0  0.4954931302470698  0.37033342116501444  0.37172847721927843  1.0000
  C   C123      1.0  0.1250933711808457  0.0013415538281052004  0.6296395170223192  1.0000
  C   C124      1.0  0.8762457310225216  0.37169414485516233  0.0013304335800797121  1.0000
  C   C125      1.0  0.5045057443923255  0.6296666531746312  0.6282719275774796  1.0000
  C   C126      1.0  0.8749058066370098  0.9986591266025047  0.37036067239687753  1.0000
  C   C127      1.0  0.4088996606165479  0.7693619833915832  0.9728109252947804  1.0000
  C   C128      1.0  0.6394362144337434  0.20341324696956065  0.2306726744237224  1.0000
  C   C129      1.0  0.436050429091317  0.027228186926308205  0.7965579938609153  1.0000
  C   C130      1.0  0.5911017575590662  0.230638697093525  0.027188909757271052  1.0000
  C   C131      1.0  0.3605637803436964  0.7965868273979313  0.7693278124039653  1.0000
  C   C132      1.0  0.5639503828090328  0.9727712813756924  0.2034417535172678  1.0000
  N   N1        1.0  0.661718588032386  0.46954687605988715  0.9316697291405092  1.0000
  N   N2        1.0  0.19215946043020438  0.46211892601512977  0.5304923389065408  1.0000
  N   N3        1.0  0.7300643316369744  0.06833643658257671  0.537897567455964  1.0000
  N   N4        1.0  0.33828192085284303  0.5304519861487832  0.06832919675723996  1.0000
  N   N5        1.0  0.8078362646427238  0.5378793299923929  0.46950699267405593  1.0000
  N   N6        1.0  0.2699354521294595  0.931665456035887  0.46210478335308386  1.0000
  N   N7        1.0  0.3685517063450305  0.379994387338357  0.9399303374361169  1.0000
  N   N8        1.0  0.9885298542216604  0.559912258048506  0.6200121546759975  1.0000
  N   N9        1.0  0.42855342601372837  0.06006117710234091  0.4400815778604256  1.0000
  N   N10       1.0  0.6314502256117009  0.6200050809926694  0.06007001040199355  1.0000
  N   N11       1.0  0.011466990907642612  0.4400859979880423  0.3799877773645264  1.0000
  N   N12       1.0  0.5714463577527127  0.9399407155161229  0.5599207729486224  1.0000
  N   N13       1.0  0.48326228335074  0.10935453334402472  0.618176606053936  1.0000
  N   N14       1.0  0.3738925302014807  0.5088242207743651  0.8906428972615218  1.0000
  N   N15       1.0  0.8650347537559071  0.38180750267515867  0.4911473990319665  1.0000
  N   N16       1.0  0.516738831646407  0.8906455410501267  0.3818234443756835  1.0000
  N   N17       1.0  0.6261082816988762  0.49117524752763597  0.10935685011666149  1.0000
  N   N18       1.0  0.1349635147715703  0.6181913594790134  0.5088518812329285  1.0000
  N   N19       1.0  0.5289523518876467  0.7956429164327476  0.9669362235694977  1.0000
  N   N20       1.0  0.7332239480640794  0.17126699007942395  0.2043760645738786  1.0000
  N   N21       1.0  0.561960214669753  0.033058260383761306  0.8286978313916649  1.0000
  N   N22       1.0  0.4710479460682535  0.20435776402570843  0.03306404788062881  1.0000
  N   N23       1.0  0.266775229753776  0.8287336903511858  0.7956241248453181  1.0000
  N   N24       1.0  0.43804090040907084  0.9669418140091964  0.17130170060895708  1.0000
