data_image0
_chemical_formula_structural       Cd2H40C44N4O8
_chemical_formula_sum              "Cd2 H40 C44 N4 O8"
_cell_length_a       9.857812891727772
_cell_length_b       10.590338961754194
_cell_length_c       10.55789326249087
_cell_angle_alpha    81.89746985547538
_cell_angle_beta     65.19982654642276
_cell_angle_gamma    70.92720189502896

_space_group_name_H-M_alt    "P 1"
_space_group_IT_number       1

loop_
  _space_group_symop_operation_xyz
  'x, y, z'

loop_
  _atom_site_type_symbol
  _atom_site_label
  _atom_site_symmetry_multiplicity
  _atom_site_fract_x
  _atom_site_fract_y
  _atom_site_fract_z
  _atom_site_occupancy
  Cd  Cd1       1.0  0.47128335290547335  0.6398544558253364  0.37192450208558375  1.0000
  Cd  Cd2       1.0  0.5287175102835064  0.36014562629439695  0.6280742085565623  1.0000
  H   H1        1.0  0.42696210482316127  0.48332483883272215  0.16369611983091678  1.0000
  H   H2        1.0  0.5730379968371294  0.5166742416524527  0.8363049265139539  1.0000
  H   H3        1.0  0.565128102093574  0.2952812169537181  0.9922734628194053  1.0000
  H   H4        1.0  0.4348738052790537  0.7047158606113016  0.007727147671303679  1.0000
  H   H5        1.0  0.9796488880026784  0.2495320364094057  0.06338012396272318  1.0000
  H   H6        1.0  0.02035232562606378  0.7504670429809154  0.9366195349150888  1.0000
  H   H7        1.0  0.8249008021248017  0.4374601660428113  0.23107709022218612  1.0000
  H   H8        1.0  0.1751015163367597  0.5625389158861793  0.7689202363301392  1.0000
  H   H9        1.0  0.7866243557924548  0.11675139840039614  0.8843682043749727  1.0000
  H   H10       1.0  0.2133757530034686  0.8832476784512553  0.11563378682831882  1.0000
  H   H11       1.0  0.9167639862278705  0.05221964594095851  0.9689825829404344  1.0000
  H   H12       1.0  0.08323757784063449  0.9477784307199502  0.0310180241730365  1.0000
  H   H13       1.0  0.9570211586152839  0.2378985406601403  0.7150846650801769  1.0000
  H   H14       1.0  0.042977480636786004  0.7621015436493083  0.2849168204960862  1.0000
  H   H15       1.0  0.08011356506503381  0.20631358092104793  0.8062424966548821  1.0000
  H   H16       1.0  0.9198876485637083  0.7936854984692733  0.19375716222293007  1.0000
  H   H17       1.0  0.9261724471724762  0.9937109495406133  0.6644645142121774  1.0000
  H   H18       1.0  0.0738253948726921  0.006288151301895103  0.3355345827746916  1.0000
  H   H19       1.0  0.10706785711715842  0.790758170352497  0.5225747423070147  1.0000
  H   H20       1.0  0.8929303496390518  0.20923992049355183  0.4774271926323694  1.0000
  H   H21       1.0  0.4869916606573883  0.8358799965173845  0.5657947483181475  1.0000
  H   H22       1.0  0.5130073147631579  0.16411909232969896  0.43420579577693286  1.0000
  H   H23       1.0  0.32179085084975884  0.043412013440381314  0.7079352052680792  1.0000
  H   H24       1.0  0.6782063117228037  0.9565890819603811  0.2920648298227349  1.0000
  H   H25       1.0  0.9452026322215941  0.583169514417719  0.45399408757792514  1.0000
  H   H26       1.0  0.05479644666197463  0.4168325597215982  0.5460078934936591  1.0000
  H   H27       1.0  0.7755419079064223  0.7025657614624025  0.4440926530700225  1.0000
  H   H28       1.0  0.22445905874557326  0.29743730594957196  0.5559074945486204  1.0000
  H   H29       1.0  0.8752230062616063  0.5046120985796991  0.741062597858374  1.0000
  H   H30       1.0  0.12477452102199754  0.4953879868246035  0.258940275184962  1.0000
  H   H31       1.0  0.8215946178432887  0.610097304789072  0.9576323946167309  1.0000
  H   H32       1.0  0.17840333480053513  0.3899047777121468  0.04236908420506319  1.0000
  H   H33       1.0  0.645054252401522  0.9961985544501885  0.796207502722098  1.0000
  H   H34       1.0  0.35494403641077804  0.0038025325886650004  0.20379303461851356  1.0000
  H   H35       1.0  0.6982427965422177  0.8899648665976017  0.5794209514086079  1.0000
  H   H36       1.0  0.3017558427098521  0.11003521771183965  0.42058053416765523  1.0000
  H   H37       1.0  0.6151349060035117  0.9788540198781779  0.03193612613380032  1.0000
  H   H38       1.0  0.3848648594882889  0.021146056069362405  0.968065861692253  1.0000
  H   H39       1.0  0.796936140922881  0.8788860439091053  0.034176804468834976  1.0000
  H   H40       1.0  0.2030658485058368  0.12111402984872652  0.965822408423094  1.0000
  C   C1        1.0  0.5499313267526418  0.4289211922472732  0.13785538037605968  1.0000
  C   C2        1.0  0.4500699082830193  0.5710778762424769  0.862147113077022  1.0000
  C   C3        1.0  0.627103625067221  0.3243332661157653  0.04266383216388188  1.0000
  C   C4        1.0  0.3728960512328498  0.6756638172724935  0.9573386084025233  1.0000
  C   C5        1.0  0.7848768600179525  0.2562697817239937  0.012463415200727466  1.0000
  C   C6        1.0  0.21512393538620955  0.7437272969358801  0.9875385827570401  1.0000
  C   C7        1.0  0.857458126417228  0.2986173410272884  0.08089483976674212  1.0000
  C   C8        1.0  0.1425430943471539  0.701381734729509  0.9191057639694977  1.0000
  C   C9        1.0  0.7719417789914259  0.4037326068209383  0.17505743732556311  1.0000
  C   C10       1.0  0.2280605608770543  0.5962664642074814  0.8249427238020317  1.0000
  C   C11       1.0  0.8704674995294965  0.14010258269932055  0.9133609753707789  1.0000
  C   C12       1.0  0.1295329382992634  0.8598955023234894  0.08663912949290888  1.0000
  C   C13       1.0  0.007007322195022398  0.16373324219074453  0.7804168565350125  1.0000
  C   C14       1.0  0.9929916674968027  0.8362658393892846  0.2195855772769235  1.0000
  C   C15       1.0  0.10915800692470869  0.037425775993824614  0.6982953917125843  1.0000
  C   C16       1.0  0.8908401712889359  0.9625723293863189  0.30170276379309513  1.0000
  C   C17       1.0  0.0497197548447019  0.9633232908278517  0.6456449915622645  1.0000
  C   C18       1.0  0.9502788844073677  0.03667679348159681  0.35435649401400576  1.0000
  C   C19       1.0  0.1495052449134704  0.8499733793995575  0.5660306348113338  1.0000
  C   C20       1.0  0.8504948496111665  0.15002570471914112  0.43396946667510855  1.0000
  C   C21       1.0  0.3618593636080191  0.8746785317050656  0.5899756509591259  1.0000
  C   C22       1.0  0.6381407237809854  0.12532055604716424  0.41002350566889606  1.0000
  C   C23       1.0  0.2693855270150182  0.988908576981011  0.670458374747696  1.0000
  C   C24       1.0  0.730611978861674  0.011091519323855402  0.32954166372035615  1.0000
  C   C25       1.0  0.7412362086418725  0.5164026525995666  0.5394457760128121  1.0000
  C   C26       1.0  0.25876395366758226  0.48359943497899155  0.460551038158009  1.0000
  C   C27       1.0  0.8182780257947753  0.6266523992171857  0.5115844989398827  1.0000
  C   C28       1.0  0.1817210459531466  0.37334967855565543  0.4884165372732739  1.0000
  C   C29       1.0  0.7897725528893318  0.6893563280355155  0.6441482548902117  1.0000
  C   C30       1.0  0.2102257359229682  0.3106447590033455  0.35585228245039974  1.0000
  C   C31       1.0  0.8264645081047347  0.6127583759060402  0.7518405780953759  1.0000
  C   C32       1.0  0.1735341311473277  0.38724170840340133  0.24816090748089442  1.0000
  C   C33       1.0  0.7952901045497567  0.6725593293988513  0.8743619691148299  1.0000
  C   C34       1.0  0.20470931763792072  0.32744174564457756  0.12564001533399247  1.0000
  C   C35       1.0  0.7273407440571373  0.8110695157388864  0.8934105237370604  1.0000
  C   C36       1.0  0.2726583205551377  0.18893256566747854  0.10658956761767512  1.0000
  C   C37       1.0  0.6945421676032096  0.8878673900409098  0.7849655931775604  1.0000
  C   C38       1.0  0.3054575836173115  0.11213269317367752  0.21503450493164425  1.0000
  C   C39       1.0  0.7250125242701771  0.8277263262270655  0.6624806727580153  1.0000
  C   C40       1.0  0.27498465257367144  0.17227476190664964  0.33752125204965483  1.0000
  C   C41       1.0  0.6898845440657909  0.8750654214331208  0.02781517247755253  1.0000
  C   C42       1.0  0.3101163262588286  0.12493465705308891  0.9721844830230142  1.0000
  C   C43       1.0  0.6056964735543673  0.80054376300226  0.15602052009582934  1.0000
  C   C44       1.0  0.3943069925538509  0.19945529966425116  0.843980143281556  1.0000
  N   N1        1.0  0.6200154195227299  0.46833348642724815  0.20369108651139106  1.0000
  N   N2        1.0  0.37998613027448874  0.5316645975007078  0.796307630885231  1.0000
  N   N3        1.0  0.3041173032530011  0.8067741564240054  0.5366148437278258  1.0000
  N   N4        1.0  0.6958805459278068  0.19322494078497957  0.4633851981174715  1.0000
  O   O1        1.0  0.4758783672573372  0.787303677486584  0.17050973705403294  1.0000
  O   O2        1.0  0.5241247484111184  0.21269638790933956  0.8294899780876864  1.0000
  O   O3        1.0  0.6685129969229848  0.7538842000861694  0.24323903203605832  1.0000
  O   O4        1.0  0.33149079108243024  0.24611387438503132  0.7567588001432882  1.0000
  O   O5        1.0  0.6328899367784403  0.5337574459036177  0.4955267127644803  1.0000
  O   O6        1.0  0.36711135890639207  0.4662446296795153  0.5044715485145518  1.0000
  O   O7        1.0  0.7803311600317356  0.4132237171401272  0.6078155148194855  1.0000
  O   O8        1.0  0.2196682407490229  0.5867773688038725  0.39218363505406034  1.0000
