data_image0
_chemical_formula_structural       Cu4H32Au4C24S4N8
_chemical_formula_sum              "Cu4 H32 Au4 C24 S4 N8"
_cell_length_a       8.830529194282287
_cell_length_b       8.830523866744196
_cell_length_c       12.411653627402666
_cell_angle_alpha    103.49925092368639
_cell_angle_beta     103.49922564306155
_cell_angle_gamma    90.2595936557988

_space_group_name_H-M_alt    "P 1"
_space_group_IT_number       1

loop_
  _space_group_symop_operation_xyz
  'x, y, z'

loop_
  _atom_site_type_symbol
  _atom_site_label
  _atom_site_symmetry_multiplicity
  _atom_site_fract_x
  _atom_site_fract_y
  _atom_site_fract_z
  _atom_site_occupancy
  Cu  Cu1       1.0  0.35864684917479644  0.5377538119969502  0.6429119082141597  1.0000
  Cu  Cu2       1.0  0.5377545270921756  0.35864772246534227  0.14291096528758376  1.0000
  Cu  Cu3       1.0  0.4637287930662525  0.7596357717139101  0.3811206557239545  1.0000
  Cu  Cu4       1.0  0.7596347608430918  0.46372893756582567  0.8811208645832879  1.0000
  H   H1        1.0  0.7392851462815528  0.2706070445688341  0.6298417601847393  1.0000
  H   H2        1.0  0.2706061976068597  0.739286499894213  0.12984070341788373  1.0000
  H   H3        1.0  0.5482070015575147  0.27760700814498307  0.5420068773076495  1.0000
  H   H4        1.0  0.2776067017483043  0.5482061268577566  0.04200632512884541  1.0000
  H   H5        1.0  0.7989145495237366  0.3464505165913748  0.4684781348160315  1.0000
  H   H6        1.0  0.3464507664731258  0.7989144998454165  0.968476986237697  1.0000
  H   H7        1.0  0.643099644356731  0.4719827995051915  0.45647578340916084  1.0000
  H   H8        1.0  0.4719832436387676  0.6431001117532277  0.9564763358541343  1.0000
  H   H9        1.0  0.8797757759982261  0.6440790721302392  0.5578970193249975  1.0000
  H   H10       1.0  0.6440788244532812  0.8797764700384789  0.057896734417965966  1.0000
  H   H11       1.0  0.9370570095210767  0.5223977736486278  0.6542275336169328  1.0000
  H   H12       1.0  0.5223972476312824  0.9370563803901958  0.15422700047377452  1.0000
  H   H13       1.0  0.6553803671097569  0.7258717363302978  0.6315215773305669  1.0000
  H   H14       1.0  0.7258719553535897  0.6553805555024255  0.13152206035577765  1.0000
  H   H15       1.0  0.8012549815399551  0.7238304929646446  0.7589768014792144  1.0000
  H   H16       1.0  0.7238301689229942  0.8012560144911731  0.25897734978965303  1.0000
  H   H17       1.0  0.0954658560904491  0.6867696466329676  0.5214494619965535  1.0000
  H   H18       1.0  0.6867690371361236  0.09546579050118  0.021449711667422433  1.0000
  H   H19       1.0  0.1376389218389633  0.793836040168216  0.4259445311446087  1.0000
  H   H20       1.0  0.7938372275751888  0.1376392242927622  0.9259459010082908  1.0000
  H   H21       1.0  0.9328619981800584  0.6205881479011166  0.2933189472209534  1.0000
  H   H22       1.0  0.6205886604446958  0.9328615307988385  0.7933193699081827  1.0000
  H   H23       1.0  0.9662393093946664  0.47494282375969016  0.37123838078580473  1.0000
  H   H24       1.0  0.4749428507977882  0.9662369551609727  0.8712384269608295  1.0000
  H   H25       1.0  0.1651259378822942  0.5527134563150469  0.21709822576403337  1.0000
  H   H26       1.0  0.5527123385081225  0.1651253982303018  0.7170982936063697  1.0000
  H   H27       1.0  0.0641654244874204  0.3716350916066702  0.20128121591426415  1.0000
  H   H28       1.0  0.3716357340381862  0.0641647851857883  0.701282373986871  1.0000
  H   H29       1.0  0.3648691949605976  0.3934759456058502  0.30724698921233085  1.0000
  H   H30       1.0  0.3934750228506161  0.36486917012457104  0.8072464061685666  1.0000
  H   H31       1.0  0.23342934651037686  0.33628673072494314  0.3828206727139546  1.0000
  H   H32       1.0  0.3362870681989918  0.23342857628013292  0.8828209734565748  1.0000
  Au  Au1       1.0  0.9660867143288028  0.078933482578293  0.5342788943667642  1.0000
  Au  Au2       1.0  0.07893243774099551  0.9660868492624816  0.034279256002207645  1.0000
  Au  Au3       1.0  0.005680001919941401  0.07827802852195023  0.2824673887079996  1.0000
  Au  Au4       1.0  0.07827811160556308  0.005678695036053199  0.7824667552039133  1.0000
  C   C1        1.0  0.1366103801585083  0.242883915526562  0.5751435488820533  1.0000
  C   C2        1.0  0.24288384996651044  0.13660843333411074  0.0751428198602682  1.0000
  C   C3        1.0  0.7837124121650518  0.9292730429309586  0.4905596484817921  1.0000
  C   C4        1.0  0.9292682566565487  0.783714684914919  0.9905595985862804  1.0000
  C   C5        1.0  0.201910198466841  0.9736795885344518  0.3176698556944331  1.0000
  C   C6        1.0  0.9736777177267439  0.20190877056946022  0.8176679997669185  1.0000
  C   C7        1.0  0.8166341299987536  0.1914719822099826  0.24577525151466528  1.0000
  C   C8        1.0  0.19147186121377047  0.8166338695106391  0.7457748294712304  1.0000
  C   C9        1.0  0.6576852915309886  0.3454984147427708  0.5888918182173698  1.0000
  C   C10       1.0  0.34549784056489585  0.6576851695260544  0.08889135098524287  1.0000
  C   C11       1.0  0.7327392332253311  0.4285422659441521  0.5178072473399951  1.0000
  C   C12       1.0  0.4285418209193494  0.7327390764711765  0.017806795002037766  1.0000
  C   C13       1.0  0.8361507676073644  0.565084887532926  0.6016823614637945  1.0000
  C   C14       1.0  0.565086030643819  0.8361509808366777  0.10168142591135884  1.0000
  C   C15       1.0  0.7349039208526307  0.6533052331378428  0.6763624940922883  1.0000
  C   C16       1.0  0.6533055604718356  0.734905512257768  0.17636243847114494  1.0000
  C   C17       1.0  0.1296353632334473  0.6772631617317304  0.4411025153762439  1.0000
  C   C18       1.0  0.6772623938747058  0.12963455909679308  0.9411033867860186  1.0000
  C   C19       1.0  0.024400827271193696  0.5601819650113383  0.34008241453092586  1.0000
  C   C20       1.0  0.5601820456542441  0.024400521045180302  0.8400827055223916  1.0000
  C   C21       1.0  0.12630684196658848  0.47499675821842385  0.2640946912997819  1.0000
  C   C22       1.0  0.47499603896986287  0.1263053919432267  0.764095483635984  1.0000
  C   C23       1.0  0.26621693076933894  0.4287080405830608  0.34513597596886575  1.0000
  C   C24       1.0  0.4287060295743217  0.2662148319503856  0.8451340473016061  1.0000
  S   S1        1.0  0.6153314326210406  0.5014364986311719  0.7037371316818836  1.0000
  S   S2        1.0  0.5014354275156165  0.6153339437359975  0.2037378053843427  1.0000
  S   S3        1.0  0.3276554277999749  0.605636897889454  0.45934166476007493  1.0000
  S   S4        1.0  0.6056376457518694  0.3276560705617655  0.9593414453591721  1.0000
  N   N1        1.0  0.23159718938568827  0.3460745155648652  0.5984650358770197  1.0000
  N   N2        1.0  0.34607560453656555  0.23159661496179498  0.09846392084781293  1.0000
  N   N3        1.0  0.6683430465518967  0.8486804428637882  0.46175912033083943  1.0000
  N   N4        1.0  0.848679656511429  0.6683452794537599  0.9617589202125532  1.0000
  N   N5        1.0  0.31735517782561823  0.9099838085193143  0.33962652965731627  1.0000
  N   N6        1.0  0.9099825222786747  0.3173539837298094  0.8396248282218935  1.0000
  N   N7        1.0  0.7096902903709721  0.26537652289408703  0.22115459304433221  1.0000
  N   N8        1.0  0.2653764509259631  0.7096894560117877  0.7211532594874374  1.0000
