data_image0
_chemical_formula_structural       CuSiH24C24N12F6
_chemical_formula_sum              "Cu1 Si1 H24 C24 N12 F6"
_cell_length_a       8.070666689264012
_cell_length_b       13.6379100101449
_cell_length_c       13.638077340319109
_cell_angle_alpha    90.00140857594283
_cell_angle_beta     89.99923852141107
_cell_angle_gamma    90.00048736572018

_space_group_name_H-M_alt    "P 1"
_space_group_IT_number       1

loop_
  _space_group_symop_operation_xyz
  'x, y, z'

loop_
  _atom_site_type_symbol
  _atom_site_label
  _atom_site_symmetry_multiplicity
  _atom_site_fract_x
  _atom_site_fract_y
  _atom_site_fract_z
  _atom_site_occupancy
  Cu  Cu1       1.0  0.5000260493512488  0.4999938847936249  0.5000115687163883  1.0000
  Si  Si1       1.0  0.9999744238564721  0.5000358424533857  0.5000003780891189  1.0000
  H   H1        1.0  0.2520719099328588  0.6525251926106039  0.5421699411432781  1.0000
  H   H2        1.0  0.7479674342630035  0.6525393802313034  0.4577880216230381  1.0000
  H   H3        1.0  0.2521041787233785  0.3474495512653703  0.45780165996031724  1.0000
  H   H4        1.0  0.7479346542949019  0.34743648433995133  0.5422741868367635  1.0000
  H   H5        1.0  0.2520953674883018  0.4578295616878805  0.6525562751626166  1.0000
  H   H6        1.0  0.7479434642307583  0.542217685300173  0.652567053981059  1.0000
  H   H7        1.0  0.25211045807650845  0.5421730464485679  0.3474703192530555  1.0000
  H   H8        1.0  0.7479288872247454  0.4577244491804037  0.347454092677104  1.0000
  H   H9        1.0  0.7866441356418579  0.916768841304112  0.43533780264907296  1.0000
  H   H10       1.0  0.8862138985638313  0.8059837194480651  0.42899570469177906  1.0000
  H   H11       1.0  0.2133691320605991  0.9167374058158515  0.564618590086887  1.0000
  H   H12       1.0  0.11381642034108813  0.8059519202781547  0.5709315677836384  1.0000
  H   H13       1.0  0.7866208309049444  0.08321015770251712  0.5646998983569133  1.0000
  H   H14       1.0  0.8861845548618279  0.1939869998725854  0.5710455963412711  1.0000
  H   H15       1.0  0.21335115018183617  0.08324226841337183  0.43531885964780753  1.0000
  H   H16       1.0  0.11382241501100052  0.19402796831818137  0.4290264785751034  1.0000
  H   H17       1.0  0.7866326849681756  0.5646386918879501  0.9167847696499505  1.0000
  H   H18       1.0  0.8862093641376066  0.5709897359723755  0.8059924380846153  1.0000
  H   H19       1.0  0.2133780327972589  0.4353629898430854  0.9167598182067989  1.0000
  H   H20       1.0  0.11382237629118923  0.42905688334226255  0.8059739963049918  1.0000
  H   H21       1.0  0.7866136955642348  0.43528971262736604  0.08323826598502387  1.0000
  H   H22       1.0  0.8861779378331109  0.4289413874578258  0.1940202661002458  1.0000
  H   H23       1.0  0.21339304995657934  0.5646489486082302  0.08326562066287117  1.0000
  H   H24       1.0  0.11382884904821822  0.5709523361499366  0.1940537082771953  1.0000
  C   C1        1.0  0.36051079640192546  0.6961917592812696  0.5233814704689761  1.0000
  C   C2        1.0  0.35348855185691974  0.7988225599828312  0.5226289882380397  1.0000
  C   C3        1.0  0.5000173366395303  0.8519869681524527  0.499981433056625  1.0000
  C   C4        1.0  0.6465491020981775  0.7988293665791134  0.4773281715235027  1.0000
  C   C5        1.0  0.6395266749002745  0.696204376517329  0.4765563017756589  1.0000
  C   C6        1.0  0.5000031814731828  0.9550232840603815  0.5000083630603667  1.0000
  C   C7        1.0  0.49999687707109797  0.0449468870803429  0.4999898441646663  1.0000
  C   C8        1.0  0.5000186544546638  0.147982469876851  0.5000204402210924  1.0000
  C   C9        1.0  0.3534774749547368  0.20115271287914283  0.47735719694175305  1.0000
  C   C10       1.0  0.36050859225858306  0.3037879498536499  0.47661492373200776  1.0000
  C   C11       1.0  0.6395147668996517  0.3037723887782562  0.523483313452054  1.0000
  C   C12       1.0  0.6465407455670444  0.20114523540937773  0.5226959892226617  1.0000
  C   C13       1.0  0.36050737469624045  0.4766111180122082  0.69621765050784  1.0000
  C   C14       1.0  0.35348700468803435  0.4773639427632476  0.7988516564402344  1.0000
  C   C15       1.0  0.5000159837555602  0.5000216755240104  0.8519966679269896  1.0000
  C   C16       1.0  0.646541175347956  0.5226729689627732  0.7988517702982773  1.0000
  C   C17       1.0  0.6395379312774523  0.5234474678276371  0.6962222388771406  1.0000
  C   C18       1.0  0.5000297190222941  0.49999141256003554  0.9550485834749336  1.0000
  C   C19       1.0  0.5000186625118701  0.4999912242301932  0.04497162094493488  1.0000
  C   C20       1.0  0.5000274416037059  0.4999756263200439  0.14802866938133255  1.0000
  C   C21       1.0  0.35350752009780007  0.522633328174244  0.20117485716078673  1.0000
  C   C22       1.0  0.36051944807550756  0.5233847230156597  0.3038088067502115  1.0000
  C   C23       1.0  0.6395245745534485  0.4765116992751288  0.30379757853768996  1.0000
  C   C24       1.0  0.6465387598221993  0.47729136747928885  0.2011709238791254  1.0000
  N   N1        1.0  0.5000270776596596  0.648353860077627  0.4999627986868162  1.0000
  N   N2        1.0  0.5000213038661202  0.351622910675097  0.5000544726961988  1.0000
  N   N3        1.0  0.5000268962442648  0.5000375038911145  0.6483821899534018  1.0000
  N   N4        1.0  0.5000239633888769  0.49994586617378894  0.35163948094790237  1.0000
  N   N5        1.0  0.7941694027262403  0.8465245245492525  0.45956686399577495  1.0000
  N   N6        1.0  0.20585776064753253  0.8465049192433299  0.5403738703841439  1.0000
  N   N7        1.0  0.7941500820690383  0.15344718130197077  0.5404781089038477  1.0000
  N   N8        1.0  0.20586252124427779  0.15347178328565292  0.45959736861830425  1.0000
  N   N9        1.0  0.7941555925884957  0.540432526357641  0.8465480019689051  1.0000
  N   N10       1.0  0.20588021201604081  0.45960629109921314  0.8465361714517098  1.0000
  N   N11       1.0  0.7941403502453498  0.4595047163130915  0.15346764095417595  1.0000
  N   N12       1.0  0.2058809583298996  0.5403997421746141  0.15348639463014985  1.0000
  F   F1        1.0  0.21259378529131825  0.5000283313907801  0.5000207885408442  1.0000
  F   F2        1.0  0.7873926437888558  0.50003203002764  0.5000214143186523  1.0000
  F   F3        1.0  0.9999970900468116  0.5893072191637784  0.4105313858165969  1.0000
  F   F4        1.0  0.9999864509504451  0.41067280913704  0.5894349067600186  1.0000
  F   F5        1.0  0.9999963636520025  0.5894414023614942  0.5893542478603349  1.0000
  F   F6        1.0  0.9999772637431479  0.41052102907180904  0.41070663265274715  1.0000
