data_image0
_chemical_formula_structural       Cd2H36C48Br4N8
_chemical_formula_sum              "Cd2 H36 C48 Br4 N8"
_cell_length_a       9.210621597731475
_cell_length_b       9.98749677157754
_cell_length_c       13.60319908788761
_cell_angle_alpha    101.94358636258087
_cell_angle_beta     106.64305277850292
_cell_angle_gamma    99.93496743578045

_space_group_name_H-M_alt    "P 1"
_space_group_IT_number       1

loop_
  _space_group_symop_operation_xyz
  'x, y, z'

loop_
  _atom_site_type_symbol
  _atom_site_label
  _atom_site_symmetry_multiplicity
  _atom_site_fract_x
  _atom_site_fract_y
  _atom_site_fract_z
  _atom_site_occupancy
  Cd  Cd1       1.0  0.6444477461457438  0.16155917671650855  0.2450306704944936  1.0000
  Cd  Cd2       1.0  0.3555516827086009  0.8384519607034876  0.7549699946194933  1.0000
  H   H1        1.0  0.7307834939728934  0.9053094845663738  0.7806070189106717  1.0000
  H   H2        1.0  0.2692212547920505  0.0946964226973321  0.21939980883031038  1.0000
  H   H3        1.0  0.9873121684741336  0.8780595634275913  0.8981652371795263  1.0000
  H   H4        1.0  0.012691734452822307  0.1219431721405186  0.10184021606907827  1.0000
  H   H5        1.0  0.9832165631400896  0.7571997744785578  0.03909718078757144  1.0000
  H   H6        1.0  0.016787347595958124  0.24279451397480759  0.9609055490905049  1.0000
  H   H7        1.0  0.4789497366344688  0.67873816185363  0.9252378039804865  1.0000
  H   H8        1.0  0.521056735204759  0.32125718836766026  0.07476485792936667  1.0000
  H   H9        1.0  0.5183083969397515  0.7256062333629955  0.09545287919521424  1.0000
  H   H10       1.0  0.481687352111038  0.2743869437235205  0.9045421808538519  1.0000
  H   H11       1.0  0.5051310478062518  0.6401693586974916  0.24961724515556935  1.0000
  H   H12       1.0  0.49487176407608047  0.3598206894541747  0.7503809605954784  1.0000
  H   H13       1.0  0.898564962626999  0.460480541090135  0.2455268589059257  1.0000
  H   H14       1.0  0.10144185690882071  0.5395158405124931  0.7544701441895824  1.0000
  H   H15       1.0  0.9093493196524705  0.5427806393435547  0.08812543397697684  1.0000
  H   H16       1.0  0.09064784040280927  0.45721360137894607  0.9118707998865856  1.0000
  H   H17       1.0  0.737334242725936  0.186533386226472  0.5022874132045485  1.0000
  H   H18       1.0  0.2626770826047676  0.8134714691413691  0.49771542054214263  1.0000
  H   H19       1.0  0.7458253005085639  0.2613328017901821  0.6920896825607128  1.0000
  H   H20       1.0  0.2541769699584577  0.7386677891275967  0.3079085110890745  1.0000
  H   H21       1.0  0.7373393065440509  0.5048825444873727  0.7727625219969879  1.0000
  H   H22       1.0  0.2626546917767101  0.4951169784924473  0.22723827834760604  1.0000
  H   H23       1.0  0.7067236757833513  0.6780834207577655  0.66541995654714  1.0000
  H   H24       1.0  0.2932666586759751  0.3219150237097992  0.33457774932391965  1.0000
  H   H25       1.0  0.5943828820867196  0.7634283020904533  0.4834395611769863  1.0000
  H   H26       1.0  0.4056182500762304  0.23656806403594288  0.5165577785328564  1.0000
  H   H27       1.0  0.6881508357302765  0.7766195390003714  0.3892764869390674  1.0000
  H   H28       1.0  0.31185284175571587  0.2233778950980749  0.610722252877373  1.0000
  H   H29       1.0  0.7277641314294598  0.0134127887243736  0.5743275810433628  1.0000
  H   H30       1.0  0.2722290210533131  0.9865835625598435  0.4256718448088534  1.0000
  H   H31       1.0  0.9709386621317221  0.1814024067897151  0.7138345506758411  1.0000
  H   H32       1.0  0.029049672486387162  0.818597091407682  0.2861643841708315  1.0000
  H   H33       1.0  0.2113892793500582  0.09272094771647228  0.7693036896304547  1.0000
  H   H34       1.0  0.788607050809354  0.9072870031316568  0.2306936803321235  1.0000
  H   H35       1.0  0.996316910958207  0.7016673176482513  0.5531564328038312  1.0000
  H   H36       1.0  0.003681383496605435  0.2983353714229935  0.44684201668494683  1.0000
  C   C1        1.0  0.7354783117235398  0.8461443253559223  0.8401404584846117  1.0000
  C   C2        1.0  0.264524741460896  0.15385946207396017  0.159864981956879  1.0000
  C   C3        1.0  0.8759148348539796  0.8329942837026464  0.9059962381523973  1.0000
  C   C4        1.0  0.12408936444361268  0.1670052814038741  0.09400733285851708  1.0000
  C   C5        1.0  0.8731347972476939  0.7627142770408071  0.9841293922695724  1.0000
  C   C6        1.0  0.1268688407879353  0.23728317256795609  0.015873017733944988  1.0000
  C   C7        1.0  0.7295534927933929  0.7062159081281507  0.9944291558520034  1.0000
  C   C8        1.0  0.27044705834191524  0.2937741282493107  0.005567863277434507  1.0000
  C   C9        1.0  0.5941708980663877  0.7212542460249055  0.9220232864638687  1.0000
  C   C10       1.0  0.4058333366960412  0.2787410831159889  0.0779759867121186  1.0000
  C   C11       1.0  0.7167941731822438  0.6426467483948954  0.08113857800554305  1.0000
  C   C12       1.0  0.2831993032459295  0.3573421995641652  0.9188554018114699  1.0000
  C   C13       1.0  0.6004854590955445  0.6653574812899022  0.12647847257338188  1.0000
  C   C14       1.0  0.39951054297097244  0.3346367644027167  0.873519737110328  1.0000
  C   C15       1.0  0.5945353566176266  0.6190174352028349  0.21497203010590474  1.0000
  C   C16       1.0  0.4054722850859634  0.3809821274015804  0.78502854959423  1.0000
  C   C17       1.0  0.7038623186426776  0.5476895411961706  0.2604449132636545  1.0000
  C   C18       1.0  0.2961487023463363  0.4523100437226474  0.7395585474250337  1.0000
  C   C19       1.0  0.8153403750991757  0.5184083209526306  0.21247492108984284  1.0000
  C   C20       1.0  0.18466358696283441  0.48159016934366866  0.7875240322115855  1.0000
  C   C21       1.0  0.8216418035989648  0.5659510418255137  0.12412696243768546  1.0000
  C   C22       1.0  0.1783576250934047  0.43404320756912534  0.8758697240100799  1.0000
  C   C23       1.0  0.7055210180688789  0.5074844925706542  0.35804724423340417  1.0000
  C   C24       1.0  0.2944888804771893  0.4925193053653346  0.6419558837736119  1.0000
  C   C25       1.0  0.7213632259114463  0.3920178818789922  0.4792575343846364  1.0000
  C   C26       1.0  0.2786381711428377  0.6079837702067437  0.5207428485702861  1.0000
  C   C27       1.0  0.7340620774928154  0.2932893464760795  0.5387369724200822  1.0000
  C   C28       1.0  0.2659429992030553  0.7067133779177793  0.46126503693354687  1.0000
  C   C29       1.0  0.7392026636467648  0.33652814053306906  0.6441826180996131  1.0000
  C   C30       1.0  0.2607984528170277  0.6634766758101308  0.3558181790181719  1.0000
  C   C31       1.0  0.7308429313796195  0.4740695139630944  0.6896098989871218  1.0000
  C   C32       1.0  0.26915391262033955  0.5259321269824894  0.3103910468742299  1.0000
  C   C33       1.0  0.7147951754345526  0.5725363192267209  0.6306817597638881  1.0000
  C   C34       1.0  0.2851968546052817  0.4274642450746668  0.3693173334066556  1.0000
  C   C35       1.0  0.7103851082877455  0.5287795662848326  0.5254155107758363  1.0000
  C   C36       1.0  0.28961260123488597  0.4712210165948464  0.47458397981780104  1.0000
  C   C37       1.0  0.6998549849180478  0.7481879579722701  0.46440757450069714  1.0000
  C   C38       1.0  0.3001475622349261  0.25181369224541333  0.5355915666714919  1.0000
  C   C39       1.0  0.8438400610634889  0.8456164035377398  0.550846960127231  1.0000
  C   C40       1.0  0.1561593440396578  0.15438629917576918  0.44915391776589064  1.0000
  C   C41       1.0  0.8376368158822415  0.9820342059561258  0.5978493169708443  1.0000
  C   C42       1.0  0.16235605601004718  0.017965309585555596  0.4021505230442343  1.0000
  C   C43       1.0  0.9708256342360002  0.07397088683865148  0.6761135472992448  1.0000
  C   C44       1.0  0.02916553028116214  0.9260307355286418  0.3238870011390205  1.0000
  C   C45       1.0  0.1053382284258717  0.0257187067807152  0.7069558505596231  1.0000
  C   C46       1.0  0.8946552323841246  0.9742871354078347  0.2930435759984462  1.0000
  C   C47       1.0  0.9846977179786905  0.8070568472426702  0.5860539480239879  1.0000
  C   C48       1.0  0.015300845271994507  0.1929469042305456  0.41394618302461333  1.0000
  Br  Br1       1.0  0.7246080737317513  0.1395272000438865  0.0740480306788811  1.0000
  Br  Br2       1.0  0.27539048561439494  0.8604807749866981  0.9259534620549771  1.0000
  Br  Br3       1.0  0.49906962160311963  0.9701594994779655  0.31703934283335394  1.0000
  Br  Br4       1.0  0.500903180251946  0.0298409693957638  0.6829507651095738  1.0000
  N   N1        1.0  0.5967315230438075  0.7891828830237841  0.8472714819141202  1.0000
  N   N2        1.0  0.40326902817249527  0.21081559736636277  0.15272752654842484  1.0000
  N   N3        1.0  0.7174433217536703  0.381812406552541  0.37487881660426575  1.0000
  N   N4        1.0  0.2825688533195533  0.6181913969535273  0.6251240299495391  1.0000
  N   N5        1.0  0.7001704341884505  0.599481875577581  0.4470691585975856  1.0000
  N   N6        1.0  0.2998369190345826  0.4005208543863644  0.5529325693028254  1.0000
  N   N7        1.0  0.11195395455714421  0.8944866848779964  0.6629512797229179  1.0000
  N   N8        1.0  0.8880440593071839  0.10551916845071219  0.33704758392872225  1.0000
