data_image0
_chemical_formula_structural       Cu6H36C96N12O24
_chemical_formula_sum              "Cu6 H36 C96 N12 O24"
_cell_length_a       12.289701690393358
_cell_length_b       25.844816929898602
_cell_length_c       25.844645064717337
_cell_angle_alpha    117.54780371892646
_cell_angle_beta     99.11616054245971
_cell_angle_gamma    99.11460838955121

_space_group_name_H-M_alt    "P 1"
_space_group_IT_number       1

loop_
  _space_group_symop_operation_xyz
  'x, y, z'

loop_
  _atom_site_type_symbol
  _atom_site_label
  _atom_site_symmetry_multiplicity
  _atom_site_fract_x
  _atom_site_fract_y
  _atom_site_fract_z
  _atom_site_occupancy
  Cu  Cu1       1.0  0.050565783988304164  0.9999897340913863  0.46240859817500274  1.0000
  Cu  Cu2       1.0  0.05062050115999748  0.46238524483398197  0.9999725383880996  1.0000
  Cu  Cu3       1.0  0.5882250674655864  0.5375989923423817  0.537584093715786  1.0000
  Cu  Cu4       1.0  0.4118489853427932  0.46241936603487954  0.46240577761449225  1.0000
  Cu  Cu5       1.0  0.9494175787417235  0.537577587810958  0.9999818568464534  1.0000
  Cu  Cu6       1.0  0.9493692446786144  0.999995663240121  0.5376009633312575  1.0000
  H   H1        1.0  0.1916394723011123  0.1319301849263823  0.7050012285153568  1.0000
  H   H2        1.0  0.3637899025736858  0.13617696287295192  0.5740719988434504  1.0000
  H   H3        1.0  0.05970072269688849  0.5730128809176805  0.8680801324768408  1.0000
  H   H4        1.0  0.22767438411720062  0.43783859182495644  0.8637589623271608  1.0000
  H   H5        1.0  0.4867243663761158  0.29507220718255683  0.42700345857267746  1.0000
  H   H6        1.0  0.7898457048856784  0.42593589133414883  0.5621552292659827  1.0000
  H   H7        1.0  0.5133531027869722  0.573016098766658  0.7049536201546187  1.0000
  H   H8        1.0  0.2102399983860651  0.4378643313588173  0.5740615104261906  1.0000
  H   H9        1.0  0.8083535345039651  0.29501710718082563  0.8680558243754957  1.0000
  H   H10       1.0  0.6361771815647048  0.4259319404253007  0.8637935314958367  1.0000
  H   H11       1.0  0.9402736497900437  0.13188676776997002  0.4269699509254109  1.0000
  H   H12       1.0  0.7723034211233042  0.13620833727057402  0.5621479500654942  1.0000
  H   H13       1.0  0.8083259423755396  0.8680737013581565  0.2950244359604852  1.0000
  H   H14       1.0  0.6361274955867915  0.8638033917260091  0.425930261178884  1.0000
  H   H15       1.0  0.940323083464563  0.42694619728620625  0.1318924673075018  1.0000
  H   H16       1.0  0.772367721794112  0.5621191243880974  0.13618072695333447  1.0000
  H   H17       1.0  0.5132969046233742  0.7049361982612157  0.5729890464795203  1.0000
  H   H18       1.0  0.2101844513699619  0.5740639157386555  0.4378366799873986  1.0000
  H   H19       1.0  0.4867151392081227  0.4270153851261967  0.29505542309342997  1.0000
  H   H20       1.0  0.7898366662647903  0.5621707695261763  0.42592198229089456  1.0000
  H   H21       1.0  0.19164419104951955  0.704957356116779  0.13190063789844675  1.0000
  H   H22       1.0  0.36384514856744254  0.5740538363843231  0.13617659701144902  1.0000
  H   H23       1.0  0.059697934309554196  0.8680981094254465  0.5730295923903127  1.0000
  H   H24       1.0  0.2276664189011798  0.8637928314494517  0.43785744581367664  1.0000
  H   H25       1.0  0.5275279639181747  0.21853460177146647  0.6575624058080008  1.0000
  H   H26       1.0  0.30902581131598345  0.4390143190472672  0.781409333644788  1.0000
  H   H27       1.0  0.8700167309061018  0.34240937388716475  0.5609780079480442  1.0000
  H   H28       1.0  0.13003948648035651  0.4390354642395948  0.6575768678889771  1.0000
  H   H29       1.0  0.472432398472975  0.3424309046480546  0.7814490050776965  1.0000
  H   H30       1.0  0.6909865699279152  0.21857256817857973  0.5609872053392733  1.0000
  H   H31       1.0  0.47241318320757153  0.7814421298033027  0.3424233346676075  1.0000
  H   H32       1.0  0.6910154232872828  0.5609746226165698  0.21854279149787456  1.0000
  H   H33       1.0  0.12998523339144455  0.6575868155510849  0.4390259639612564  1.0000
  H   H34       1.0  0.8700177730399405  0.5609756522376872  0.3423925232073231  1.0000
  H   H35       1.0  0.5275600371115845  0.6575594013019386  0.2185449494480025  1.0000
  H   H36       1.0  0.3090080937569227  0.7814353872227217  0.43901739877541945  1.0000
  C   C1        1.0  0.2679743562801208  0.12955153055562366  0.634621190997187  1.0000
  C   C2        1.0  0.2650399062640574  0.15109022196040203  0.6947686902107717  1.0000
  C   C3        1.0  0.3565297162550821  0.19740305873959577  0.7416234725340444  1.0000
  C   C4        1.0  0.45177780181553123  0.22226540226124317  0.7282553674188958  1.0000
  C   C5        1.0  0.4536057970488018  0.199629809418795  0.6677922979018547  1.0000
  C   C6        1.0  0.3627072261625983  0.1537183647356244  0.621210683893615  1.0000
  C   C7        1.0  0.1690617149654301  0.08118330854006933  0.5846220296350992  1.0000
  C   C8        1.0  0.3536740029760211  0.2202266218103547  0.8032566218852392  1.0000
  C   C9        1.0  0.13845637172401137  0.5050178320396342  0.8704308098480452  1.0000
  C   C10       1.0  0.11393498748327603  0.5436125835333244  0.8488978376070403  1.0000
  C   C11       1.0  0.15912366725811475  0.5441956149294783  0.8026053181501066  1.0000
  C   C12       1.0  0.22952983715385508  0.505973880439612  0.7777176644956325  1.0000
  C   C13       1.0  0.253991496114182  0.46813948839474073  0.8003308869801485  1.0000
  C   C14       1.0  0.2090225009124112  0.46744146461897196  0.8462409184880426  1.0000
  C   C15       1.0  0.08796067084782076  0.5034143693710434  0.918814676133614  1.0000
  C   C16       1.0  0.13350637250441372  0.5830540991942357  0.77985323328663  1.0000
  C   C17       1.0  0.6334375693654054  0.36542661651063935  0.4950122217263696  1.0000
  C   C18       1.0  0.5703360832500266  0.30528982251375686  0.4564127415830938  1.0000
  C   C19       1.0  0.6149177602727465  0.2584115122077223  0.45583291059088527  1.0000
  C   C20       1.0  0.7235366650077851  0.2717450955324809  0.49404345128308336  1.0000
  C   C21       1.0  0.7858570161197491  0.3322022226275224  0.5318630049522497  1.0000
  C   C22       1.0  0.7415938878516499  0.3788081143805543  0.5325653624390227  1.0000
  C   C23       1.0  0.5846187867460771  0.4154362236168224  0.49661530341338506  1.0000
  C   C24       1.0  0.5504326353367334  0.19679681057209567  0.41696918812628775  1.0000
  C   C25       1.0  0.3666416969664043  0.5050091142055922  0.634585450464236  1.0000
  C   C26       1.0  0.42973536036192433  0.5436095861110176  0.6947257786739766  1.0000
  C   C27       1.0  0.38513179048580076  0.5441855033638987  0.7415986786247045  1.0000
  C   C28       1.0  0.2765043212362814  0.5059718254059009  0.7282505681187813  1.0000
  C   C29       1.0  0.21420124542373037  0.4681505276806703  0.6677911392434409  1.0000
  C   C30       1.0  0.2584835192919003  0.4674533788057787  0.6211946761108391  1.0000
  C   C31       1.0  0.4154768279138851  0.5034077062972245  0.5845828921058355  1.0000
  C   C32       1.0  0.4495834673602702  0.5830449236599622  0.8032218814234823  1.0000
  C   C33       1.0  0.7320035699735712  0.3653901274359087  0.8704314022468863  1.0000
  C   C34       1.0  0.7349420498167876  0.3052442393075269  0.8488948199517309  1.0000
  C   C35       1.0  0.6434528071205464  0.2583848162674088  0.8025890937226874  1.0000
  C   C36       1.0  0.5481860006333008  0.2717450685626518  0.7777299545075989  1.0000
  C   C37       1.0  0.5463527178078638  0.3322073428619207  0.8003567925803379  1.0000
  C   C38       1.0  0.6372592261165624  0.37879749620071135  0.846264964070343  1.0000
  C   C39       1.0  0.8309027846823157  0.41538951177378186  0.9187920780664526  1.0000
  C   C40       1.0  0.6463231600256166  0.19675813700309425  0.7797761789361884  1.0000
  C   C41       1.0  0.8615180111614009  0.12953323686260632  0.4949662300744676  1.0000
  C   C42       1.0  0.8860435851206888  0.15107295681226426  0.45637539944574707  1.0000
  C   C43       1.0  0.8408780209744862  0.19737374626009804  0.4558021835987772  1.0000
  C   C44       1.0  0.7704893975048253  0.22226972091841196  0.49403302329270804  1.0000
  C   C45       1.0  0.7460075542503618  0.19964657614203674  0.5318588953812551  1.0000
  C   C46       1.0  0.7909602777230945  0.15372773730567255  0.5325465798992894  1.0000
  C   C47       1.0  0.9120152071319012  0.0811489197809792  0.49656983006448724  1.0000
  C   C48       1.0  0.8665015406313047  0.22013248530817717  0.41695049939487205  1.0000
  C   C49       1.0  0.7319663880433254  0.8704442102082768  0.3653938146283337  1.0000
  C   C50       1.0  0.7349152985179119  0.8489064236081563  0.30524976031038875  1.0000
  C   C51       1.0  0.6434429470389135  0.8025922274766728  0.2583856077491473  1.0000
  C   C52       1.0  0.5481824083603329  0.7777230954342829  0.2717426693054179  1.0000
  C   C53       1.0  0.5463396431371238  0.8003555211406381  0.3322047069682767  1.0000
  C   C54       1.0  0.6372243591296896  0.8462705877358306  0.3787966224423229  1.0000
  C   C55       1.0  0.830856900792597  0.9188060985081211  0.4153988238138807  1.0000
  C   C56       1.0  0.6463249986290979  0.7797817873124662  0.1967605143119401  1.0000
  C   C57       1.0  0.8615789196202714  0.49494441166004316  0.12952670896570598  1.0000
  C   C58       1.0  0.8860952896446151  0.45635282892775564  0.15106773225981124  1.0000
  C   C59       1.0  0.840904944609818  0.45578789953464854  0.19736965575205545  1.0000
  C   C60       1.0  0.7705098976315626  0.49401868365007595  0.2222542077152951  1.0000
  C   C61       1.0  0.7460454500332859  0.5318458340378741  0.19962814040059126  1.0000
  C   C62       1.0  0.7910224089271197  0.5325284713786759  0.1537150790701317  1.0000
  C   C63       1.0  0.9120754942212701  0.4965397283095997  0.08113759484286484  1.0000
  C   C64       1.0  0.8664985737127467  0.4169348480879195  0.2201356208193488  1.0000
  C   C65       1.0  0.36659081223456996  0.6345795258317539  0.5049786131954689  1.0000
  C   C66       1.0  0.42968323061213454  0.6947163205700023  0.5435812782277551  1.0000
  C   C67       1.0  0.3850907571808906  0.741592821452706  0.5441629397616979  1.0000
  C   C68       1.0  0.27646591807140214  0.7282556186114207  0.505956081469236  1.0000
  C   C69       1.0  0.21415207856787802  0.667796681152254  0.4681365694594034  1.0000
  C   C70       1.0  0.25842938430165674  0.6211944082884457  0.4674280563202584  1.0000
  C   C71       1.0  0.4154347904457225  0.5845758002603392  0.5033739624305937  1.0000
  C   C72       1.0  0.4495741673304253  0.8032106912650792  0.5830307059561334  1.0000
  C   C73       1.0  0.6334303044850957  0.49502327302254673  0.36540959106354615  1.0000
  C   C74       1.0  0.5703352781637677  0.45642008674725093  0.30527564356346903  1.0000
  C   C75       1.0  0.6149181348529993  0.45583240373012057  0.25839303141454906  1.0000
  C   C76       1.0  0.7235443808808244  0.4940370300946314  0.27173028701231056  1.0000
  C   C77       1.0  0.7858626819292811  0.5318623996032843  0.3321873310855423  1.0000
  C   C78       1.0  0.7415885501838063  0.5325758400886759  0.37879426262653476  1.0000
  C   C79       1.0  0.5846120396304428  0.4966287537698193  0.4154199491248035  1.0000
  C   C80       1.0  0.550433923038412  0.4169689128481482  0.19677632385583615  1.0000
  C   C81       1.0  0.2680076439900817  0.6345865987212564  0.12953254172946768  1.0000
  C   C82       1.0  0.2650591271727763  0.694733845218032  0.1510724764611595  1.0000
  C   C83       1.0  0.35652769636639203  0.7415964378177764  0.19738739320481355  1.0000
  C   C84       1.0  0.45178596214675826  0.7282389024593673  0.22225952527256967  1.0000
  C   C85       1.0  0.45363476135597147  0.6677779846180985  0.19962868209393034  1.0000
  C   C86       1.0  0.36274953998860593  0.6211891872383078  0.15371423252489083  1.0000
  C   C87       1.0  0.16911599540898703  0.5845858558865447  0.0811663921973108  1.0000
  C   C88       1.0  0.35364819859560026  0.8032213070883077  0.220197619852911  1.0000
  C   C89       1.0  0.1384509719487072  0.870457975973196  0.5050352721016295  1.0000
  C   C90       1.0  0.11393124679972304  0.848920066088539  0.5436281550809311  1.0000
  C   C91       1.0  0.15911142049346716  0.802618823247798  0.5441991690975954  1.0000
  C   C92       1.0  0.22950449004924428  0.7777300887775739  0.5059685301093139  1.0000
  C   C93       1.0  0.25398177573931247  0.800357306748751  0.4681453577879465  1.0000
  C   C94       1.0  0.20901434608273217  0.846269810757157  0.4674563425141683  1.0000
  C   C95       1.0  0.08793780856659351  0.9188400313076672  0.5034332899849545  1.0000
  C   C96       1.0  0.13349809628468284  0.779862346659826  0.58305344303092  1.0000
  N   N1        1.0  0.3520442979989866  0.23983962141407034  0.8538298733849314  1.0000
  N   N2        1.0  0.11228884483269047  0.6140175853937607  0.7602430866382831  1.0000
  N   N3        1.0  0.49821585696338394  0.14622218667069126  0.3859789136253794  1.0000
  N   N4        1.0  0.501755765046461  0.6140265948480845  0.8538040132307781  1.0000
  N   N5        1.0  0.6479888472101721  0.14618924690584123  0.7601753122501334  1.0000
  N   N6        1.0  0.8877249497213101  0.23973729929270607  0.38598198609876266  1.0000
  N   N7        1.0  0.6479995637709949  0.760185982241936  0.14619279586009543  1.0000
  N   N8        1.0  0.8876855547246408  0.38597950983195534  0.2397569009922407  1.0000
  N   N9        1.0  0.5017822346071625  0.853779432633843  0.6140199245851787  1.0000
  N   N10       1.0  0.49822346556908303  0.3859818138890319  0.14620195664689814  1.0000
  N   N11       1.0  0.3519789860453957  0.8537897451898292  0.2398018806348432  1.0000
  N   N12       1.0  0.11228241123385625  0.760259795092537  0.6140231986322459  1.0000
  O   O1        1.0  0.17783647198466213  0.06280818120891501  0.5306610391731537  1.0000
  O   O2        1.0  0.08403464309065362  0.06277871366744853  0.6001765998431023  1.0000
  O   O3        1.0  0.11512240307567378  0.4678388365947158  0.9371887100145668  1.0000
  O   O4        1.0  0.02133898585340442  0.5373905667187274  0.9372300984947369  1.0000
  O   O5        1.0  0.6473907804712908  0.4693826408050725  0.5321534351044973  1.0000
  O   O6        1.0  0.4840058390486207  0.39988404925810517  0.4626514952051649  1.0000
  O   O7        1.0  0.3526973569712554  0.4678583574838486  0.5306275929134187  1.0000
  O   O8        1.0  0.5160701006672567  0.537360569516636  0.600127577079945  1.0000
  O   O9        1.0  0.822130156621711  0.46934615294723164  0.9371632535789797  1.0000
  O   O10       1.0  0.9159448957108011  0.3998324418870993  0.9371990726909868  1.0000
  O   O11       1.0  0.8848630277607442  0.06277889809705782  0.5321467841133866  1.0000
  O   O12       1.0  0.9786370504684501  0.06273460135315642  0.4625919252669916  1.0000
  O   O13       1.0  0.8220808709110162  0.9371803202363228  0.46935426942039976  1.0000
  O   O14       1.0  0.915908924783523  0.9372111445499063  0.39984170326052054  1.0000
  O   O15       1.0  0.8849252988904015  0.532115260729718  0.06276481890449771  1.0000
  O   O16       1.0  0.9787071487279778  0.46256534084162854  0.06272414898377587  1.0000
  O   O17       1.0  0.3526591026523819  0.5306203313501642  0.46782285455527267  1.0000
  O   O18       1.0  0.5160282529585204  0.6001252597209047  0.5373323356080845  1.0000
  O   O19       1.0  0.6473872943595965  0.5321713143764698  0.46937024387603526  1.0000
  O   O20       1.0  0.4840074877353118  0.46266321975404173  0.3998693282685861  1.0000
  O   O21       1.0  0.1778992597169307  0.5306274035646581  0.06278976553264208  1.0000
  O   O22       1.0  0.08407829538673904  0.6001402103908904  0.06275886219822989  1.0000
  O   O23       1.0  0.11509217185442819  0.9372127678036294  0.4678542736270258  1.0000
  O   O24       1.0  0.021314820823505404  0.9372471086204401  0.5374038913461447  1.0000
