data_image0
_chemical_formula_structural       Mn2H20C28N4O8
_chemical_formula_sum              "Mn2 H20 C28 N4 O8"
_cell_length_a       7.738752844722328
_cell_length_b       9.3130490466255
_cell_length_c       9.766709080720831
_cell_angle_alpha    97.23823992450875
_cell_angle_beta     104.9900965243058
_cell_angle_gamma    108.46851468052245

_space_group_name_H-M_alt    "P 1"
_space_group_IT_number       1

loop_
  _space_group_symop_operation_xyz
  'x, y, z'

loop_
  _atom_site_type_symbol
  _atom_site_label
  _atom_site_symmetry_multiplicity
  _atom_site_fract_x
  _atom_site_fract_y
  _atom_site_fract_z
  _atom_site_occupancy
  Mn  Mn1       1.0  0.7118758425969178  0.9609393746064538  0.5180145791754072  1.0000
  Mn  Mn2       1.0  0.2881331202521764  0.039060016867793514  0.481983140198139  1.0000
  H   H1        1.0  0.7290645878003661  0.42356998713127336  0.3368970331126422  1.0000
  H   H2        1.0  0.2709505058999469  0.576433986216472  0.6631096767022273  1.0000
  H   H3        1.0  0.05282392260322415  0.42876221845963164  0.3904445748896493  1.0000
  H   H4        1.0  0.9471887812839483  0.5712394625679594  0.6095552194222125  1.0000
  H   H5        1.0  0.9741222291750516  0.984492516874809  0.837000999811224  1.0000
  H   H6        1.0  0.0258763076428963  0.015504644430421903  0.16300146151968425  1.0000
  H   H7        1.0  0.22384691872661486  0.18616783991137006  0.048430909028674314  1.0000
  H   H8        1.0  0.7761487034258465  0.8138316890874933  0.9515732852247968  1.0000
  H   H9        1.0  0.06519898007267955  0.5295044608725732  0.8399001451945126  1.0000
  H   H10       1.0  0.9347929177785518  0.47049278929065974  0.16009788331410865  1.0000
  H   H11       1.0  0.8324406832351413  0.3122966489407091  0.633083349394575  1.0000
  H   H12       1.0  0.16755545540123515  0.6876982146855184  0.36691424183658944  1.0000
  H   H13       1.0  0.2972604453742279  0.3712554879368852  0.25321559717740183  1.0000
  H   H14       1.0  0.7027325329073477  0.6287440841075734  0.7467839603825867  1.0000
  H   H15       1.0  0.5148872095217386  0.6004708646560531  0.4534465024919073  1.0000
  H   H16       1.0  0.48510631525132913  0.39952987234816123  0.5465522855413172  1.0000
  H   H17       1.0  0.3641458666498851  0.6811775402622119  0.9568826978992748  1.0000
  H   H18       1.0  0.6358439087166731  0.3188209018298096  0.04311606059889785  1.0000
  H   H19       1.0  0.5702749125767284  0.8939867355771725  0.17061772566102468  1.0000
  H   H20       1.0  0.4297151719604245  0.1060152175580527  0.8293784513133676  1.0000
  C   C1        1.0  0.5744055353710708  0.17788123523319405  0.3172583712959921  1.0000
  C   C2        1.0  0.4256015806902269  0.8221228377776413  0.682745678156387  1.0000
  C   C3        1.0  0.7552181860222479  0.31610784722987273  0.34807423982095315  1.0000
  C   C4        1.0  0.24479746253798143  0.6838972964364702  0.6519296550638815  1.0000
  C   C5        1.0  0.9362448496966708  0.3195269060205846  0.3767385661151509  1.0000
  C   C6        1.0  0.06376917194172906  0.6804747508047841  0.6232645692450806  1.0000
  C   C7        1.0  0.994615862163144  0.18361725375572746  0.38880577725222326  1.0000
  C   C8        1.0  0.0053963036009677555  0.8163832676709647  0.6111927411831388  1.0000
  C   C9        1.0  0.0006896308398793945  0.1071328042691846  0.8415244606568851  1.0000
  C   C10       1.0  0.9993081263499094  0.8928655408391676  0.1584759355021391  1.0000
  C   C11       1.0  0.13718919484860953  0.22046247546163042  0.9608284401751633  1.0000
  C   C12       1.0  0.8628077659761504  0.7795370427321447  0.03917398161851798  1.0000
  C   C13       1.0  0.1670277549730201  0.3775846928654332  0.9626035338524874  1.0000
  C   C14       1.0  0.8329652233085556  0.6224148791790258  0.03739602370749399  1.0000
  C   C15       1.0  0.05373856290123063  0.41061775205973566  0.8428092557146771  1.0000
  C   C16       1.0  0.9462570801723019  0.5893817903362617  0.15718982503062773  1.0000
  C   C17       1.0  0.9224554345816359  0.2901372511892433  0.7275700094993598  1.0000
  C   C18       1.0  0.07754124217780864  0.709858772037883  0.2724288576083041  1.0000
  C   C19       1.0  0.4757644172720603  0.6117084599116324  0.34091717189739523  1.0000
  C   C20       1.0  0.5242285777463708  0.38829112285053213  0.6590782948560661  1.0000
  C   C21       1.0  0.35630572199896465  0.4839808716086723  0.22806381493970224  1.0000
  C   C22       1.0  0.6436859301629527  0.5160187192791527  0.7719344469751734  1.0000
  C   C23       1.0  0.3070685118328101  0.5053846547678448  0.08517310144673473  1.0000
  C   C24       1.0  0.6929212593495322  0.49461378464475564  0.9148266797530697  1.0000
  C   C25       1.0  0.3885652941273606  0.6554591284050844  0.06456833129607283  1.0000
  C   C26       1.0  0.6114303531303804  0.3445404166703341  0.9354297267476002  1.0000
  C   C27       1.0  0.5072172968787498  0.776398749493957  0.1841796986652399  1.0000
  C   C28       1.0  0.492771694675426  0.2236008737217574  0.8158180173626877  1.0000
  N   N1        1.0  0.8954056229911416  0.139824707225543  0.7250713191741626  1.0000
  N   N2        1.0  0.10459346868672277  0.8601736243982927  0.2749283272267108  1.0000
  N   N3        1.0  0.5494987800164568  0.7563906120962115  0.3211089391092657  1.0000
  N   N4        1.0  0.4504936685104822  0.2436078057062048  0.6788872971709597  1.0000
  O   O1        1.0  0.5481827092864435  0.1155754395729076  0.42609266573725807  1.0000
  O   O2        1.0  0.45182623682579515  0.8844239411836413  0.5739091444428157  1.0000
  O   O3        1.0  0.4584310057885191  0.1388104727240886  0.19197241212926033  1.0000
  O   O4        1.0  0.5415769533822258  0.8611982682514211  0.8080313543774696  1.0000
  O   O5        1.0  0.8724460426798688  0.05333641041207219  0.3866679429313181  1.0000
  O   O6        1.0  0.12756902519709015  0.9466617352827033  0.6133319106863697  1.0000
  O   O7        1.0  0.16966963905304772  0.20476658772060574  0.3982525569167026  1.0000
  O   O8        1.0  0.8303393489013263  0.7952328198302043  0.6017390262470459  1.0000
