data_image0
_chemical_formula_structural       Hf6H24C44N4O32
_chemical_formula_sum              "Hf6 H24 C44 N4 O32"
_cell_length_a       13.028394867746325
_cell_length_b       16.505795322854546
_cell_length_c       16.56167785580787
_cell_angle_alpha    82.04349652365677
_cell_angle_beta     66.872844992088
_cell_angle_gamma    66.69202587340857

_space_group_name_H-M_alt    "P 1"
_space_group_IT_number       1

loop_
  _space_group_symop_operation_xyz
  'x, y, z'

loop_
  _atom_site_type_symbol
  _atom_site_label
  _atom_site_symmetry_multiplicity
  _atom_site_fract_x
  _atom_site_fract_y
  _atom_site_fract_z
  _atom_site_occupancy
  Hf  Hf1       1.0  0.9798527284749667  0.1217604060173016  0.9884353012052004  1.0000
  Hf  Hf2       1.0  0.9862199045370307  0.9518503127904624  0.14281842489215515  1.0000
  Hf  Hf3       1.0  0.14387743001942238  0.9588715966505389  0.8191663651649038  1.0000
  Hf  Hf4       1.0  0.1539794513873857  0.7916007013094486  0.9748106548304066  1.0000
  Hf  Hf5       1.0  0.2562025366158311  0.9572288020414701  0.9821923014782853  1.0000
  Hf  Hf6       1.0  0.875241678320549  0.9542073670910441  0.9813660453889953  1.0000
  H   H1        1.0  0.1507224181057865  0.4837354722110661  0.9776092543951974  1.0000
  H   H2        1.0  0.28487589527272655  0.5737096921327945  0.9790615092482042  1.0000
  H   H3        1.0  0.9608936136504409  0.4296974693455838  0.018497430414385084  1.0000
  H   H4        1.0  0.8273066882685639  0.3388548137936453  0.018687759838726888  1.0000
  H   H5        1.0  0.1441560455756061  0.9681137490160692  0.5094096716159981  1.0000
  H   H6        1.0  0.2859704357317055  0.9552789958981621  0.5991364054486256  1.0000
  H   H7        1.0  0.9946733837298823  0.9271736980743414  0.45934380730298596  1.0000
  H   H8        1.0  0.8722953023400498  0.9140386427493039  0.3662942181274428  1.0000
  H   H9        1.0  0.7896415904327228  0.0949005945944705  0.11887685200795767  1.0000
  H   H10       1.0  0.2162378409762198  0.8245103463066669  0.11130167341261911  1.0000
  H   H11       1.0  0.04937671429782138  0.8202926112150876  0.8521944224866403  1.0000
  H   H12       1.0  0.21109762752409725  0.08807658881001149  0.8525233048600782  1.0000
  H   H13       1.0  0.9332054423384973  0.8292159213282276  0.25212077071766  1.0000
  H   H14       1.0  0.0794874805883907  0.7598133862888332  0.1539566908876893  1.0000
  H   H15       1.0  0.3268923022876749  0.6761544808026941  0.8488649458658485  1.0000
  H   H16       1.0  0.2542023387829174  0.7783842675855084  0.7822526623104694  1.0000
  H   H17       1.0  0.08003899540305781  0.07911443160821821  0.7068927980807089  1.0000
  H   H18       1.0  0.0492401160261053  0.15196322294858794  0.8093954642738908  1.0000
  H   H19       1.0  0.9097517938756995  0.23588636581992972  0.11065310231131055  1.0000
  H   H20       1.0  0.8036236337436337  0.04861268438523331  0.29885909830915824  1.0000
  H   H21       1.0  0.2068770428464788  0.8241839225886807  0.7022781882367041  1.0000
  H   H22       1.0  0.921126332826873  0.22989937927870593  0.8622825212778765  1.0000
  H   H23       1.0  0.9319105537990424  0.0506546602918831  0.2817335770090211  1.0000
  H   H24       1.0  0.07753474829137727  0.6838821148836799  0.1015635155433543  1.0000
  C   C1        1.0  0.30751514092472826  0.3655055512376251  0.9793940352450152  1.0000
  C   C2        1.0  0.241025293218904  0.45575940730527986  0.9783482072602894  1.0000
  C   C3        1.0  0.3103939934338484  0.5028045548391943  0.978514113398262  1.0000
  C   C4        1.0  0.4208848113922344  0.4420809730751926  0.9794418987955921  1.0000
  C   C5        1.0  0.8150753307568125  0.546401209032517  0.9985840582724491  1.0000
  C   C6        1.0  0.875334221952741  0.45687261733721846  0.009782736313184071  1.0000
  C   C7        1.0  0.8073148337070178  0.40925052201325235  0.008113612765754391  1.0000
  C   C8        1.0  0.7041438965376443  0.4691562426461288  0.9951541208521207  1.0000
  C   C9        1.0  0.3052703186176725  0.959211468159822  0.3916523638935274  1.0000
  C   C10       1.0  0.23764538182618355  0.9616967643919239  0.4816570632050486  1.0000
  C   C11       1.0  0.31036844422437354  0.9547209117336946  0.5285570572740852  1.0000
  C   C12       1.0  0.4240686813733133  0.9478382154148619  0.46782528687354835  1.0000
  C   C13       1.0  0.8285205165725177  0.9409247546447402  0.5742614077122282  1.0000
  C   C14       1.0  0.9023904682960905  0.9309185673885737  0.4852651607438787  1.0000
  C   C15       1.0  0.8378326286053266  0.9254265150651975  0.436647981684942  1.0000
  C   C16       1.0  0.7224594418843965  0.9329773219494226  0.49522304779072357  1.0000
  C   C17       1.0  0.20570025885632495  0.1615222809259578  0.9900039427403939  1.0000
  C   C18       1.0  0.7202723687358913  0.9473523126249717  0.1866472064786604  1.0000
  C   C19       1.0  0.20388741979947864  0.9659095369790192  0.18837440310000642  1.0000
  C   C20       1.0  0.7177431334690354  0.15630487618699357  0.9746233606186152  1.0000
  C   C21       1.0  0.9225997706813017  0.9566151097811898  0.7749454162146989  1.0000
  C   C22       1.0  0.4199840140115755  0.7507207820649812  0.9717767218111888  1.0000
  C   C23       1.0  0.9227743504713501  0.7472052736861913  0.9889428352043481  1.0000
  C   C24       1.0  0.41497926121105894  0.9491028857126762  0.7775822823131406  1.0000
  C   C25       1.0  0.8525532062148784  0.9481348848034301  0.6470605526799816  1.0000
  C   C26       1.0  0.8801752404140113  0.9541321291690394  0.7078296557066895  1.0000
  C   C27       1.0  0.621578389756344  0.9454989604692798  0.6530490386535561  1.0000
  C   C28       1.0  0.5279008624480281  0.9465168593561871  0.7108167347638671  1.0000
  C   C29       1.0  0.5146112502053126  0.9484973963638196  0.3099571975972921  1.0000
  C   C30       1.0  0.6090012365483659  0.9461579735726955  0.2521777108046379  1.0000
  C   C31       1.0  0.27454157530002  0.9635451386462037  0.31920303875858747  1.0000
  C   C32       1.0  0.24481891426690086  0.9670685164462611  0.25695321422588074  1.0000
  C   C33       1.0  0.5283321434160443  0.9404476483867583  0.477842597549575  1.0000
  C   C34       1.0  0.6219281240085907  0.9349673401700896  0.4830968324384841  1.0000
  C   C35       1.0  0.8458453256754764  0.618522705828447  0.996257500824761  1.0000
  C   C36       1.0  0.8775254264042117  0.679549912886749  0.994464943114757  1.0000
  C   C37       1.0  0.5314420289457189  0.6845112386462446  0.9724119666958728  1.0000
  C   C38       1.0  0.6207418394306998  0.6270302954360292  0.9801909106396138  1.0000
  C   C39       1.0  0.6059763719442659  0.22247836109173855  0.9739844654932667  1.0000
  C   C40       1.0  0.5128492115969365  0.28295343894881597  0.9771213928899557  1.0000
  C   C41       1.0  0.2781317917858743  0.2926271899757111  0.9823508954436021  1.0000
  C   C42       1.0  0.24948554773388315  0.22957646004404347  0.9867094041773612  1.0000
  C   C43       1.0  0.5196243867155629  0.4525704253488031  0.9829032498023338  1.0000
  C   C44       1.0  0.6074451584050208  0.4582355929284815  0.9884925485172504  1.0000
  N   N1        1.0  0.419591248321538  0.357145250364198  0.9791237635499853  1.0000
  N   N2        1.0  0.7084468777413662  0.5540559592475702  0.9893961949734092  1.0000
  N   N3        1.0  0.42099501898627506  0.9506821195503079  0.38328356128374014  1.0000
  N   N4        1.0  0.7173037985716276  0.941639337718655  0.5803499128565336  1.0000
  O   O1        1.0  0.09715954031577215  0.18870764115315095  0.9944976957432702  1.0000
  O   O2        1.0  0.27745743643203713  0.08118458742977451  0.9872630671581106  1.0000
  O   O3        1.0  0.7979472402708226  0.9475560817226523  0.21610299903711905  1.0000
  O   O4        1.0  0.7317206943257946  0.9488825227157064  0.10689781602224006  1.0000
  O   O5        1.0  0.09416897675330192  0.9717985278709874  0.21462042108005625  1.0000
  O   O6        1.0  0.2778226411565683  0.9572691236009375  0.10927407847848505  1.0000
  O   O7        1.0  0.7988994440051654  0.18459578995357617  0.9667566611009947  1.0000
  O   O8        1.0  0.7252271879459542  0.07619174085402851  0.9844797018073025  1.0000
  O   O9        1.0  0.8703295220558331  0.2134293610814026  0.08523341537986787  1.0000
  O   O10       1.0  0.002044933123109216  0.19767732470630509  0.8623861702479161  1.0000
  O   O11       1.0  0.8739845202441786  0.05772516313749068  0.2547069763400314  1.0000
  O   O12       1.0  0.009521960629747566  0.8358873012525406  0.21845763773173138  1.0000
  O   O13       1.0  0.07748585798984212  0.024787909213074503  0.0531918106681672  1.0000
  O   O14       1.0  0.8642428345505309  0.05108340037341459  0.08156024172424739  1.0000
  O   O15       1.0  0.029514365778766087  0.9572815199013149  0.7468650562793898  1.0000
  O   O16       1.0  0.8536609392949259  0.9565621557738025  0.8546127564309814  1.0000
  O   O17       1.0  0.34352891008791187  0.7222883043667282  0.9678283639732471  1.0000
  O   O18       1.0  0.4057316322200817  0.8310351287471319  0.9768720851375506  1.0000
  O   O19       1.0  0.02813930316113288  0.720988991768131  0.9919099753437878  1.0000
  O   O20       1.0  0.8566917476394453  0.8266635622829452  0.9804649009984204  1.0000
  O   O21       1.0  0.3372518009606294  0.9471613087094398  0.7502783981524743  1.0000
  O   O22       1.0  0.403378638657344  0.9542501112077486  0.8571205597319178  1.0000
  O   O23       1.0  0.24814910853353223  0.8312479710810762  0.737072311874968  1.0000
  O   O24       1.0  0.12191138217169592  0.07477941401731407  0.745577940059377  1.0000
  O   O25       1.0  0.24581809268381954  0.7170872747242784  0.8561189118346917  1.0000
  O   O26       1.0  0.12918209394721467  0.7138985915434263  0.10069632265895478  1.0000
  O   O27       1.0  0.053780487243841296  0.8605233805262031  0.8871031061320379  1.0000
  O   O28       1.0  0.21427759789251846  0.8891479799453564  0.9126644902002641  1.0000
  O   O29       1.0  0.9828646583412565  0.022466458434777792  0.9168527866034067  1.0000
  O   O30       1.0  0.17431340489228836  0.8609130378214047  0.07401974128009664  1.0000
  O   O31       1.0  0.16890422042703082  0.05163102554868  0.8903018794279092  1.0000
  O   O32       1.0  0.986778745037114  0.8864177345678003  0.04805852860147287  1.0000
