data_image0
_chemical_formula_structural       Zr12H32C96Cl24O64
_chemical_formula_sum              "Zr12 H32 C96 Cl24 O64"
_cell_length_a       14.77491787788404
_cell_length_b       14.778426549894276
_cell_length_c       21.005921786241508
_cell_angle_alpha    90.04764853300358
_cell_angle_beta     89.98949682298378
_cell_angle_gamma    89.98946516938037

_space_group_name_H-M_alt    "P 1"
_space_group_IT_number       1

loop_
  _space_group_symop_operation_xyz
  'x, y, z'

loop_
  _atom_site_type_symbol
  _atom_site_label
  _atom_site_symmetry_multiplicity
  _atom_site_fract_x
  _atom_site_fract_y
  _atom_site_fract_z
  _atom_site_occupancy
  Zr  Zr1       1.0  0.3802712976510492  0.37913184248720466  0.5038748554240088  1.0000
  Zr  Zr2       1.0  0.6188343641511551  0.6181674360935002  0.49627679940474695  1.0000
  Zr  Zr3       1.0  0.503199238743953  0.5028094787757453  0.6193200995369496  1.0000
  Zr  Zr4       1.0  0.49533578524885513  0.4955784929421154  0.3806476771243581  1.0000
  Zr  Zr5       1.0  0.37938278547979104  0.6182519020126022  0.5000607707676323  1.0000
  Zr  Zr6       1.0  0.6187130980546983  0.3792258461843687  0.49964731715921573  1.0000
  Zr  Zr7       1.0  0.1231898543557506  0.8835810255690574  0.9994133192274433  1.0000
  Zr  Zr8       1.0  0.8770163320566269  0.11497804528094237  0.9996717965878049  1.0000
  Zr  Zr9       1.0  0.11587211886752871  0.12263588757623009  0.9958905319198622  1.0000
  Zr  Zr10      1.0  0.8844693813540802  0.8762482152600412  0.0034460225352291  1.0000
  Zr  Zr11      1.0  0.0038191144722504  0.003267824946142598  0.11897669422243949  1.0000
  Zr  Zr12      1.0  0.9963694490968891  0.9954504641632976  0.8802827004651663  1.0000
  H   H1        1.0  0.31455608266131924  0.5023354243498304  0.5973221742939714  1.0000
  H   H2        1.0  0.49634488799068793  0.6843082723957676  0.40359545565288374  1.0000
  H   H3        1.0  0.6904406037910745  0.502122423816715  0.5907629792664083  1.0000
  H   H4        1.0  0.49615821050215914  0.30775634769778276  0.40878421669436454  1.0000
  H   H5        1.0  0.1911079180552591  0.009114005532794097  0.09053383273296592  1.0000
  H   H6        1.0  0.8151315114069178  0.9960583748950922  0.09639415135318073  1.0000
  H   H7        1.0  0.9916458013470263  0.18452679604015287  0.9030591251390522  1.0000
  H   H8        1.0  0.004325378458865699  0.80841104616276  0.9082903982536196  1.0000
  H   H9        1.0  0.0941968798412631  0.6231381633832526  0.4592616745982667  1.0000
  H   H10       1.0  0.9040660094588232  0.3681314226894584  0.5305211920453987  1.0000
  H   H11       1.0  0.6249329484562621  0.09282254330314288  0.4639778653314864  1.0000
  H   H12       1.0  0.3770027499042926  0.9043527114145249  0.5500325204883226  1.0000
  H   H13       1.0  0.8771725180822614  0.1460535209277438  0.728928637093091  1.0000
  H   H14       1.0  0.6047705228825464  0.33104371853516296  0.7683164676446809  1.0000
  H   H15       1.0  0.10544999073650273  0.8323249547391997  0.26755005506601043  1.0000
  H   H16       1.0  0.39005095663380024  0.664381903620125  0.2323495325712557  1.0000
  H   H17       1.0  0.13773494226774832  0.8699942090402997  0.726516281618558  1.0000
  H   H18       1.0  0.3998117811476476  0.6729086981761013  0.7703373587063141  1.0000
  H   H19       1.0  0.8921853877744541  0.1652645843656798  0.2706229636962122  1.0000
  H   H20       1.0  0.6137813117950303  0.3399045904393531  0.22893386436468435  1.0000
  H   H21       1.0  0.7384772131804525  0.7232072854033118  0.1337958111552311  1.0000
  H   H22       1.0  0.7775589685931124  0.7568406232236596  0.3653178658978576  1.0000
  H   H23       1.0  0.28387422527905676  0.25021931290775257  0.8653195462943657  1.0000
  H   H24       1.0  0.2290376545863495  0.234973349228241  0.6343742086222974  1.0000
  H   H25       1.0  0.8334307069846004  0.8924322336503463  0.7326599269061591  1.0000
  H   H26       1.0  0.6507673296052447  0.6180439502475109  0.7687674064838603  1.0000
  H   H27       1.0  0.13785300172104092  0.13096556592325467  0.2683223644179975  1.0000
  H   H28       1.0  0.33136724588181476  0.3976043542200713  0.23214669479230574  1.0000
  H   H29       1.0  0.40107419568510483  0.8682744292581076  0.016438913572017107  1.0000
  H   H30       1.0  0.5991795430546462  0.12863830265565918  0.9721424821137463  1.0000
  H   H31       1.0  0.865014523270041  0.5959768094754521  0.9902727385653379  1.0000
  H   H32       1.0  0.13250265685478976  0.40258507324691806  0.0244452824944545  1.0000
  C   C1        1.0  0.1956907287602547  0.49357555506821876  0.5024007232246532  1.0000
  C   C2        1.0  0.5025903784936077  0.8021993225535553  0.49897792315934464  1.0000
  C   C3        1.0  0.8024096343807869  0.5010138112352038  0.49092260419033823  1.0000
  C   C4        1.0  0.49661774644484785  0.195263850682224  0.5094504874415904  1.0000
  C   C5        1.0  0.3592071057183404  0.3477689987918779  0.6571590615175043  1.0000
  C   C6        1.0  0.33725311804560226  0.35049317498525295  0.3523219746393239  1.0000
  C   C7        1.0  0.6494303516261724  0.6413423566019815  0.3428020137562627  1.0000
  C   C8        1.0  0.6492888153630005  0.6598270227863094  0.6480147298052829  1.0000
  C   C9        1.0  0.35744221678491067  0.665062844731615  0.6492509837915394  1.0000
  C   C10       1.0  0.6532446069335904  0.3445460627242268  0.6490785179680005  1.0000
  C   C11       1.0  0.6539066222086661  0.346904766253992  0.3499249255910827  1.0000
  C   C12       1.0  0.337169388776914  0.645290737885972  0.35044550034282207  1.0000
  C   C13       1.0  0.1589216830304565  0.851845185890653  0.1496503099238282  1.0000
  C   C14       1.0  0.849102666775636  0.15434976547806653  0.15005844626984552  1.0000
  C   C15       1.0  0.8337501420928036  0.139140131820092  0.8494544930173548  1.0000
  C   C16       1.0  0.1625806322746755  0.8561658067658154  0.8493017262425796  1.0000
  C   C17       1.0  0.3033183029517801  0.009518159545478997  0.9916198198345259  1.0000
  C   C18       1.0  0.007742679044120801  0.6961948441859672  0.0084724039006332  1.0000
  C   C19       1.0  0.6968312840643307  0.9887209720862056  0.0006228436471432  1.0000
  C   C20       1.0  0.9915377569283024  0.3027007125279724  0.9997807565802077  1.0000
  C   C21       1.0  0.14437377611254476  0.16710891944808987  0.14696245190854282  1.0000
  C   C22       1.0  0.14727763872639343  0.14464712321979778  0.8428361870056025  1.0000
  C   C23       1.0  0.8436498014217122  0.8438601065699484  0.8523056003198238  1.0000
  C   C24       1.0  0.8627014501974916  0.84355293487868  0.15646995734888242  1.0000
  C   C25       1.0  0.9036373530026368  0.501096124665139  0.4902305609290708  1.0000
  C   C26       1.0  0.09451977959151492  0.491023110138073  0.5002771189361256  1.0000
  C   C27       1.0  0.9581202679551384  0.5737829602431858  0.46971934141779303  1.0000
  C   C28       1.0  0.0401215892713012  0.4178182833416813  0.520217865910361  1.0000
  C   C29       1.0  0.051721172522107416  0.5675413751518619  0.47522411840077444  1.0000
  C   C30       1.0  0.9464117292781538  0.4239969159694608  0.5146573789601447  1.0000
  C   C31       1.0  0.5046728106141387  0.9032905491622926  0.501493824304646  1.0000
  C   C32       1.0  0.4965848407967429  0.09398834236709766  0.5114474133065343  1.0000
  C   C33       1.0  0.5754524531992901  0.9571780117513383  0.477202825440699  1.0000
  C   C34       1.0  0.4265475611482756  0.03999377416983659  0.5366728312781889  1.0000
  C   C35       1.0  0.5705604504566468  0.05091064851389858  0.4828061828858381  1.0000
  C   C36       1.0  0.43134075305739833  0.9462185105883447  0.531058994506232  1.0000
  C   C37       1.0  0.701081173585699  0.2887853435289784  0.6982685620001378  1.0000
  C   C38       1.0  0.7819852070324913  0.18978173378746985  0.7993677425816231  1.0000
  C   C39       1.0  0.778604064491276  0.23499870604965165  0.6872128184360876  1.0000
  C   C40       1.0  0.7039493795232517  0.24287807986888044  0.8101810045933819  1.0000
  C   C41       1.0  0.816948724311402  0.1867821923909858  0.7373863607552027  1.0000
  C   C42       1.0  0.6652169519872332  0.29060807756840734  0.7599540266231843  1.0000
  C   C43       1.0  0.2876593719317881  0.6984453641828097  0.300542621423233  1.0000
  C   C44       1.0  0.20811089126488716  0.7986188685218348  0.19956270972824094  1.0000
  C   C45       1.0  0.2069945637890171  0.7477831805126198  0.31035666314956967  1.0000
  C   C46       1.0  0.28978465856067  0.7508550514318981  0.19004659870530116  1.0000
  C   C47       1.0  0.16853488301433117  0.7957093612721378  0.2600892601890337  1.0000
  C   C48       1.0  0.3272110235950265  0.7013649783363505  0.2399394304358182  1.0000
  C   C49       1.0  0.3118999401095338  0.7239883363095456  0.6978398685534516  1.0000
  C   C50       1.0  0.22230227201180952  0.8146879622628802  0.7993388492919566  1.0000
  C   C51       1.0  0.23914643785887083  0.7836205042979144  0.6853193757360289  1.0000
  C   C52       1.0  0.3001205948912969  0.7615861068933468  0.8112425291803903  1.0000
  C   C53       1.0  0.19559186263952452  0.8263970955935988  0.7358999844784082  1.0000
  C   C54       1.0  0.34199953239816244  0.7165761449565264  0.7608936904564559  1.0000
  C   C55       1.0  0.7085465841803539  0.2986954378775266  0.300233186911278  1.0000
  C   C56       1.0  0.7969416465872854  0.2058235765904897  0.19943868737994563  1.0000
  C   C57       1.0  0.7887186030298708  0.2491869497731115  0.3118511806475582  1.0000
  C   C58       1.0  0.7171215390526909  0.2558584212633476  0.18772894611240795  1.0000
  C   C59       1.0  0.8307518513809242  0.20390779621073551  0.2617293319839078  1.0000
  C   C60       1.0  0.6751816827151558  0.30123230260183925  0.237857005199075  1.0000
  C   C61       1.0  0.7033373689278336  0.6892207085575492  0.2923772376135504  1.0000
  C   C62       1.0  0.8129329696812065  0.7910464336813302  0.20676457579649118  1.0000
  C   C63       1.0  0.6929082789737537  0.679362681630799  0.22589662353049533  1.0000
  C   C64       1.0  0.8244132772988094  0.7997012529332678  0.2732352485403382  1.0000
  C   C65       1.0  0.7471522157222594  0.7299992909769911  0.18499899520803353  1.0000
  C   C66       1.0  0.7696535525310324  0.74964389473741  0.3141007079641228  1.0000
  C   C67       1.0  0.3102333187181401  0.2944584151473251  0.7072253622259695  1.0000
  C   C68       1.0  0.2017559551541979  0.1917141679299448  0.7925182490739643  1.0000
  C   C69       1.0  0.32641738731486214  0.29787932294928504  0.7734004718607679  1.0000
  C   C70       1.0  0.1872188017105358  0.18627385955708312  0.7261915319267517  1.0000
  C   C71       1.0  0.2722059438094391  0.2472501246576896  0.8142485903987264  1.0000
  C   C72       1.0  0.2408616356040696  0.23762719267165971  0.6854350649517542  1.0000
  C   C73       1.0  0.6964937952084256  0.7131033937832072  0.6989948105001247  1.0000
  C   C74       1.0  0.7891128380253394  0.7962952808154213  0.8022059896310482  1.0000
  C   C75       1.0  0.7475323660720932  0.7926676945219313  0.6891870961051155  1.0000
  C   C76       1.0  0.7355677850510888  0.7185056198732764  0.8123547658716321  1.0000
  C   C77       1.0  0.7929470589056252  0.8319070052047975  0.740387405812733  1.0000
  C   C78       1.0  0.6909958011343066  0.6787167181712376  0.7610461760022958  1.0000
  C   C79       1.0  0.28123712406713963  0.3049881693300661  0.3020950034606784  1.0000
  C   C80       1.0  0.19035832807472272  0.22151210342890684  0.1980414850448398  1.0000
  C   C81       1.0  0.2242576420438525  0.22965580459384674  0.3122785211583548  1.0000
  C   C82       1.0  0.24475819490852052  0.29886683406612485  0.18830241065456485  1.0000
  C   C83       1.0  0.1805249647068479  0.18991396151169226  0.260579524641301  1.0000
  C   C84       1.0  0.28866211413379256  0.33864177792424505  0.23993380579636892  1.0000
  C   C85       1.0  0.5955382683288448  0.9891036032311715  0.998165444391887  1.0000
  C   C86       1.0  0.40467404209279323  0.008151197822542098  0.9911763214596621  1.0000
  C   C87       1.0  0.5387404893927866  0.914489304846306  0.0107189632174212  1.0000
  C   C88       1.0  0.4615124779005626  0.08261933060562397  0.9784518475379045  1.0000
  C   C89       1.0  0.4453452557175552  0.9253261326042476  0.0066393280798209015  1.0000
  C   C90       1.0  0.5549091287268196  0.07166993526512039  0.9821225172890211  1.0000
  C   C91       1.0  0.9909079932749165  0.40388982170662757  0.0036045828919882006  1.0000
  C   C92       1.0  0.007004545355080401  0.5948949545564445  0.010323218957843503  1.0000
  C   C93       1.0  0.9141097033019322  0.45934802864545077  0.9946797403863246  1.0000
  C   C94       1.0  0.08327198704489548  0.5393571514621982  0.0209004693013028  1.0000
  C   C95       1.0  0.9236966391470887  0.552951162003431  0.9981084203434282  1.0000
  C   C96       1.0  0.0738847850110247  0.4457739681030403  0.016910511918098305  1.0000
  Cl  Cl1       1.0  0.9161770999212918  0.6712587467383456  0.4355383289847694  1.0000
  Cl  Cl2       1.0  0.0819476952972167  0.3200542413585765  0.5543849958965268  1.0000
  Cl  Cl3       1.0  0.6679982041028013  0.9139328033510804  0.4370616817670979  1.0000
  Cl  Cl4       1.0  0.334855177559291  0.08378590077993656  0.5772434826335698  1.0000
  Cl  Cl5       1.0  0.8331520039197499  0.22611703811168124  0.6146952269719748  1.0000
  Cl  Cl6       1.0  0.6500673191773814  0.2529310192168239  0.8827503099564993  1.0000
  Cl  Cl7       1.0  0.1495835018676033  0.7525815018827017  0.38180640227797374  1.0000
  Cl  Cl8       1.0  0.3507679390789136  0.7521606526949539  0.1198818631737808  1.0000
  Cl  Cl9       1.0  0.19726679037538733  0.8073505512553111  0.6103744462561735  1.0000
  Cl  Cl10      1.0  0.34907893771388393  0.7486164995126074  0.8852670778243806  1.0000
  Cl  Cl11      1.0  0.8413523058190294  0.24238904552046844  0.38507895196460856  1.0000
  Cl  Cl12      1.0  0.6643063985838467  0.26306374598547677  0.11459128043504312  1.0000
  Cl  Cl13      1.0  0.6153339266913136  0.6080854149102063  0.1902522464174368  1.0000
  Cl  Cl14      1.0  0.9035160404188006  0.8692718913139287  0.3089709060677635  1.0000
  Cl  Cl15      1.0  0.4106889799292262  0.3615473296191566  0.8086113573705661  1.0000
  Cl  Cl16      1.0  0.1052094428024049  0.12007736468860487  0.6905222698379206  1.0000
  Cl  Cl17      1.0  0.756045151964358  0.8467489361212298  0.6166832968341893  1.0000
  Cl  Cl18      1.0  0.7228301114267097  0.6657552564296834  0.8851500983546998  1.0000
  Cl  Cl19      1.0  0.20653955175417593  0.18007702524313624  0.38556115764254884  1.0000
  Cl  Cl20      1.0  0.26161862854477397  0.34945743469975094  0.11524434834544912  1.0000
  Cl  Cl21      1.0  0.5772293804708257  0.8089127350881568  0.0332701530297399  1.0000
  Cl  Cl22      1.0  0.4229766700790805  0.18867846785523307  0.9572209060826395  1.0000
  Cl  Cl23      1.0  0.8074173083509637  0.41887836052450916  0.9771644908834463  1.0000
  Cl  Cl24      1.0  0.189202026357286  0.5803251788874702  0.040011654635058805  1.0000
  O   O1        1.0  0.23700389646533893  0.41796077476002563  0.5045476844671697  1.0000
  O   O2        1.0  0.5784790176520431  0.7612602102701089  0.49754238310189447  1.0000
  O   O3        1.0  0.7624434938687374  0.5774222248592054  0.49226766095466007  1.0000
  O   O4        1.0  0.42011308253374585  0.2350161320998296  0.5074114611946996  1.0000
  O   O5        1.0  0.4151555748087076  0.4087913423234894  0.6743594149469204  1.0000
  O   O6        1.0  0.3986480751082624  0.40461932615362867  0.3320057703449066  1.0000
  O   O7        1.0  0.5884316223186092  0.5852994833124255  0.32581576573427645  1.0000
  O   O8        1.0  0.5936312585671927  0.5994598177256164  0.6677403304757308  1.0000
  O   O9        1.0  0.3362519293500199  0.6772042469794498  0.5910537441981135  1.0000
  O   O10       1.0  0.670860568088706  0.32790951504429694  0.5908732005596492  1.0000
  O   O11       1.0  0.6688973172694829  0.3265572595949634  0.407924980743644  1.0000
  O   O12       1.0  0.3211985833445326  0.6642020315649546  0.4085818730628574  1.0000
  O   O13       1.0  0.5981112826084569  0.4047121579293815  0.6691564236572773  1.0000
  O   O14       1.0  0.5942380142680578  0.4029135247309766  0.3304716225246481  1.0000
  O   O15       1.0  0.3942707137523058  0.5867567964549776  0.33074974232176413  1.0000
  O   O16       1.0  0.41272862065167  0.6053645029946748  0.6695999041154295  1.0000
  O   O17       1.0  0.3387986133543706  0.3287362654878264  0.5996986254993787  1.0000
  O   O18       1.0  0.6686805023377431  0.6749543750077861  0.5901337455186495  1.0000
  O   O19       1.0  0.6686434437421627  0.6617447880158662  0.4003033928348643  1.0000
  O   O20       1.0  0.32191382570222526  0.33235710054363915  0.4103551061952261  1.0000
  O   O21       1.0  0.5737195415829675  0.23383372878763706  0.5067908772927723  1.0000
  O   O22       1.0  0.2332006922918808  0.5713462528831028  0.5011852223214462  1.0000
  O   O23       1.0  0.4249013264908968  0.7646768630430997  0.4991628613311719  1.0000
  O   O24       1.0  0.7637062839446997  0.4239168948380436  0.4928034301326107  1.0000
  O   O25       1.0  0.49689570487311846  0.3620858901748391  0.43468563368879387  1.0000
  O   O26       1.0  0.6360776016111984  0.5010092043772686  0.5649315469916729  1.0000
  O   O27       1.0  0.4965743231452038  0.631301731694499  0.4307608326007967  1.0000
  O   O28       1.0  0.36724972164647335  0.5013406145246789  0.5698090874308124  1.0000
  O   O29       1.0  0.5007975717089154  0.59958298524694  0.5479182447178772  1.0000
  O   O30       1.0  0.39855082255316177  0.4973463617909246  0.4522352274804434  1.0000
  O   O31       1.0  0.5967926683653318  0.49727257285403664  0.4486591045006136  1.0000
  O   O32       1.0  0.5012600694852338  0.4013174215527826  0.5511059253799361  1.0000
  O   O33       1.0  0.17643957866082624  0.8341220469498437  0.0916465286250059  1.0000
  O   O34       1.0  0.8308095203440831  0.17005424610211148  0.09193251872038392  1.0000
  O   O35       1.0  0.8182192102674435  0.15895868756177825  0.9074192465711876  1.0000
  O   O36       1.0  0.17684389878299103  0.8344432561246788  0.9070757752261116  1.0000
  O   O37       1.0  0.26245280471182036  0.08540588565320918  0.9922587908736064  1.0000
  O   O38       1.0  0.9299210290336647  0.7343512941394649  0.007879805082794202  1.0000
  O   O39       1.0  0.7381451036547871  0.9132050563794961  0.0028917041962799005  1.0000
  O   O40       1.0  0.06960288408670581  0.26537189627364904  0.9959572078627164  1.0000
  O   O41       1.0  0.09016407121251288  0.10550322532437659  0.1665790555558573  1.0000
  O   O42       1.0  0.0870803397049542  0.08793626200468907  0.8257673338702461  1.0000
  O   O43       1.0  0.903159645140967  0.8998560031833163  0.8319129441748957  1.0000
  O   O44       1.0  0.919008017397033  0.9042043221286631  0.17347975651450306  1.0000
  O   O45       1.0  0.16520936727057745  0.1665802699803649  0.9003171505811027  1.0000
  O   O46       1.0  0.8283666528219483  0.825919648417553  0.9104506587354425  1.0000
  O   O47       1.0  0.8423850417825989  0.8242379791387504  0.09893183558370573  1.0000
  O   O48       1.0  0.16347574447583216  0.18275863794627864  0.0890078505547436  1.0000
  O   O49       1.0  0.2649812091588615  0.9321311711153367  0.9933743519839242  1.0000
  O   O50       1.0  0.9164196285491001  0.26088968248124894  0.00039224215533550005  1.0000
  O   O51       1.0  0.7347079303063849  0.06644510868247269  0.00023091303543050005  1.0000
  O   O52       1.0  0.0831847273752047  0.7372216143533166  0.005439440094477301  1.0000
  O   O53       1.0  0.09909375986872249  0.9080148584102472  0.8299512326380524  1.0000
  O   O54       1.0  0.10202337606392581  0.9107607174562556  0.16929760878404215  1.0000
  O   O55       1.0  0.9083692033560312  0.09807540252155889  0.1699972749855121  1.0000
  O   O56       1.0  0.8923667310473746  0.08182079748799248  0.8299922601500215  1.0000
  O   O57       1.0  0.0024645482667012  0.8626278817611845  0.9342881136532528  1.0000
  O   O58       1.0  0.9935361669785508  0.13150518821426968  0.9301772606936755  1.0000
  O   O59       1.0  0.8680889076996152  0.9969069227357888  0.06914246590493892  1.0000
  O   O60       1.0  0.13674707859421184  0.006493888414695399  0.0647514690353432  1.0000
  O   O61       1.0  0.9986757958449106  0.09999568173297037  0.04756746084739662  1.0000
  O   O62       1.0  0.004980516656779301  0.9019401938889828  0.0506914050262921  1.0000
  O   O63       1.0  0.8995705529523691  0.9944648757367528  0.9516661696333486  1.0000
  O   O64       1.0  0.09761795418422992  0.0010195144406210995  0.9485437329384823  1.0000
