data_image0
_chemical_formula_structural       Zn2H32C56N8O12
_chemical_formula_sum              "Zn2 H32 C56 N8 O12"
_cell_length_a       16.488893651030622
_cell_length_b       17.79247274742417
_cell_length_c       23.78792181857433
_cell_angle_alpha    90.23900300863916
_cell_angle_beta     90.02845656919463
_cell_angle_gamma    89.91020254440737

_space_group_name_H-M_alt    "P 1"
_space_group_IT_number       1

loop_
  _space_group_symop_operation_xyz
  'x, y, z'

loop_
  _atom_site_type_symbol
  _atom_site_label
  _atom_site_symmetry_multiplicity
  _atom_site_fract_x
  _atom_site_fract_y
  _atom_site_fract_z
  _atom_site_occupancy
  Zn  Zn1       1.0  0.4155197289108584  0.5014464993115624  0.5018597657114441  1.0000
  Zn  Zn2       1.0  0.5826062672751959  0.5007725950264543  0.5019347195924266  1.0000
  H   H1        1.0  0.5614171476699781  0.6800722284988864  0.055627630747487396  1.0000
  H   H2        1.0  0.43879404418903073  0.31943917465579835  0.9479885001922879  1.0000
  H   H3        1.0  0.2858152182101534  0.5831594983116446  0.5631079648250006  1.0000
  H   H4        1.0  0.7102893811526981  0.4174195223649946  0.4410383222301276  1.0000
  H   H5        1.0  0.28824256435066786  0.4189008519066634  0.4398425000949187  1.0000
  H   H6        1.0  0.7124590127263345  0.5848975643479478  0.5619400102950819  1.0000
  H   H7        1.0  0.5614326100152027  0.6800940808978668  0.9493118698833029  1.0000
  H   H8        1.0  0.4387228005774872  0.3194089393785049  0.05431600478643619  1.0000
  H   H9        1.0  0.63005399165975  0.4971452184976997  0.7871155542147006  1.0000
  H   H10       1.0  0.6302493971222346  0.49651682455103713  0.21607145954028076  1.0000
  H   H11       1.0  0.6294662249030907  0.5000048599253618  0.68132424021244  1.0000
  H   H12       1.0  0.6299283095981494  0.4947128521554661  0.3220077743396387  1.0000
  H   H13       1.0  0.3697921913711681  0.5066540156831464  0.6815048234996438  1.0000
  H   H14       1.0  0.3703076998048473  0.5006999158999007  0.32220691457052186  1.0000
  H   H15       1.0  0.36943334829039287  0.5037253051180882  0.7873383185227351  1.0000
  H   H16       1.0  0.3696663088997241  0.5025123306673862  0.2162625237216176  1.0000
  H   H17       1.0  0.3674158142825732  0.26418791312582357  0.4837500131704502  1.0000
  H   H18       1.0  0.6291117511454728  0.7359978636670661  0.4846574550623257  1.0000
  H   H19       1.0  0.36911504985689436  0.7406740864015404  0.49212509116954095  1.0000
  H   H20       1.0  0.6276144044590949  0.26449776766552446  0.4889355305540376  1.0000
  H   H21       1.0  0.1331290961086964  0.5868136363446368  0.5649677436581441  1.0000
  H   H22       1.0  0.8629258393117069  0.4132153163108184  0.4369193161156558  1.0000
  H   H23       1.0  0.13557451597481673  0.4148175618582357  0.43566886257112697  1.0000
  H   H24       1.0  0.8650975872904212  0.5887114143905592  0.563533941095663  1.0000
  H   H25       1.0  0.3026338238792974  0.14615975598301387  0.45718077311374816  1.0000
  H   H26       1.0  0.3557478815621166  0.0663055349152799  0.44516057478436705  1.0000
  H   H27       1.0  0.6974775340759791  0.8551152232012882  0.46314947642481724  1.0000
  H   H28       1.0  0.646214670944225  0.9382889335828041  0.4609889050192065  1.0000
  H   H29       1.0  0.3055910743741208  0.8643289794103096  0.4982281209084574  1.0000
  H   H30       1.0  0.35947026132943444  0.9452881851927515  0.4947662664681188  1.0000
  H   H31       1.0  0.6951290143828784  0.14568858097553064  0.4638095671064446  1.0000
  H   H32       1.0  0.6425524290051213  0.06428363688333859  0.4560252665565938  1.0000
  C   C1        1.0  0.4981612404391242  0.6480795836963793  0.4952659821082363  1.0000
  C   C2        1.0  0.49726391413899745  0.35401587091780573  0.4976492570088735  1.0000
  C   C3        1.0  0.5733339884674961  0.4992639475704407  0.7636208604800455  1.0000
  C   C4        1.0  0.573629347537171  0.4970281626546295  0.23970012498737245  1.0000
  C   C5        1.0  0.5730713053540483  0.5010827981560695  0.7051233174145536  1.0000
  C   C6        1.0  0.5735321669396284  0.4960486354702598  0.29818203416236594  1.0000
  C   C7        1.0  0.4996211375912905  0.5040706180078233  0.675582927620347  1.0000
  C   C8        1.0  0.5001401330116053  0.4970914813293774  0.3277929678926411  1.0000
  C   C9        1.0  0.4262493212770763  0.5049302856429777  0.7052434388006148  1.0000
  C   C10       1.0  0.4266274886243764  0.4995078280652833  0.29832221076839716  1.0000
  C   C11       1.0  0.4260866850059273  0.503307302723414  0.7637582301712127  1.0000
  C   C12       1.0  0.4263350855079366  0.50071689185463  0.23983073230392182  1.0000
  C   C13       1.0  0.4997678605685749  0.5006044751055256  0.7924993606123818  1.0000
  C   C14       1.0  0.49992682435693336  0.49926119467980373  0.2110061812197088  1.0000
  C   C15       1.0  0.4236884395186706  0.154715568806516  0.4730353824645305  1.0000
  C   C16       1.0  0.5754025506754629  0.846925525921094  0.47784898503167017  1.0000
  C   C17       1.0  0.4261440930687284  0.8497590781874109  0.48288269952143975  1.0000
  C   C18       1.0  0.5729320169190331  0.15499424560452008  0.47625804390263926  1.0000
  C   C19       1.0  0.4239567619698121  0.23247282459235658  0.48152613781591913  1.0000
  C   C20       1.0  0.5733019356636575  0.7688326519177622  0.4835551640768684  1.0000
  C   C21       1.0  0.4258178721038561  0.7715622532812247  0.48809487664352236  1.0000
  C   C22       1.0  0.5715105444182597  0.232749284060084  0.4843841306272123  1.0000
  C   C23       1.0  0.4974600327221381  0.27082302254453344  0.48787269849505305  1.0000
  C   C24       1.0  0.49901507040804916  0.731722713180048  0.48855009514593906  1.0000
  C   C25       1.0  0.49855715297849207  0.11474301474853375  0.4721313705775214  1.0000
  C   C26       1.0  0.5013600145379866  0.8882633214128929  0.4768424493916326  1.0000
  C   C27       1.0  0.4996580949739382  0.5054431784211104  0.6124609648998883  1.0000
  C   C28       1.0  0.5003571953812908  0.4964066531260584  0.39087335070041  1.0000
  C   C29       1.0  0.4995116810209907  0.0358136393397146  0.46926636243423286  1.0000
  C   C30       1.0  0.5017609952500948  0.966882689205896  0.4715754086574434  1.0000
  C   C31       1.0  0.1651986788715618  0.5489101853535131  0.5366332065536098  1.0000
  C   C32       1.0  0.8318458237767885  0.4519010226781219  0.4651991371603044  1.0000
  C   C33       1.0  0.1665924148220768  0.45279123652557035  0.4644693893376512  1.0000
  C   C34       1.0  0.8330543031751886  0.549919169601992  0.5359041501778066  1.0000
  C   C35       1.0  0.2493560646024946  0.5471743604524024  0.5358326472457619  1.0000
  C   C36       1.0  0.7477470353189943  0.4538817001616806  0.4672891949607417  1.0000
  C   C37       1.0  0.2506953205119444  0.4547957999009141  0.4665092879084226  1.0000
  C   C38       1.0  0.7489027633246792  0.5480798010860966  0.5352271088706357  1.0000
  C   C39       1.0  0.12192137175252779  0.5007272313832517  0.5002552953355631  1.0000
  C   C40       1.0  0.8764396862310234  0.5007644954028477  0.50025803201369  1.0000
  C   C41       1.0  0.03615813520160319  0.5005465684823278  0.49981209649052244  1.0000
  C   C42       1.0  0.9622198370268649  0.5005720052420273  0.4997939728418287  1.0000
  C   C43       1.0  0.477054625903456  0.4322984999058761  0.12302715098079625  1.0000
  C   C44       1.0  0.5228732643553754  0.5672894994834226  0.8805782060688401  1.0000
  C   C45       1.0  0.5228634778636163  0.5669926305809483  0.12358457030669706  1.0000
  C   C46       1.0  0.47724270988489786  0.4325828546006393  0.8799858846043589  1.0000
  C   C47       1.0  0.5225885662135212  0.5658045131514413  0.061228098425630186  1.0000
  C   C48       1.0  0.4776201909251299  0.4337136304926473  0.9423834246079391  1.0000
  C   C49       1.0  0.5000479415304682  0.49974884302419303  0.03177139583257119  1.0000
  C   C50       1.0  0.5001232125933868  0.4997749527612214  0.9718477036828542  1.0000
  C   C51       1.0  0.477446178321756  0.43362962230693813  0.06069124034301858  1.0000
  C   C52       1.0  0.5226710088309191  0.5658801427421167  0.9429173090017497  1.0000
  C   C53       1.0  0.5444436056952995  0.6300081964910973  0.031833053437608796  1.0000
  C   C54       1.0  0.45577304012200404  0.36950262938371736  0.9717729875457335  1.0000
  C   C55       1.0  0.5444798797544479  0.6300336885030616  0.9727925770573618  1.0000
  C   C56       1.0  0.4557149625112301  0.36945243324181126  0.030823910260153294  1.0000
  N   N1        1.0  0.49979914792457697  0.4996436232116466  0.15032796645800764  1.0000
  N   N2        1.0  0.5000279835177324  0.5000016947380885  0.8532178258286293  1.0000
  N   N3        1.0  0.29106157152212825  0.5010639777120217  0.501471360548578  1.0000
  N   N4        1.0  0.7072347525380349  0.5009254827780012  0.5016630009722434  1.0000
  N   N5        1.0  0.35154531203262007  0.1146759672435564  0.46793251653274115  1.0000
  N   N6        1.0  0.6485181818105444  0.8850666745475735  0.4759441582129255  1.0000
  N   N7        1.0  0.3544736389429488  0.8909020699740182  0.48185535634125637  1.0000
  N   N8        1.0  0.645548109368029  0.11554729914762162  0.47476064801436  1.0000
  O   O1        1.0  0.4291889032952625  0.6158672446332006  0.4977529485880509  1.0000
  O   O2        1.0  0.5660240944899755  0.3865760389835201  0.5011686927966394  1.0000
  O   O3        1.0  0.4285613718296517  0.38665821725502525  0.5016291205025567  1.0000
  O   O4        1.0  0.5666656708052286  0.6147950087044406  0.4979900242241511  1.0000
  O   O5        1.0  0.4308759668183626  0.5065586971433474  0.588036331644723  1.0000
  O   O6        1.0  0.5692922753722697  0.4962720518454732  0.41503641286612225  1.0000
  O   O7        1.0  0.4315868917000216  0.4962995449814187  0.4152309973665921  1.0000
  O   O8        1.0  0.5685254295369759  0.5049860561335321  0.5882007320470989  1.0000
  O   O9        1.0  0.45839682475447313  0.3762801843179772  0.15012091236911826  1.0000
  O   O10       1.0  0.5414449175666789  0.6233675161526975  0.8535459573356474  1.0000
  O   O11       1.0  0.541755632958008  0.6228382677191959  0.15113959783010955  1.0000
  O   O12       1.0  0.45844459522619724  0.37670682969026364  0.8524471879723307  1.0000
