data_image0
_chemical_formula_structural       Zn2H32C34N8O8
_chemical_formula_sum              "Zn2 H32 C34 N8 O8"
_cell_length_a       9.018579112276882
_cell_length_b       10.340591637612432
_cell_length_c       11.169577556229434
_cell_angle_alpha    82.81786570682364
_cell_angle_beta     87.27302261310433
_cell_angle_gamma    75.9141361458212

_space_group_name_H-M_alt    "P 1"
_space_group_IT_number       1

loop_
  _space_group_symop_operation_xyz
  'x, y, z'

loop_
  _atom_site_type_symbol
  _atom_site_label
  _atom_site_symmetry_multiplicity
  _atom_site_fract_x
  _atom_site_fract_y
  _atom_site_fract_z
  _atom_site_occupancy
  Zn  Zn1       1.0  0.12440422522918482  0.3956804218749569  0.18884252443951507  1.0000
  Zn  Zn2       1.0  0.8755960890348932  0.6043210530723614  0.8111572144259754  1.0000
  H   H1        1.0  0.7517622515853972  0.19384196022527084  0.1095064051569352  1.0000
  H   H2        1.0  0.24823472319479117  0.8061595278611339  0.8904952441443613  1.0000
  H   H3        1.0  0.17048872087128322  0.9017660745955215  0.1996205200762091  1.0000
  H   H4        1.0  0.8295119078723872  0.09823840478356521  0.8003788730398328  1.0000
  H   H5        1.0  0.7782255082211122  0.7724358130799801  0.10355920145489958  1.0000
  H   H6        1.0  0.22177618393506293  0.22756465065184986  0.8964405998887344  1.0000
  H   H7        1.0  0.6282908361088034  0.0095194001251002  0.0756146670094822  1.0000
  H   H8        1.0  0.3717086319694332  0.9904810782140817  0.9243852134916607  1.0000
  H   H9        1.0  0.19863647196083886  0.5705954384054338  0.946479919341833  1.0000
  H   H10       1.0  0.8013637970437559  0.42940203697025947  0.053518475630461596  1.0000
  H   H11       1.0  0.43693674937161825  0.1910354143515605  0.11017983392063971  1.0000
  H   H12       1.0  0.5630646266214683  0.8089620405625342  0.8898212090222231  1.0000
  H   H13       1.0  0.6000108734599437  0.26663354205569334  0.901153679800899  1.0000
  H   H14       1.0  0.39999023668001854  0.7333649167702135  0.0988472610850621  1.0000
  H   H15       1.0  0.5701967292063443  0.5115638348527369  0.783647168596147  1.0000
  H   H16       1.0  0.42980353811475414  0.48843363613698193  0.21635212222592057  1.0000
  H   H17       1.0  0.382060969346199  0.6192262721417167  0.782213891997479  1.0000
  H   H18       1.0  0.617937652546189  0.38077320958933575  0.21778613013931644  1.0000
  H   H19       1.0  0.4707374295210585  0.34891611906166997  0.6776289842388863  1.0000
  H   H20       1.0  0.529261461591453  0.6510823675295117  0.3223693482552576  1.0000
  H   H21       1.0  0.4684690283253659  0.5047750130996533  0.5915585032628387  1.0000
  H   H22       1.0  0.5315309731426155  0.4952234618018851  0.4084406855023275  1.0000
  H   H23       1.0  0.1853439108826791  0.4412515080489285  0.7298597791702263  1.0000
  H   H24       1.0  0.8146564050648949  0.5587499712843638  0.270139063845491  1.0000
  H   H25       1.0  0.189454429356509  0.5858673810306244  0.6286718056478406  1.0000
  H   H26       1.0  0.8105458882745609  0.4141341026886424  0.3713261415181037  1.0000
  H   H27       1.0  0.19706257944760344  0.5641765351542817  0.3973917832169461  1.0000
  H   H28       1.0  0.8029382698897083  0.4358229407413673  0.6026063680628013  1.0000
  H   H29       1.0  0.21740756213656445  0.2135916990608636  0.6443874801196542  1.0000
  H   H30       1.0  0.7825930179806377  0.7864087719746424  0.35561236080273767  1.0000
  H   H31       1.0  0.1759834235226663  0.16019204729698805  0.40976919078220664  1.0000
  H   H32       1.0  0.8240187986562689  0.8398064042252429  0.5902317105250035  1.0000
  C   C1        1.0  0.8152790514448753  0.08925563948965733  0.1231304618876266  1.0000
  C   C2        1.0  0.18471765748218874  0.9107468525085594  0.8768710853567683  1.0000
  C   C3        1.0  0.9686098505058994  0.05899071456751411  0.1575870786940285  1.0000
  C   C4        1.0  0.03138744043737774  0.9410137823366256  0.8424133290080391  1.0000
  C   C5        1.0  0.05130360203474277  0.9250701416386636  0.17327612805179626  1.0000
  C   C6        1.0  0.9486959096194808  0.0749343318861762  0.8267259921923227  1.0000
  C   C7        1.0  0.982986818645912  0.8215963382243886  0.1550888457070201  1.0000
  C   C8        1.0  0.017012375161733886  0.17840512209673426  0.8449154119860935  1.0000
  C   C9        1.0  0.8299648869825802  0.8530425599669799  0.1201287518344571  1.0000
  C   C10       1.0  0.1700356864006523  0.1469578935246291  0.8798746724870341  1.0000
  C   C11       1.0  0.7466046126452285  0.9864125379234636  0.1043474585438844  1.0000
  C   C12       1.0  0.2533948537495121  0.013587936029750804  0.8956533178070315  1.0000
  C   C13       1.0  0.07474451954374933  0.678853365478844  0.17412538566676258  1.0000
  C   C14       1.0  0.925257751261654  0.32114909438696776  0.8258750678341045  1.0000
  C   C15       1.0  0.04866575532205529  0.16581898438013104  0.1763722586943572  1.0000
  C   C16       1.0  0.9513318014743462  0.8341845086121965  0.8236282510646121  1.0000
  C   C17       1.0  0.2855656722000218  0.4775764373833697  0.965769843077169  1.0000
  C   C18       1.0  0.7144345951210839  0.5224210336063493  0.034229447744898805  1.0000
  C   C19       1.0  0.4142361308340625  0.2805374032946943  0.0455826913870041  1.0000
  C   C20       1.0  0.5857649809893885  0.7194610599171869  0.954417353649191  1.0000
  C   C21       1.0  0.49295366990842393  0.3145571719225232  0.9428771826786573  1.0000
  C   C22       1.0  0.5070479753047721  0.6854392878517075  0.05712217062156101  1.0000
  C   C23       1.0  0.44795916785554346  0.5149246334196819  0.7817065282864207  1.0000
  C   C24       1.0  0.552041101149058  0.4850728419560186  0.21829186668587397  1.0000
  C   C25       1.0  0.4148783938764353  0.45672951043328425  0.6696356796650917  1.0000
  C   C26       1.0  0.5851218768116553  0.5432679693283832  0.3303618194574298  1.0000
  C   C27       1.0  0.24389248697058005  0.47858701994928776  0.6491934070001761  1.0000
  C   C28       1.0  0.7561072486442766  0.521412458864056  0.3508056797080954  1.0000
  C   C29       1.0  0.19598943804683694  0.4616238783701124  0.43252688943164225  1.0000
  C   C30       1.0  0.8040114096069928  0.5383755931395627  0.5674721576978712  1.0000
  C   C31       1.0  0.20744614597600022  0.2764222610289694  0.5584823606851116  1.0000
  C   C32       1.0  0.7925497201322003  0.7235792431330524  0.4415175364953896  1.0000
  C   C33       1.0  0.18532183642853542  0.25158522254640303  0.4435665926681196  1.0000
  C   C34       1.0  0.8146803874338887  0.7484132333618023  0.5564334127893177  1.0000
  N   N1        1.0  0.28575007757340387  0.3831324875472789  0.058765071819202305  1.0000
  N   N2        1.0  0.7142499255780733  0.6168659917402266  0.9412332210961907  1.0000
  N   N3        1.0  0.40942738088487823  0.4393385138597239  0.8936055839136118  1.0000
  N   N4        1.0  0.5905742643283247  0.5606579459145069  0.10639376938659946  1.0000
  N   N5        1.0  0.21360713036387577  0.4096543652557187  0.549848513640825  1.0000
  N   N6        1.0  0.7863920735447323  0.5903471213812566  0.45015036895364346  1.0000
  N   N7        1.0  0.1783406012389861  0.36796756682728937  0.3657586463060838  1.0000
  N   N8        1.0  0.821660512267961  0.6320309007705661  0.6342405028803312  1.0000
  O   O1        1.0  0.003290668809078951  0.587665284294218  0.15815745469037518  1.0000
  O   O2        1.0  0.9967132440580502  0.41233515605831167  0.84184405919531  1.0000
  O   O3        1.0  0.21170210463218808  0.6543403863863093  0.20543263887516616  1.0000
  O   O4        1.0  0.7882990507672575  0.34566207201122273  0.7945696459039907  1.0000
  O   O5        1.0  0.968083491037589  0.289734095873918  0.1661533127701773  1.0000
  O   O6        1.0  0.031915443650909564  0.7102683859029143  0.8338472594669425  1.0000
  O   O7        1.0  0.1879922188980885  0.1343326594371277  0.2015848612265358  1.0000
  O   O8        1.0  0.8120059215980221  0.8656728428470972  0.7984136131403402  1.0000
