data_image0
_chemical_formula_structural       Zn2H34C56N2O10
_chemical_formula_sum              "Zn2 H34 C56 N2 O10"
_cell_length_a       16.165874967253767
_cell_length_b       16.496032084208217
_cell_length_c       17.82069976105884
_cell_angle_alpha    90.11534248160328
_cell_angle_beta     89.68099078768236
_cell_angle_gamma    90.06634559295448

_space_group_name_H-M_alt    "P 1"
_space_group_IT_number       1

loop_
  _space_group_symop_operation_xyz
  'x, y, z'

loop_
  _atom_site_type_symbol
  _atom_site_label
  _atom_site_symmetry_multiplicity
  _atom_site_fract_x
  _atom_site_fract_y
  _atom_site_fract_z
  _atom_site_occupancy
  Zn  Zn1       1.0  0.5055957669692646  0.5840913038376173  0.49999157439879127  1.0000
  Zn  Zn2       1.0  0.5025149287977655  0.41538333595138976  0.499995253098426  1.0000
  H   H1        1.0  0.9515750851740634  0.42161383896733895  0.3936779308065183  1.0000
  H   H2        1.0  0.0561249338806675  0.5791437683390158  0.6062172277475355  1.0000
  H   H3        1.0  0.4049895689565162  0.7104259620986612  0.5721965234870721  1.0000
  H   H4        1.0  0.6019893084966624  0.28644476244698314  0.4281260449320071  1.0000
  H   H5        1.0  0.3975193500233445  0.8629948743542569  0.5758343692279269  1.0000
  H   H6        1.0  0.6046844140642733  0.13378053418865218  0.4237336460827804  1.0000
  H   H7        1.0  0.4625573962394682  0.6306047621540003  0.877663458955183  1.0000
  H   H8        1.0  0.4605720003927516  0.3692847690575861  0.12314090253788379  1.0000
  H   H9        1.0  0.4825861670154836  0.6298137957281894  0.7382214360707804  1.0000
  H   H10       1.0  0.4792643734610849  0.37038679330832736  0.2625612832910065  1.0000
  H   H11       1.0  0.48230905246231964  0.370017217099857  0.7377475010903254  1.0000
  H   H12       1.0  0.4799525951058925  0.6301667871383644  0.26256919630630177  1.0000
  H   H13       1.0  0.4622999046130474  0.3692169322912804  0.8771896182817257  1.0000
  H   H14       1.0  0.4608668486240219  0.6307213144895342  0.1231736036322033  1.0000
  H   H15       1.0  0.6081070542353757  0.8666738304590426  0.4247133838646348  1.0000
  H   H16       1.0  0.3936380361272356  0.13542560518813224  0.5743668946142577  1.0000
  H   H17       1.0  0.606947285617359  0.7139807381373727  0.42892614205279495  1.0000
  H   H18       1.0  0.399213939849318  0.2880557860683624  0.5704849524371198  1.0000
  H   H19       1.0  0.9752990526335381  0.6378054020402929  0.3369674898889556  1.0000
  H   H20       1.0  0.9741425491316703  0.5363821372913621  0.2998554325306627  1.0000
  H   H21       1.0  0.05092889141545949  0.6073959544018309  0.268234913478075  1.0000
  H   H22       1.0  0.03404289061004559  0.464293278856637  0.6998668719589815  1.0000
  H   H23       1.0  0.032668113986304106  0.3628743464898889  0.6627089746064596  1.0000
  H   H24       1.0  0.9573247944945251  0.39330648096429854  0.7316757335237085  1.0000
  H   H25       1.0  0.9211974206425566  0.2980680072458881  0.5110913838184885  1.0000
  H   H26       1.0  0.9496602496510744  0.1510857887733152  0.5237347767766919  1.0000
  H   H27       1.0  0.09512860814463411  0.10153970969427209  0.5309811688169643  1.0000
  H   H28       1.0  0.2115450206009655  0.20069294520580877  0.5252290583999937  1.0000
  H   H29       1.0  0.18326466534959707  0.3476271191536924  0.5132146146411997  1.0000
  H   H30       1.0  0.08498245536275559  0.7046771265422793  0.4888102074585134  1.0000
  H   H31       1.0  0.0538968860711719  0.8511677543808176  0.47637377346543985  1.0000
  H   H32       1.0  0.907631805572599  0.8983494461347875  0.4694279994672428  1.0000
  H   H33       1.0  0.792893384923424  0.7971847326081374  0.47513384533203856  1.0000
  H   H34       1.0  0.8238790889068639  0.650774871932768  0.4867620790746016  1.0000
  C   C1        1.0  0.4948769739529269  0.5004734893863585  0.35347080104115486  1.0000
  C   C2        1.0  0.49691880168350616  0.4999150497282444  0.6467224896931469  1.0000
  C   C3        1.0  0.47784541658695184  0.5733037076090997  0.7694996731751046  1.0000
  C   C4        1.0  0.47556554684256  0.4268070179092476  0.231086205212037  1.0000
  C   C5        1.0  0.4840650466743242  0.4999156583921265  0.729986923527754  1.0000
  C   C6        1.0  0.4820769608680067  0.5002948869803349  0.2703510335920924  1.0000
  C   C7        1.0  0.4776944694841845  0.42652885925136275  0.7692328420067298  1.0000
  C   C8        1.0  0.47592917010157265  0.5736232666521631  0.23109030835625788  1.0000
  C   C9        1.0  0.4665557497259982  0.42618796785277624  0.8465391247476147  1.0000
  C   C10       1.0  0.4651654025733265  0.5738038401463899  0.15385441949016604  1.0000
  C   C11       1.0  0.461750135493709  0.4999035867781884  0.886824640183441  1.0000
  C   C12       1.0  0.4606331381683971  0.4999895302482218  0.11372690193132935  1.0000
  C   C13       1.0  0.45547736760876484  0.49989521004376053  0.9660076917892795  1.0000
  C   C14       1.0  0.45510943243107255  0.4998937800331833  0.03455407830680459  1.0000
  C   C15       1.0  0.5623563252313984  0.8342214527031758  0.45822319012622603  1.0000
  C   C16       1.0  0.4404418289666339  0.16667169252333738  0.5410695703728976  1.0000
  C   C17       1.0  0.561914915514663  0.7501319284528949  0.4601474566037425  1.0000
  C   C18       1.0  0.44338111841900474  0.25072569381451615  0.5394618080913673  1.0000
  C   C19       1.0  0.4486036209621814  0.7482133265011655  0.541072630139638  1.0000
  C   C20       1.0  0.5570619629429173  0.2498393993055999  0.45895413256743467  1.0000
  C   C21       1.0  0.444683760526793  0.8322164958915791  0.5425797079322691  1.0000
  C   C22       1.0  0.5584174150737553  0.16577392044462158  0.4570453854663299  1.0000
  C   C23       1.0  0.6662106434541499  0.4975415298906043  0.4962345554856781  1.0000
  C   C24       1.0  0.341170150724956  0.5012286769783998  0.5034959147395737  1.0000
  C   C25       1.0  0.5025108746487419  0.87709446765642  0.5002021739707274  1.0000
  C   C26       1.0  0.4991802042217444  0.1223366073532119  0.49914115306224  1.0000
  C   C27       1.0  0.5006247143715113  0.9627561114166455  0.4997742458851846  1.0000
  C   C28       1.0  0.49930856372154153  0.036635321386661694  0.49947336269664083  1.0000
  C   C29       1.0  0.0347954100619106  0.5319443943963833  0.4359518011620834  1.0000
  C   C30       1.0  0.97281047369259  0.46885547834181546  0.5639745761764272  1.0000
  C   C31       1.0  0.9753866247355629  0.45710279700442413  0.4407583611220786  1.0000
  C   C32       1.0  0.0322075509315596  0.5436970274458447  0.5591461706700256  1.0000
  C   C33       1.0  0.7555642640322019  0.49725353544042133  0.4958985532006465  1.0000
  C   C34       1.0  0.2518926346086516  0.5020600097161749  0.5038445275417587  1.0000
  C   C35       1.0  0.9780941242001545  0.5806039841176301  0.494621431288543  1.0000
  C   C36       1.0  0.0294344736019099  0.420182373882156  0.5052934078725002  1.0000
  C   C37       1.0  0.9182982664945243  0.5039162187255429  0.4983760854878552  1.0000
  C   C38       1.0  0.08920879954741419  0.4967785444626218  0.501528076312205  1.0000
  C   C39       1.0  0.8308180545366638  0.5013845406876027  0.4970118187270601  1.0000
  C   C40       1.0  0.1766315064372534  0.49883051999945843  0.5028269834218903  1.0000
  C   C41       1.0  0.4666954734489437  0.5736265913122339  0.8468083124206058  1.0000
  C   C42       1.0  0.4649528265724499  0.4263313756807747  0.1538334701364903  1.0000
  C   C43       1.0  0.014049500729207397  0.5874795010156715  0.3165367874972275  1.0000
  C   C44       1.0  0.9940404545328861  0.41323338806255094  0.6832734114983977  1.0000
  C   C45       1.0  0.05026295969230429  0.3331900153212359  0.5113011948045807  1.0000
  C   C46       1.0  0.9849667639702699  0.2766077257593906  0.5140681500305603  1.0000
  C   C47       1.0  0.0010128363616175  0.1940122015204508  0.5213325224532142  1.0000
  C   C48       1.0  0.08258759790545869  0.1662135483343192  0.5255347867888034  1.0000
  C   C49       1.0  0.1476691123789351  0.2218628679562045  0.5224818799986011  1.0000
  C   C50       1.0  0.1319520162359282  0.30479093921056216  0.515581623180715  1.0000
  C   C51       1.0  0.9564987029644598  0.6674116600970238  0.4886502660044343  1.0000
  C   C52       1.0  0.020833709807988  0.7250279134173924  0.48590210956476193  1.0000
  C   C53       1.0  0.003314477017582399  0.8073741711344198  0.47878623952888677  1.0000
  C   C54       1.0  0.9212702635111681  0.8338845342920038  0.47473623093236483  1.0000
  C   C55       1.0  0.8571549972851784  0.7771690935103733  0.47773325554003776  1.0000
  C   C56       1.0  0.8743691594825194  0.6945307787801269  0.48445033140362875  1.0000
  N   N1        1.0  0.50605074651817  0.7081544785255787  0.5006666043720642  1.0000
  N   N2        1.0  0.5006970700507408  0.2913069976403975  0.4993848175783526  1.0000
  O   O1        1.0  0.5019549887059327  0.569255067955595  0.3855779758508078  1.0000
  O   O2        1.0  0.5016882564796531  0.43111244039968  0.6142383676606542  1.0000
  O   O3        1.0  0.49750468265555264  0.4317491317837324  0.3860206994306523  1.0000
  O   O4        1.0  0.5018169633784736  0.5686697746591423  0.6144218162787352  1.0000
  O   O5        1.0  0.6320334579784727  0.5672146494802489  0.4973455399787383  1.0000
  O   O6        1.0  0.37498271018760226  0.4314344313126456  0.5043769830403447  1.0000
  O   O7        1.0  0.6299068535509775  0.4289779134715276  0.4956373245242176  1.0000
  O   O8        1.0  0.3776500879332758  0.5696796534159391  0.5021278742194892  1.0000
  O   O9        1.0  0.07206131686066189  0.5627249881045983  0.37285037890488576  1.0000
  O   O10       1.0  0.935781286020237  0.4380645903655775  0.6271790078807199  1.0000
