data_image0
_chemical_formula_structural       Zn8H48C60O32
_chemical_formula_sum              "Zn8 H48 C60 O32"
_cell_length_a       15.955092358599876
_cell_length_b       16.637761279010643
_cell_length_c       17.206856873984645
_cell_angle_alpha    89.83348745138231
_cell_angle_beta     115.6822420342622
_cell_angle_gamma    119.93688568465325

_space_group_name_H-M_alt    "P 1"
_space_group_IT_number       1

loop_
  _space_group_symop_operation_xyz
  'x, y, z'

loop_
  _atom_site_type_symbol
  _atom_site_label
  _atom_site_symmetry_multiplicity
  _atom_site_fract_x
  _atom_site_fract_y
  _atom_site_fract_z
  _atom_site_occupancy
  Zn  Zn1       1.0  0.0995747846256165  0.038917660333758895  0.9766508429924561  1.0000
  Zn  Zn2       1.0  0.08922746918485562  0.04435512055565031  0.14888255327503694  1.0000
  Zn  Zn3       1.0  0.9244408794879959  0.8416396460900373  0.9901348513253584  1.0000
  Zn  Zn4       1.0  0.8849926447497227  0.0160002666675325  0.9664592248372871  1.0000
  Zn  Zn5       1.0  0.8734912402387351  0.4284807911621229  0.5608344996966039  1.0000
  Zn  Zn6       1.0  0.9161590015847667  0.4453607263920107  0.3927700071729634  1.0000
  Zn  Zn7       1.0  0.06105803522237347  0.4065136987146118  0.5670412998129493  1.0000
  Zn  Zn8       1.0  0.09567088510984688  0.6128055915679198  0.5828208023721901  1.0000
  H   H1        1.0  0.3565346656878035  0.28184583549880676  0.22831557957019305  1.0000
  H   H2        1.0  0.47700511024255837  0.3875483220194909  0.23495483079125287  1.0000
  H   H3        1.0  0.40409636744395544  0.27704531180447134  0.15202563827123336  1.0000
  H   H4        1.0  0.6867145271146953  0.1397606364572894  0.35024603266287363  1.0000
  H   H5        1.0  0.5662024645812025  0.9685194929968263  0.19351306051912337  1.0000
  H   H6        1.0  0.4405999757975395  0.8925829870673001  0.19600192515677875  1.0000
  H   H7        1.0  0.5715616429932029  0.9519769335366705  0.29684342314289586  1.0000
  H   H8        1.0  0.34321523986010055  0.9731482273039875  0.14106383357390237  1.0000
  H   H9        1.0  0.09846673107512068  0.7788612241715144  0.9337870079170119  1.0000
  H   H10       1.0  0.1847073806746452  0.7651595124845231  0.9014514828793171  1.0000
  H   H11       1.0  0.1592945992298239  0.8578801794322358  0.8754812394111512  1.0000
  H   H12       1.0  0.8014217215941032  0.664386735330389  0.5085363346710283  1.0000
  H   H13       1.0  0.7919449739280895  0.8413803775550834  0.48456727128159865  1.0000
  H   H14       1.0  0.7189743939515625  0.8332616794811261  0.5412951597516058  1.0000
  H   H15       1.0  0.6733869495475133  0.7287700291613248  0.46599490370294216  1.0000
  H   H16       1.0  0.8606085762380928  0.8810091061450152  0.6979140431019604  1.0000
  H   H17       1.0  0.8607448008743078  0.054551900105892094  0.755420305535431  1.0000
  H   H18       1.0  0.8712731707658818  0.07354263899334511  0.6562647996181641  1.0000
  H   H19       1.0  0.9946525524678052  0.11490761219678092  0.7618178512948149  1.0000
  H   H20       1.0  0.14899873235737  0.5151088504667385  0.8469666930560323  1.0000
  H   H21       1.0  0.355873839945275  0.5734436547613981  0.006855476453026179  1.0000
  H   H22       1.0  0.3205493525687189  0.5209739043226591  0.08697027619518857  1.0000
  H   H23       1.0  0.2636934452569265  0.5857257345780627  0.02910595688259589  1.0000
  H   H24       1.0  0.2076417491891789  0.34886061952359887  0.031055760454791012  1.0000
  H   H25       1.0  0.8319007233139717  0.7011098592338884  0.1354718696777369  1.0000
  H   H26       1.0  0.7791523500384089  0.6737259810827896  0.21178115931676444  1.0000
  H   H27       1.0  0.8930956965282064  0.7934312211957391  0.23357503289238934  1.0000
  H   H28       1.0  0.26811925808701176  0.7569882398123582  0.45014444323029323  1.0000
  H   H29       1.0  0.4417178453480943  0.9282687194588775  0.47125865079127055  1.0000
  H   H30       1.0  0.42662345651471884  0.966156907781695  0.37192524347668876  1.0000
  H   H31       1.0  0.4221020495302881  0.8578129646156115  0.38040940410388674  1.0000
  H   H32       1.0  0.24599318583156568  0.9285006918084308  0.2649343277686926  1.0000
  H   H33       1.0  0.12700108755670675  0.3694358159258969  0.3456537526334601  1.0000
  H   H34       1.0  0.1283209607395435  0.3989975093514886  0.24565083234255525  1.0000
  H   H35       1.0  0.03442000405711101  0.402793483623455  0.2744861848595762  1.0000
  H   H36       1.0  0.8773765094875189  0.12983470118059162  0.41828652223062335  1.0000
  H   H37       1.0  0.8320036533692629  0.9051797909275832  0.35653070582440455  1.0000
  H   H38       1.0  0.7000874079781809  0.8878860789072505  0.2892564128178492  1.0000
  H   H39       1.0  0.786298194535263  0.9603485653065534  0.40206755075633555  1.0000
  H   H40       1.0  0.8247795859567403  0.9519698556767651  0.19948132045238512  1.0000
  H   H41       1.0  0.5948627716701438  0.8788998242539778  0.8943505847902319  1.0000
  H   H42       1.0  0.49988156937395445  0.8078021829505249  0.9329336736108547  1.0000
  H   H43       1.0  0.6035808803978142  0.7863669225697549  0.9446726122302069  1.0000
  H   H44       1.0  0.34799424137820983  0.5425735798251454  0.563050159626471  1.0000
  H   H45       1.0  0.63005233278826  0.61217618762047  0.602055751347173  1.0000
  H   H46       1.0  0.5314464600958148  0.6281648417635709  0.5155920132598981  1.0000
  H   H47       1.0  0.48607022766757524  0.5173055635613082  0.5440375138167541  1.0000
  H   H48       1.0  0.7017504987625713  0.7277231524395875  0.7372920797154878  1.0000
  C   C1        1.0  0.4302728799697705  0.3087561893283848  0.22090010905846216  1.0000
  C   C2        1.0  0.49988068584576695  0.20546310526838601  0.2670841809891798  1.0000
  C   C3        1.0  0.6006576105768247  0.21160423849330107  0.31846228038169505  1.0000
  C   C4        1.0  0.6073155598183676  0.13236704391162143  0.3085427350724928  1.0000
  C   C5        1.0  0.5153436225942443  0.0447518831622773  0.24434868344167884  1.0000
  C   C6        1.0  0.5236441850934455  0.9599319683439944  0.2320027490599515  1.0000
  C   C7        1.0  0.41682910709670296  0.039916936079023906  0.191796070501276  1.0000
  C   C8        1.0  0.406299847060005  0.11753868592589363  0.20348201386747183  1.0000
  C   C9        1.0  0.2915288548614043  0.09598776691163381  0.14962360369737132  1.0000
  C   C10       1.0  0.7044153125394104  0.306094669857231  0.38219268882775037  1.0000
  C   C11       1.0  0.12296004218565312  0.7839465522687304  0.8824557037493295  1.0000
  C   C12       1.0  0.9643601234932575  0.7399845247759343  0.7366001315166032  1.0000
  C   C13       1.0  0.9137114234022974  0.6905524480289531  0.6466178712079513  1.0000
  C   C14       1.0  0.840951773869854  0.7060721001999328  0.5770655195537133  1.0000
  C   C15       1.0  0.8212269739191457  0.7757053834270239  0.5934006302289989  1.0000
  C   C16       1.0  0.7473710960870007  0.7958003035412061  0.5175091376412767  1.0000
  C   C17       1.0  0.8741954254786748  0.8264978925474509  0.6822464536388112  1.0000
  C   C18       1.0  0.9422974123530922  0.8078059701862375  0.7541763074622808  1.0000
  C   C19       1.0  0.9814245960975327  0.8601678332384851  0.8454476086241132  1.0000
  C   C20       1.0  0.9407164161392032  0.6232095945352542  0.6230178380386777  1.0000
  C   C21       1.0  0.9118641683842555  0.10399786338641091  0.7286706187601268  1.0000
  C   C22       1.0  0.0091060642445413  0.2706391961671955  0.810987979637247  1.0000
  C   C23       1.0  0.04116947756060091  0.3614185950116209  0.7942677108336584  1.0000
  C   C24       1.0  0.12757616530565496  0.44617366239452144  0.8627192844512097  1.0000
  C   C25       1.0  0.19029056424668067  0.4439815926883244  0.9493516264417041  1.0000
  C   C26       1.0  0.28753330362280144  0.5357162261128536  0.021968251909932256  1.0000
  C   C27       1.0  0.1608059886170565  0.3539276126299811  0.9647452095432671  1.0000
  C   C28       1.0  0.06933534676482371  0.26752316742162213  0.8980663359662702  1.0000
  C   C29       1.0  0.040733357649720886  0.1769445954944757  0.9263309073359595  1.0000
  C   C30       1.0  0.9915544528299735  0.3678035851003188  0.700003372908377  1.0000
  C   C31       1.0  0.8543405180880016  0.7161776316448538  0.2062004271023667  1.0000
  C   C32       1.0  0.036654412828695956  0.7398748718024563  0.284627959352065  1.0000
  C   C33       1.0  0.10399901308829833  0.719867028820083  0.35673621274573025  1.0000
  C   C34       1.0  0.21935650555717254  0.7732005855445011  0.3929356265771419  1.0000
  C   C35       1.0  0.27300485647383965  0.8474061775138182  0.35943490554763013  1.0000
  C   C36       1.0  0.39735242568844603  0.9030948415954188  0.3977277933140331  1.0000
  C   C37       1.0  0.2065303559521681  0.8685341843920042  0.2903618917844356  1.0000
  C   C38       1.0  0.08980744073015494  0.816071436682016  0.25186670526145605  1.0000
  C   C39       1.0  0.03595374351574073  0.8519536216254835  0.17857951279896167  1.0000
  C   C40       1.0  0.05638790311986953  0.6449796256052381  0.40058991594594334  1.0000
  C   C41       1.0  0.07547050508056695  0.3655896892850026  0.27590802670840026  1.0000
  C   C42       1.0  0.9461562160927957  0.1957720996387522  0.2567251053919436  1.0000
  C   C43       1.0  0.9322611549297835  0.20390240328079304  0.33102003559322674  1.0000
  C   C44       1.0  0.8827527855711281  0.12059806371442512  0.3582135061305038  1.0000
  C   C45       1.0  0.8405215459425078  0.02901240665244839  0.3115054343395798  1.0000
  C   C46       1.0  0.7868695410607816  0.9411767771295914  0.3414078645125473  1.0000
  C   C47       1.0  0.8530594185815659  0.0218585973168075  0.23655510975606123  1.0000
  C   C48       1.0  0.9076384365729667  0.10355178634052462  0.21145667464698178  1.0000
  C   C49       1.0  0.938275597966353  0.09264199196572058  0.14316091748288076  1.0000
  C   C50       1.0  0.9634129398410495  0.2941623638276313  0.38541876883927983  1.0000
  C   C51       1.0  0.5467197183542466  0.807019398519401  0.9018516742725711  1.0000
  C   C52       1.0  0.4930717564879075  0.7100426722229116  0.7628901220231512  1.0000
  C   C53       1.0  0.40220935279786124  0.6367520830469788  0.6825909137170358  1.0000
  C   C54       1.0  0.420685534414865  0.6001316423081704  0.6232057771034507  1.0000
  C   C55       1.0  0.5278606447169454  0.6337186577543223  0.6392860685395123  1.0000
  C   C56       1.0  0.5451345729764229  0.5958104708907329  0.5721351828609188  1.0000
  C   C57       1.0  0.6167172859465424  0.7027043506149084  0.7202153209057658  1.0000
  C   C58       1.0  0.60172821135189  0.7417288426907546  0.7817772182221036  1.0000
  C   C59       1.0  0.7096851290844557  0.8153232697998336  0.8637935359689453  1.0000
  C   C60       1.0  0.28261172453645134  0.5923588580794927  0.6562580970217767  1.0000
  O   O1        1.0  0.9937403109195985  0.9805834826117137  0.020629258024712414  1.0000
  O   O2        1.0  0.5060471708933606  0.2884315940815371  0.28550907446416574  1.0000
  O   O3        1.0  0.24967180008070503  0.11202127859086632  0.19170425124310245  1.0000
  O   O4        1.0  0.24142663638586734  0.058009547061104214  0.06546363389905001  1.0000
  O   O5        1.0  0.7532194803835209  0.368614436809125  0.3479313752448192  1.0000
  O   O6        1.0  0.7367243326303594  0.3139142791598105  0.4653821203435912  1.0000
  O   O7        1.0  0.02987165870835189  0.7153891674192466  0.7984008366532864  1.0000
  O   O8        1.0  0.9561518279724269  0.8105543192810173  0.8976989698876853  1.0000
  O   O9        1.0  0.03358299750069453  0.9520099108177007  0.861693343599022  1.0000
  O   O10       1.0  0.04152504085548955  0.6601101429952861  0.6422932985020396  1.0000
  O   O11       1.0  0.8591566249038466  0.5359363703274057  0.582220129194802  1.0000
  O   O12       1.0  0.9205228763644444  0.19380140893005662  0.7387433554192884  1.0000
  O   O13       1.0  0.9420089914672829  0.12255080152766602  0.9137737042065697  1.0000
  O   O14       1.0  0.1196728674698306  0.16319616201857207  0.9636242712453582  1.0000
  O   O15       1.0  0.015505925848536646  0.33862398294877494  0.6490071631096158  1.0000
  O   O16       1.0  0.9348982332378171  0.4054412782172179  0.6793734791113551  1.0000
  O   O17       1.0  0.9259440396302026  0.685935732081731  0.25828513070713655  1.0000
  O   O18       1.0  0.9785559992869965  0.7996862808120612  0.09763210004177855  1.0000
  O   O19       1.0  0.05846142401995992  0.9356049708874609  0.203728262892625  1.0000
  O   O20       1.0  0.10273259449342483  0.6745708980743005  0.48529877015278106  1.0000
  O   O21       1.0  0.9780041961737069  0.558907107420346  0.35113961957402756  1.0000
  O   O22       1.0  0.9952677685700667  0.26745135487939115  0.22230754923396034  1.0000
  O   O23       1.0  0.8607810165585549  0.04950360982336831  0.06185567591698057  1.0000
  O   O24       1.0  0.04099095315916661  0.12341373025660832  0.17411582038972284  1.0000
  O   O25       1.0  0.01911094589237901  0.30969931524177247  0.4701004206752303  1.0000
  O   O26       1.0  0.9282790258401974  0.34438473063315916  0.3447871677741504  1.0000
  O   O27       1.0  0.46412032742130555  0.7368234516238064  0.8167965108108961  1.0000
  O   O28       1.0  0.7440555827028206  0.903947141965766  0.8696782774605583  1.0000
  O   O29       1.0  0.7618317146286488  0.7826139402250906  0.9178898463978772  1.0000
  O   O30       1.0  0.22231523845810136  0.5003589568596711  0.6278490758869781  1.0000
  O   O31       1.0  0.24889648590628613  0.6468395954299596  0.6594962349297263  1.0000
  O   O32       1.0  0.9870209210633049  0.4746413281427807  0.5234222344301216  1.0000
