data_image0
_chemical_formula_structural       Ca2H32C32N20O12
_chemical_formula_sum              "Ca2 H32 C32 N20 O12"
_cell_length_a       4.794476926813114
_cell_length_b       15.26069122514194
_cell_length_c       16.205202314732283
_cell_angle_alpha    116.86108785275069
_cell_angle_beta     98.49608107297328
_cell_angle_gamma    89.99282003980002

_space_group_name_H-M_alt    "P 1"
_space_group_IT_number       1

loop_
  _space_group_symop_operation_xyz
  'x, y, z'

loop_
  _atom_site_type_symbol
  _atom_site_label
  _atom_site_symmetry_multiplicity
  _atom_site_fract_x
  _atom_site_fract_y
  _atom_site_fract_z
  _atom_site_occupancy
  Ca  Ca1       1.0  0.9999995656701727  0.5000000448561224  0.9999996099292972  1.0000
  Ca  Ca2       1.0  7.03323358698627e-07  8.10053648999369e-07  0.9999994749948229  1.0000
  H   H1        1.0  0.557658944331486  0.36178529907273577  0.8868058330750941  1.0000
  H   H2        1.0  0.6704077180045545  0.1381676139417038  0.11308353075446578  1.0000
  H   H3        1.0  0.4423411682830436  0.6382142696157163  0.11319284153824338  1.0000
  H   H4        1.0  0.32959030288023433  0.8618319725117232  0.886916296005765  1.0000
  H   H5        1.0  0.7720866945593344  0.3334959444759704  0.8120385592860799  1.0000
  H   H6        1.0  0.9594840157708833  0.16640641049313837  0.187889986904068  1.0000
  H   H7        1.0  0.22791796551138796  0.6665051190331754  0.18796216431827878  1.0000
  H   H8        1.0  0.04051399640627548  0.8335931664256222  0.8121092183875618  1.0000
  H   H9        1.0  0.226945743889452  0.43548184052598066  0.1663866943363388  1.0000
  H   H10       1.0  0.0606573680763915  0.06463486113352701  0.8336372172871551  1.0000
  H   H11       1.0  0.7730479028298732  0.5645170067474085  0.8336126386066737  1.0000
  H   H12       1.0  0.9393386821235622  0.9353654415175472  0.1663615879821876  1.0000
  H   H13       1.0  0.3071884921009059  0.31011480359699567  0.10897917980287267  1.0000
  H   H14       1.0  0.19834242278904676  0.18995646909970526  0.8910654036369721  1.0000
  H   H15       1.0  0.6928074109312379  0.6898847720174145  0.8910199346984554  1.0000
  H   H16       1.0  0.8016534628278223  0.8100430874453793  0.10893246792716836  1.0000
  H   H17       1.0  0.26941804751551507  0.4579646954148374  0.4790171946703481  1.0000
  H   H18       1.0  0.7901137107921843  0.042056720037251694  0.5206781852606142  1.0000
  H   H19       1.0  0.7305759022470683  0.5420356154665528  0.5209821412772868  1.0000
  H   H20       1.0  0.2098909492785381  0.957944343471894  0.4793225383437374  1.0000
  H   H21       1.0  0.6647720848773419  0.3757318132802397  0.5293387320803974  1.0000
  H   H22       1.0  0.1355363988139686  0.12423718778263998  0.4704754528669071  1.0000
  H   H23       1.0  0.3352239914455311  0.6242685179748336  0.4706619375947411  1.0000
  H   H24       1.0  0.8644617692386305  0.8757631257074581  0.5295240646613381  1.0000
  H   H25       1.0  0.7434778564600892  0.20056683740988757  0.41723194371199673  1.0000
  H   H26       1.0  0.32701431164318256  0.299254107297287  0.5827344728435548  1.0000
  H   H27       1.0  0.25652242073752524  0.7994334773845609  0.5827676646065427  1.0000
  H   H28       1.0  0.6729859655544317  0.7007462074971613  0.4172651354749917  1.0000
  H   H29       1.0  0.43373463406059193  0.11921510805640882  0.26091654261186653  1.0000
  H   H30       1.0  0.17351861993631698  0.38054049960874886  0.7391031877660197  1.0000
  H   H31       1.0  0.5662676051142201  0.8807844810057194  0.7390834657289675  1.0000
  H   H32       1.0  0.8264818218443822  0.6194605612916889  0.260897354257729  1.0000
  C   C1        1.0  0.523055671545862  0.4080948025543734  0.07081066761464425  1.0000
  C   C2        1.0  0.452435446314361  0.0918383894911301  0.9291048669729776  1.0000
  C   C3        1.0  0.4769405345295398  0.591906236668031  0.9291884498913064  1.0000
  C   C4        1.0  0.5475607597610407  0.9081626497312811  0.07089425053298007  1.0000
  C   C5        1.0  0.39701161477621133  0.3866964841255225  0.1424782673310503  1.0000
  C   C6        1.0  0.2546905598284824  0.1133643990154667  0.857527934233822  1.0000
  C   C7        1.0  0.6029823436940022  0.613303836290534  0.8575216900851856  1.0000
  C   C8        1.0  0.7453075995164868  0.8866359049399649  0.14247096182582197  1.0000
  C   C9        1.0  0.9352795594614562  0.37954119251281077  0.3078916497982647  1.0000
  C   C10       1.0  0.6274011077248361  0.12034789803176692  0.6919499318360282  1.0000
  C   C11       1.0  0.0647207003208834  0.6204591032123049  0.692106715583087  1.0000
  C   C12       1.0  0.3726094295698489  0.8796509787457653  0.3080513703665986  1.0000
  C   C13       1.0  0.15880145002269336  0.333265094260483  0.34248696609422075  1.0000
  C   C14       1.0  0.8164325161171251  0.16661126149388392  0.6573483181597553  1.0000
  C   C15       1.0  0.8411986800071107  0.6667344934972949  0.6575129514563118  1.0000
  C   C16       1.0  0.1835738203028114  0.8333876317442803  0.34265404539946326  1.0000
  C   C17       1.0  0.3182620185432654  0.3840416955613222  0.43221545162277414  1.0000
  C   C18       1.0  0.8859519570583957  0.1159082172897357  0.567556134719716  1.0000
  C   C19       1.0  0.68173357273799  0.615956406910428  0.567783038405338  1.0000
  C   C20       1.0  0.11405224409362093  0.884090646040079  0.4324442736434052  1.0000
  C   C21       1.0  0.5335778784409727  0.3370065167834396  0.4602597072382579  1.0000
  C   C22       1.0  0.0734608500902993  0.16295419103158082  0.5395816676485055  1.0000
  C   C23       1.0  0.46641216478248293  0.6629952646319098  0.5397400716019973  1.0000
  C   C24       1.0  0.9265396003980373  0.8370468794035306  0.4604194958438442  1.0000
  C   C25       1.0  0.5791692655250175  0.2406483602555554  0.3985665270308729  1.0000
  C   C26       1.0  0.18112422923900345  0.25921927122374916  0.6013515948285786  1.0000
  C   C27       1.0  0.4208305701691657  0.7593497734288875  0.601434008983631  1.0000
  C   C28       1.0  0.8188802836639014  0.7407810652487329  0.39864943800776587  1.0000
  C   C29       1.0  0.4059754003856782  0.19468590121593374  0.3109757748965478  1.0000
  C   C30       1.0  0.09557568835859342  0.30513468825785145  0.6889833629163817  1.0000
  C   C31       1.0  0.5940227676669282  0.8053144122741573  0.6890237426316901  1.0000
  C   C32       1.0  0.9044328956665312  0.6948649237866604  0.3110181607325515  1.0000
  N   N1        1.0  0.7737503789456072  0.3332880929055052  0.22290053982084865  1.0000
  N   N2        1.0  0.5508847154890546  0.16667431579330133  0.776965964963523  1.0000
  N   N3        1.0  0.22624568866962147  0.666712228814902  0.7770995083856889  1.0000
  N   N4        1.0  0.44912386853606995  0.8333252962512105  0.2230355586854102  1.0000
  N   N5        1.0  0.6025310818850826  0.40161030640222617  0.22345634820481308  1.0000
  N   N6        1.0  0.37905356396160533  0.09842174233626372  0.7764801369748611  1.0000
  N   N7        1.0  0.3974648298546982  0.5983892787468436  0.7765433877651162  1.0000
  N   N8        1.0  0.620946410192751  0.9015771088501837  0.22351946833905598  1.0000
  N   N9        1.0  0.6510553525460808  0.48659262043099727  0.3027550164574961  1.0000
  N   N10       1.0  0.34822866955851595  0.013415486088447904  0.697195720207418  1.0000
  N   N11       1.0  0.3489447774837232  0.5134069673267803  0.6972449010930362  1.0000
  N   N12       1.0  0.6517734137408483  0.9865833664023502  0.30280397589680774  1.0000
  N   N13       1.0  0.8626407615263363  0.4734430804884866  0.3570843579742373  1.0000
  N   N14       1.0  0.5055041764759097  0.026481329316183605  0.6428094328176712  1.0000
  N   N15       1.0  0.1373595069636409  0.5265572247712953  0.6429146288757154  1.0000
  N   N16       1.0  0.49450439884157765  0.973518273193669  0.357191469362661  1.0000
  N   N17       1.0  0.20075367860366103  0.23967972207564975  0.28317137040100704  1.0000
  N   N18       1.0  0.9179837992604549  0.26012360576392274  0.7167328682825982  1.0000
  N   N19       1.0  0.7992444981565826  0.7603206009491078  0.7168287685958319  1.0000
  N   N20       1.0  0.08202658215878242  0.7398745344422794  0.2832681216834132  1.0000
  O   O1        1.0  0.7756379979088666  0.4430778600449088  0.09067388633606296  1.0000
  O   O2        1.0  0.6851424385996979  0.056788382778982814  0.9091642296484963  1.0000
  O   O3        1.0  0.2243585547479796  0.5569246904588212  0.9093283415174938  1.0000
  O   O4        1.0  0.3148557120376339  0.9432119116417823  0.09083404494254653  1.0000
  O   O5        1.0  0.35090657482430754  0.3887272720919271  0.9957339618580789  1.0000
  O   O6        1.0  0.35539533314253197  0.1111801406997373  0.0041966462481397935  1.0000
  O   O7        1.0  0.6490916019359361  0.6112730509328302  0.004266177138760008  1.0000
  O   O8        1.0  0.6446051086381671  0.8888209202007005  0.9958038957756088  1.0000
  O   O9        1.0  0.700550560511772  0.3894687724837809  0.865778992076244  1.0000
  O   O10       1.0  0.8342850978649212  0.11047946816409389  0.13412129601053382  1.0000
  O   O11       1.0  0.2994495608103946  0.6105308057393299  0.13422030400568716  1.0000
  O   O12       1.0  0.1657151706250559  0.889520837095688  0.8658776908394117  1.0000
