data_image0
_chemical_formula_structural       K2H30C38N4
_chemical_formula_sum              "K2 H30 C38 N4"
_cell_length_a       6.94694637106572
_cell_length_b       9.846978056114954
_cell_length_c       12.515343012594967
_cell_angle_alpha    113.20783054882452
_cell_angle_beta     89.99966479969729
_cell_angle_gamma    89.99976527144167

_space_group_name_H-M_alt    "P 1"
_space_group_IT_number       1

loop_
  _space_group_symop_operation_xyz
  'x, y, z'

loop_
  _atom_site_type_symbol
  _atom_site_label
  _atom_site_symmetry_multiplicity
  _atom_site_fract_x
  _atom_site_fract_y
  _atom_site_fract_z
  _atom_site_occupancy
  K   K1        1.0  0.6194207403322379  0.8945859165059674  0.9997962218129854  1.0000
  K   K2        1.0  0.1194248339889867  0.10540324062267808  0.00020260056700038666  1.0000
  H   H1        1.0  0.4947017333533736  0.08634221469054638  0.5508910978869465  1.0000
  H   H2        1.0  0.9946995126886334  0.9136668123527446  0.4491005448373783  1.0000
  H   H3        1.0  0.49546108759069796  0.5355532235175176  0.4493185906922505  1.0000
  H   H4        1.0  0.9954703271467622  0.4644580425752025  0.5506753176580759  1.0000
  H   H5        1.0  0.3072782238861437  0.26231297232639855  0.4906139823146842  1.0000
  H   H6        1.0  0.8072647951374351  0.7376958364332395  0.509373367958382  1.0000
  H   H7        1.0  0.3079273156600877  0.7718760805988011  0.5098294340470416  1.0000
  H   H8        1.0  0.8079414655896712  0.2281375451114585  0.4901785336714539  1.0000
  H   H9        1.0  0.19412052160358684  0.18653483459618764  0.2887947625072869  1.0000
  H   H10       1.0  0.6941086731838267  0.8134680245660277  0.7111951463574255  1.0000
  H   H11       1.0  0.1941650309471186  0.8976459620338845  0.7115499589770238  1.0000
  H   H12       1.0  0.6941807617319498  0.10235291209423279  0.2884595346269449  1.0000
  H   H13       1.0  0.44695999382678764  0.7563753596194474  0.20143086136173582  1.0000
  H   H14       1.0  0.9469676491825255  0.2436220164052187  0.798569427630248  1.0000
  H   H15       1.0  0.44634105383429556  0.5543553313373619  0.798393134852766  1.0000
  H   H16       1.0  0.9463371194023437  0.44563635671109114  0.2015974635957177  1.0000
  H   H17       1.0  0.5672157631699478  0.8349538912213177  0.4046007241669044  1.0000
  H   H18       1.0  0.06722422608620351  0.1650519794125458  0.5953968625586725  1.0000
  H   H19       1.0  0.5670027771273994  0.42990128484780843  0.5952705766385121  1.0000
  H   H20       1.0  0.06700536779842278  0.5700977574043263  0.404715378978146  1.0000
  H   H21       1.0  0.6779281223512613  0.491938591040963  0.0001716897462528732  1.0000
  H   H22       1.0  0.17793577281108236  0.5080636663562003  0.9998380658901166  1.0000
  H   H23       1.0  0.7887508339567474  0.6580634313167836  0.18378321620918564  1.0000
  H   H24       1.0  0.28875576834306566  0.3419349949821395  0.8162282544033843  1.0000
  H   H25       1.0  0.7881762612217572  0.47442226491845935  0.8165146944627892  1.0000
  H   H26       1.0  0.28818019546384477  0.5255750261551668  0.1834948401128642  1.0000
  H   H27       1.0  0.026528849944533302  0.8344041480866055  0.22844177190719253  1.0000
  H   H28       1.0  0.5265271801075642  0.16559108911893355  0.7715623467944893  1.0000
  H   H29       1.0  0.026147806205273096  0.605867276564851  0.7717842486076164  1.0000
  H   H30       1.0  0.52614098030827  0.39411694784349277  0.22821817544362227  1.0000
  C   C1        1.0  0.44303647061926915  0.05308560234077929  0.46190216842067844  1.0000
  C   C2        1.0  0.9430344830029753  0.946919310853218  0.5380899984665034  1.0000
  C   C3        1.0  0.44340013767649106  0.591114839943856  0.5382436140679728  1.0000
  C   C4        1.0  0.9434078303623538  0.40889787193888344  0.4617540808088094  1.0000
  C   C5        1.0  0.3386941394068401  0.15078265236046923  0.4280770163450711  1.0000
  C   C6        1.0  0.8386851211159441  0.8492249864417828  0.5719146835178603  1.0000
  C   C7        1.0  0.33907747519955933  0.7227309090710322  0.5722357840223465  1.0000
  C   C8        1.0  0.8390906210244394  0.2772814310954174  0.4277709057510889  1.0000
  C   C9        1.0  0.2744594953570498  0.10854373393794248  0.3137881778832535  1.0000
  C   C10       1.0  0.7744532487548385  0.8914598739012264  0.6862049080993841  1.0000
  C   C11       1.0  0.27452307531995507  0.7946257671097073  0.68646353356079  1.0000
  C   C12       1.0  0.7745379352908159  0.20537922930630975  0.31354355241563064  1.0000
  C   C13       1.0  0.3111412848883788  0.9654018922020171  0.23093924960280524  1.0000
  C   C14       1.0  0.8111375070903862  0.03459936299233849  0.7690554189432602  1.0000
  C   C15       1.0  0.3109301368272241  0.7341708755528913  0.7691694739169037  1.0000
  C   C16       1.0  0.8109398423971967  0.2658261787049979  0.23083432714650337  1.0000
  C   C17       1.0  0.4164351084717168  0.8670831825312888  0.2659161671501025  1.0000
  C   C18       1.0  0.9164398104727168  0.1329153754698638  0.7340805722576318  1.0000
  C   C19       1.0  0.41610498395446177  0.6007544450670466  0.7340290758595955  1.0000
  C   C20       1.0  0.9161020156401632  0.3992440645496059  0.26596525275500227  1.0000
  C   C21       1.0  0.4829570864581285  0.9111756581526651  0.3796342710589116  1.0000
  C   C22       1.0  0.9829532628153642  0.08882911171859578  0.6203609285317171  1.0000
  C   C23       1.0  0.4828876913119444  0.5312245308632768  0.6203273022235719  1.0000
  C   C24       1.0  0.9828959836230666  0.4687790676598242  0.3796643507546236  1.0000
  C   C25       1.0  0.7930317207241655  0.5668671830429728  0.00017231748712013826  1.0000
  C   C26       1.0  0.29303259840392576  0.43313455191541544  0.9998409289322792  1.0000
  C   C27       1.0  0.8602315719024672  0.6654115479874106  0.10833860730176771  1.0000
  C   C28       1.0  0.3602328059543752  0.33458862804824463  0.8916691746945062  1.0000
  C   C29       1.0  0.8599279845210502  0.557144615255055  0.8919620066671426  1.0000
  C   C30       1.0  0.35992461376847734  0.44284461443123757  0.10804729676123509  1.0000
  C   C31       1.0  0.0034575496287701005  0.7725550263045874  0.1354106858260238  1.0000
  C   C32       1.0  0.5034487071495874  0.22743705134661948  0.8645941559108437  1.0000
  C   C33       1.0  0.0031673045896667006  0.6371320556826631  0.8648243432557263  1.0000
  C   C34       1.0  0.5031703570259793  0.3628622498287656  0.13518196482699807  1.0000
  C   C35       1.0  0.1302041583619982  0.8176682302553218  0.0654044120438257  1.0000
  C   C36       1.0  0.6302134839857416  0.18232972539482972  0.9345978085107942  1.0000
  C   C37       1.0  0.13017058188091113  0.7521908504532815  0.9347590115521739  1.0000
  C   C38       1.0  0.6301664495840741  0.24779162115108022  0.06523777858708969  1.0000
  N   N1        1.0  0.2621838792303778  0.9218857319234102  0.11336198716565339  1.0000
  N   N2        1.0  0.76219434413337  0.0781048330374929  0.8866344267062231  1.0000
  N   N3        1.0  0.2621337139177485  0.8083667218374229  0.8867640662732509  1.0000
  N   N4        1.0  0.7621365482889573  0.19162946781608528  0.11323882482570007  1.0000
