data_image0
_chemical_formula_structural       Zn2H4C20N2Cl2O8
_chemical_formula_sum              "Zn2 H4 C20 N2 Cl2 O8"
_cell_length_a       12.722962643392526
_cell_length_b       14.010057171074687
_cell_length_c       14.009864467264844
_cell_angle_alpha    89.36583645166232
_cell_angle_beta     87.35799848380788
_cell_angle_gamma    87.3559983793324

_space_group_name_H-M_alt    "P 1"
_space_group_IT_number       1

loop_
  _space_group_symop_operation_xyz
  'x, y, z'

loop_
  _atom_site_type_symbol
  _atom_site_label
  _atom_site_symmetry_multiplicity
  _atom_site_fract_x
  _atom_site_fract_y
  _atom_site_fract_z
  _atom_site_occupancy
  Zn  Zn1       1.0  0.3918606216871225  0.4927288576358888  0.4927361968879963  1.0000
  Zn  Zn2       1.0  0.6081330216938384  0.5072637253818825  0.507271755346842  1.0000
  H   H1        1.0  0.3796130840682892  0.4935457557964468  0.015613831947163698  1.0000
  H   H2        1.0  0.6203920446493428  0.5064390746936311  0.9843928663555769  1.0000
  H   H3        1.0  0.6203889808155053  0.984399459058508  0.5064495319760525  1.0000
  H   H4        1.0  0.3796228886728059  0.015600444318323494  0.4935451814252899  1.0000
  C   C1        1.0  0.4665700111593266  0.6849591973632625  0.4978955895188832  1.0000
  C   C2        1.0  0.14239670861979903  0.47252571382232117  0.4725094039560033  1.0000
  C   C3        1.0  0.8575989085087414  0.5274947632755342  0.5274845254933637  1.0000
  C   C4        1.0  0.5431818577503407  0.5025614489353458  0.21190376559218285  1.0000
  C   C5        1.0  0.45679939498101163  0.4974488763687787  0.7880882327891  1.0000
  C   C6        1.0  0.45682155180843864  0.7880792564063764  0.49742869093402214  1.0000
  C   C7        1.0  0.543190230258773  0.211895619971024  0.5025620580351671  1.0000
  C   C8        1.0  0.5334466822042216  0.3150407572715535  0.5021052803418868  1.0000
  C   C9        1.0  0.5449060814702236  0.5024728723825189  0.024548520795470097  1.0000
  C   C10       1.0  0.45511086157088704  0.49751422445871185  0.9754667737490264  1.0000
  C   C11       1.0  0.4551099380268938  0.9754760547555889  0.49751544997383945  1.0000
  C   C12       1.0  0.5449128116331536  0.024527533497511897  0.5024843243945724  1.0000
  C   C13       1.0  0.4554209138506096  0.4973678507795326  0.8753020629271401  1.0000
  C   C14       1.0  0.533438928705806  0.5020772346022325  0.3150612028107672  1.0000
  C   C15       1.0  0.5445791902028105  0.5026333718157617  0.12470042540930848  1.0000
  C   C16       1.0  0.5445782063272518  0.12470331166213809  0.5026391961091008  1.0000
  C   C17       1.0  0.4554370750670317  0.8752923353803366  0.49735538135537627  1.0000
  C   C18       1.0  0.03138688739720409  0.4707619396206723  0.470737423216569  1.0000
  C   C19       1.0  0.96858560406298  0.5292704518891255  0.5292362240996764  1.0000
  C   C20       1.0  0.4665393606385421  0.49791377895728317  0.6849647538054879  1.0000
  N   N1        1.0  0.23349914750605189  0.47377328099361177  0.473759883392148  1.0000
  N   N2        1.0  0.7664976459479932  0.5262443558667228  0.5262468659515989  1.0000
  Cl  Cl1       1.0  0.018458404444807303  0.6064934858585571  0.6064508494096756  1.0000
  Cl  Cl2       1.0  0.9815289929779425  0.393542633524369  0.39353334585764077  1.0000
  O   O1        1.0  0.3822954882369843  0.6396629879443835  0.4936427354983407  1.0000
  O   O2        1.0  0.4397705401561894  0.35088366625776496  0.4973878400177653  1.0000
  O   O3        1.0  0.4397848759425926  0.4973495977383563  0.3508862825234971  1.0000
  O   O4        1.0  0.5602075450765441  0.5026358201682938  0.6491161164976373  1.0000
  O   O5        1.0  0.5602480632613478  0.6491120200305215  0.5026172605734516  1.0000
  O   O6        1.0  0.6177194504333132  0.36032837273330637  0.5063626226975372  1.0000
  O   O7        1.0  0.6177109693491261  0.5063217824451909  0.3603258443472725  1.0000
  O   O8        1.0  0.3822575837015521  0.4936541046925312  0.639673715428188  1.0000
