data_image0
_chemical_formula_structural       Na4H16C8N16O6
_chemical_formula_sum              "Na4 H16 C8 N16 O6"
_cell_length_a       7.72640115504749
_cell_length_b       8.891204353298157
_cell_length_c       8.891237979055214
_cell_angle_alpha    100.9542568442366
_cell_angle_beta     111.76950973818974
_cell_angle_gamma    111.76937159413131

_space_group_name_H-M_alt    "P 1"
_space_group_IT_number       1

loop_
  _space_group_symop_operation_xyz
  'x, y, z'

loop_
  _atom_site_type_symbol
  _atom_site_label
  _atom_site_symmetry_multiplicity
  _atom_site_fract_x
  _atom_site_fract_y
  _atom_site_fract_z
  _atom_site_occupancy
  Na  Na1       1.0  0.6009173316378594  0.8771565621467233  0.7198423293305609  1.0000
  Na  Na2       1.0  0.8990827170010148  0.28015672454145596  0.12284313247377548  1.0000
  Na  Na3       1.0  0.3990837847604638  0.12284283793636769  0.28015624275854384  1.0000
  Na  Na4       1.0  0.10091561130457913  0.71984266797741  0.8771556702046368  1.0000
  H   H1        1.0  0.6376878545062257  0.9100943704337328  0.05865133498326717  1.0000
  H   H2        1.0  0.8623109986498678  0.9413465810394682  0.08990126604457763  1.0000
  H   H3        1.0  0.3623087932510671  0.08989979053285417  0.9413447948519931  1.0000
  H   H4        1.0  0.1376887206439434  0.0586528193816491  0.9100957340918754  1.0000
  H   H5        1.0  0.1624397141266414  0.6666480872221213  0.551518926925759  1.0000
  H   H6        1.0  0.33756011737160924  0.448479287342387  0.3333513170564473  1.0000
  H   H7        1.0  0.8375607776385294  0.333352616882415  0.44848082165695047  1.0000
  H   H8        1.0  0.6624389813665843  0.5515214116066645  0.666649109236687  1.0000
  H   H9        1.0  0.18705932158042066  0.5479907731997145  0.6560235705107188  1.0000
  H   H10       1.0  0.31294151979171403  0.3439770548397263  0.45200975931502546  1.0000
  H   H11       1.0  0.8129417948179096  0.45200862688337645  0.3439750015783857  1.0000
  H   H12       1.0  0.6870589719734568  0.6560236492648102  0.5479899892676842  1.0000
  H   H13       1.0  0.5170573614189494  0.602092842630384  0.8793506176004513  1.0000
  H   H14       1.0  0.982948112358777  0.12065529876662139  0.3979063623840987  1.0000
  H   H15       1.0  0.482943623451341  0.3979039277737542  0.12065302820110456  1.0000
  H   H16       1.0  0.017053141683902737  0.8793467227551446  0.6020905104871731  1.0000
  C   C1        1.0  0.5077282395238002  0.35280790625171216  0.8187790420703182  1.0000
  C   C2        1.0  0.9922719106504515  0.18122530063508438  0.6472003485445512  1.0000
  C   C3        1.0  0.4922730206351957  0.6471941070297688  0.18122120529557148  1.0000
  C   C4        1.0  0.007735223409199054  0.8187819404378303  0.35280841235400123  1.0000
  C   C5        1.0  0.5066077164886451  0.49586969180332113  0.9260220776495202  1.0000
  C   C6        1.0  0.9933929110563894  0.0739775746566949  0.5041310250665987  1.0000
  C   C7        1.0  0.4933887977018331  0.504121842231072  0.07397800106665649  1.0000
  C   C8        1.0  0.006607093719971152  0.9260270549079619  0.4958682007918824  1.0000
  N   N1        1.0  0.5151420160138329  0.212485686545179  0.8518533388478247  1.0000
  N   N2        1.0  0.9848588101990927  0.1481477887495544  0.787513953311155  1.0000
  N   N3        1.0  0.4848591024232718  0.7875137107911526  0.14814635807282173  1.0000
  N   N4        1.0  0.015144615458247397  0.8518555333708449  0.21248836479058045  1.0000
  N   N5        1.0  0.5091730328313061  0.11560952077692829  0.7114070048143688  1.0000
  N   N6        1.0  0.9908280424737654  0.2885939311421524  0.8843896556076488  1.0000
  N   N7        1.0  0.49082668850127237  0.8843898768974299  0.28859112015361893  1.0000
  N   N8        1.0  0.009172595090838453  0.711409383414022  0.11561289308339451  1.0000
  N   N9        1.0  0.4989969975090816  0.3426985416070636  0.6622612229324574  1.0000
  N   N10       1.0  0.0010017255949961307  0.33773775972662884  0.6573025956214809  1.0000
  N   N11       1.0  0.5010027258622713  0.6573008533205353  0.33773802686707205  1.0000
  N   N12       1.0  0.9989995386415415  0.6622642480613337  0.34269990140749945  1.0000
  N   N13       1.0  0.5006014369643806  0.19335982471800858  0.598922583087294  1.0000
  N   N14       1.0  0.9993986497197723  0.40107745282496404  0.8066388703232477  1.0000
  N   N15       1.0  0.4993982864069721  0.8066395702095831  0.40107666671223546  1.0000
  N   N16       1.0  0.0006012174122389787  0.5989245553010248  0.1933620547530737  1.0000
  O   O1        1.0  0.7499983519864131  0.9713497884196726  0.02864367224587734  1.0000
  O   O2        1.0  0.24999906008715558  0.028645687217377296  0.9713507067094868  1.0000
  O   O3        1.0  0.25156704865258933  0.67218240234763  0.6693993885633418  1.0000
  O   O4        1.0  0.2484350980895513  0.33059983962013456  0.32781790858820875  1.0000
  O   O5        1.0  0.7484340697845083  0.3278169949886943  0.33060030835730453  1.0000
  O   O6        1.0  0.7515667907801387  0.6694008641463753  0.6721834119471596  1.0000
