data_image0
_chemical_formula_structural       Cu2Ni2H56C32N16
_chemical_formula_sum              "Cu2 Ni2 H56 C32 N16"
_cell_length_a       9.037904688156722
_cell_length_b       11.458807815710886
_cell_length_c       11.27506210128378
_cell_angle_alpha    112.1154655827712
_cell_angle_beta     90.01386952965001
_cell_angle_gamma    89.96095282976685

_space_group_name_H-M_alt    "P 1"
_space_group_IT_number       1

loop_
  _space_group_symop_operation_xyz
  'x, y, z'

loop_
  _atom_site_type_symbol
  _atom_site_label
  _atom_site_symmetry_multiplicity
  _atom_site_fract_x
  _atom_site_fract_y
  _atom_site_fract_z
  _atom_site_occupancy
  Cu  Cu1       1.0  0.3861728293399196  0.9669572115757674  0.2949995384111401  1.0000
  Cu  Cu2       1.0  0.8859384771802965  0.0330995248191215  0.7050491346872717  1.0000
  Ni  Ni1       1.0  0.8834048000447225  0.8957903442161737  0.1182935389976549  1.0000
  Ni  Ni2       1.0  0.38360241740392814  0.104324850219335  0.8817296182701068  1.0000
  H   H1        1.0  0.243130458645723  0.22832879197857642  0.4683556883797379  1.0000
  H   H2        1.0  0.7433327934101185  0.7716412171721317  0.5316286491217709  1.0000
  H   H3        1.0  0.28255395276806183  0.0607141793055632  0.5254330395540449  1.0000
  H   H4        1.0  0.7825469158702492  0.9395815635629816  0.47493462332002406  1.0000
  H   H5        1.0  0.465042401985329  0.0710337634797895  0.5283613591930061  1.0000
  H   H6        1.0  0.9651741046224914  0.9293513912026158  0.47236725483531206  1.0000
  H   H7        1.0  0.5160034151288997  0.28998990147451315  0.6427694106653303  1.0000
  H   H8        1.0  0.0160459105545101  0.709808170602102  0.3570665970687442  1.0000
  H   H9        1.0  0.33046720322998624  0.30267752775444723  0.694041779446884  1.0000
  H   H10       1.0  0.8303882187367079  0.697347020320315  0.3058984733408109  1.0000
  H   H11       1.0  0.48410195937912454  0.11847138642881565  0.19090982252728844  1.0000
  H   H12       1.0  0.9841718963861582  0.8820092126629647  0.8091441891911371  1.0000
  H   H13       1.0  0.30909197259119037  0.1504632987407959  0.22912095066435254  1.0000
  H   H14       1.0  0.809016489857683  0.8502506985428581  0.7706867979726791  1.0000
  H   H15       1.0  0.2836544947332627  0.4709299075177143  0.608094102793572  1.0000
  H   H16       1.0  0.7836858876771018  0.5290992256132938  0.391882680481693  1.0000
  H   H17       1.0  0.43677367319641297  0.5138351772412834  0.7128497369567695  1.0000
  H   H18       1.0  0.9368512508027038  0.4861161103979085  0.28714830919241036  1.0000
  H   H19       1.0  0.31013645347356095  0.8656663128498183  0.05122611105829118  1.0000
  H   H20       1.0  0.8099419074321474  0.13401777838858212  0.9483412045573726  1.0000
  H   H21       1.0  0.48639483265679934  0.8396911389163009  0.06775400487097731  1.0000
  H   H22       1.0  0.9863406082112435  0.1596396003932696  0.9314524169952773  1.0000
  H   H23       1.0  0.6114913335205259  0.44144822312321  0.5302380729174201  1.0000
  H   H24       1.0  0.11157248191113922  0.5582053833386028  0.4696562308360369  1.0000
  H   H25       1.0  0.48676279581643206  0.5520114707520564  0.5120972903059451  1.0000
  H   H26       1.0  0.9867127353401275  0.4478667496643852  0.4878506113529894  1.0000
  H   H27       1.0  0.42705988738135403  0.8181076245929827  0.4177522339629076  1.0000
  H   H28       1.0  0.9271869287142425  0.1812399368487192  0.5823311608385067  1.0000
  H   H29       1.0  0.2564526072104202  0.805517919248949  0.3590857656571058  1.0000
  H   H30       1.0  0.7563985052650893  0.19430719078641798  0.6411685293464868  1.0000
  H   H31       1.0  0.33518860315770393  0.37732561764912026  0.3574331699923901  1.0000
  H   H32       1.0  0.8353018390098939  0.6226331991964641  0.6425985792597328  1.0000
  H   H33       1.0  0.5211878162255063  0.3628995502407832  0.3044885805653691  1.0000
  H   H34       1.0  0.0213606778245037  0.6368320932542487  0.69549994021294  1.0000
  H   H35       1.0  0.5701611336105259  0.20293582895490664  0.3977805020833997  1.0000
  H   H36       1.0  0.07033820680436521  0.796675103825848  0.6021256066706185  1.0000
  H   H37       1.0  0.22300846454245973  0.7162090842786313  0.1168194879793986  1.0000
  H   H38       1.0  0.7229054163424706  0.28415051465687213  0.8833190060393787  1.0000
  H   H39       1.0  0.5100321850387174  0.6183468341411213  0.9685507659931215  1.0000
  H   H40       1.0  0.010003247903888702  0.3816615387406371  0.031587540155435044  1.0000
  H   H41       1.0  0.33360138855754684  0.6215674493224485  0.9030468554614683  1.0000
  H   H42       1.0  0.8334700299517621  0.3786460566179955  0.0971299385843594  1.0000
  H   H43       1.0  0.400131250560861  0.404628219518287  0.902243574155548  1.0000
  H   H44       1.0  0.9000684094427173  0.5954276705149155  0.09769385180390336  1.0000
  H   H45       1.0  0.23687191323953982  0.4658880517503621  0.9885911380376056  1.0000
  H   H46       1.0  0.7367519514947959  0.5343852891360327  0.011430590765300468  1.0000
  H   H47       1.0  0.39182928085323704  0.37534258081540633  0.11147038895156669  1.0000
  H   H48       1.0  0.8917116777807338  0.6246597479711794  0.8884959269053706  1.0000
  H   H49       1.0  0.5451884157115643  0.46671015463737586  0.1029558446301877  1.0000
  H   H50       1.0  0.045116658965618214  0.5331769568562592  0.8970449522218045  1.0000
  H   H51       1.0  0.42197906960010567  0.5653728802877325  0.31521717993155096  1.0000
  H   H52       1.0  0.9218867416095904  0.43455958588040744  0.6847204858013426  1.0000
  H   H53       1.0  0.25110762729472913  0.5688822305468548  0.23976883963698725  1.0000
  H   H54       1.0  0.7509576205302226  0.4312517017801981  0.7602111239649145  1.0000
  H   H55       1.0  0.5339516294675447  0.7082732621325577  0.21881870118621544  1.0000
  H   H56       1.0  0.0338924452126577  0.29178884758220397  0.7814169472839863  1.0000
  C   C1        1.0  0.036383330559033304  0.8596079022318008  0.002329271204487811  1.0000
  C   C2        1.0  0.5366277970767827  0.14053351663387306  0.9976528338587298  1.0000
  C   C3        1.0  0.7462851198587473  0.8386134610852949  0.9872711766948111  1.0000
  C   C4        1.0  0.24636424530915246  0.16147013866371654  0.012676587492748605  1.0000
  C   C5        1.0  0.7378781655181399  0.9299737739222139  0.23953653701943978  1.0000
  C   C6        1.0  0.23811585729839638  0.06993921120335501  0.7603642079530386  1.0000
  C   C7        1.0  0.0159003513319789  0.9456207729440108  0.2508352742246131  1.0000
  C   C8        1.0  0.5161367016925807  0.054504375065533794  0.7492717409176135  1.0000
  C   C9        1.0  0.35974217791577706  0.21418932046689318  0.48931437130053007  1.0000
  C   C10       1.0  0.8599111648286595  0.7858872131294987  0.5107546253300724  1.0000
  C   C11       1.0  0.4030602687498757  0.3119531513206653  0.6198742656022629  1.0000
  C   C12       1.0  0.9030755595230177  0.6879830576907509  0.38009501917771604  1.0000
  C   C13       1.0  0.39904377668203483  0.44560194345168475  0.619987592986291  1.0000
  C   C14       1.0  0.8990758317285952  0.55429421716687  0.37999162416995336  1.0000
  C   C15       1.0  0.4941650782853841  0.4559982316825569  0.5119347340664077  1.0000
  C   C16       1.0  0.9942265416723188  0.5438001175655457  0.4879162440431413  1.0000
  C   C17       1.0  0.44898463624028306  0.35860241293474365  0.3811679198189493  1.0000
  C   C18       1.0  0.9491271805073467  0.6412894892397105  0.6187976622614284  1.0000
  C   C19       1.0  0.4548685867584936  0.2259208155449315  0.3823042128244864  1.0000
  C   C20       1.0  0.955000350491332  0.774069096380366  0.6177454023148099  1.0000
  C   C21       1.0  0.34463011917451064  0.7166060642307954  0.10714642691093691  1.0000
  C   C22       1.0  0.8445405155435853  0.2834060083122196  0.892886660523899  1.0000
  C   C23       1.0  0.3907188391046859  0.609200532904481  0.9835887839730402  1.0000
  C   C24       1.0  0.8906268946151882  0.39090383439052095  0.016500812972310507  1.0000
  C   C25       1.0  0.35764482946166964  0.4800482216550819  0.9887952383151697  1.0000
  C   C26       1.0  0.8575284362557625  0.5201236621683237  0.011182337166402987  1.0000
  C   C27       1.0  0.4232927145098628  0.4664054071248316  0.10803549799643256  1.0000
  C   C28       1.0  0.9232230100571712  0.53364446991079  0.8919944215131961  1.0000
  C   C29       1.0  0.372357691256788  0.57378194278094  0.2297271720976752  1.0000
  C   C30       1.0  0.8722771150524623  0.4262632222016336  0.7703057418214525  1.0000
  C   C31       1.0  0.4126256208501857  0.7009634949413908  0.22461464353898447  1.0000
  C   C32       1.0  0.9125444879589112  0.2990088320441231  0.7754595533034203  1.0000
  N   N1        1.0  0.13441503012367662  0.8361869293337493  0.928158831777878  1.0000
  N   N2        1.0  0.6347765488861016  0.1638958670306394  0.07174400867051388  1.0000
  N   N3        1.0  0.6608213959173171  0.7993835056923189  0.9025665150180796  1.0000
  N   N4        1.0  0.1608304025217535  0.20059332752978778  0.09734748699218436  1.0000
  N   N5        1.0  0.649501701579972  0.9509690405642458  0.32182633738764105  1.0000
  N   N6        1.0  0.14990499020603207  0.048742141740838504  0.6779467699793498  1.0000
  N   N7        1.0  0.0954879657964938  0.9732466431428222  0.3399592527379339  1.0000
  N   N8        1.0  0.5957817961362651  0.026902068441415797  0.6601899738749423  1.0000
  N   N9        1.0  0.3718101642222038  0.08328126800932982  0.48172582507383754  1.0000
  N   N10       1.0  0.8717679763524586  0.9168321200700477  0.5184692123661135  1.0000
  N   N11       1.0  0.40719211462885607  0.12651213198994776  0.2608981752441365  1.0000
  N   N12       1.0  0.9073548385878851  0.8736952489089805  0.739084192763407  1.0000
  N   N13       1.0  0.3840375822756741  0.8429202720683762  0.10898170586083464  1.0000
  N   N14       1.0  0.8838239068405044  0.15689397613232361  0.8907776786314583  1.0000
  N   N15       1.0  0.3662460545567754  0.8102016356405031  0.3385873836511236  1.0000
  N   N16       1.0  0.8662145177727893  0.1897533064060184  0.6615036333841856  1.0000
