data_image0
_chemical_formula_structural       SrZnH10C14N2O10
_chemical_formula_sum              "Sr1 Zn1 H10 C14 N2 O10"
_cell_length_a       5.169556910447957
_cell_length_b       7.89350750738055
_cell_length_c       10.456531547545724
_cell_angle_alpha    81.8981409717923
_cell_angle_beta     83.0697109986875
_cell_angle_gamma    78.36920673989967

_space_group_name_H-M_alt    "P 1"
_space_group_IT_number       1

loop_
  _space_group_symop_operation_xyz
  'x, y, z'

loop_
  _atom_site_type_symbol
  _atom_site_label
  _atom_site_symmetry_multiplicity
  _atom_site_fract_x
  _atom_site_fract_y
  _atom_site_fract_z
  _atom_site_occupancy
  Sr  Sr1       1.0  0.49999840919323907  5.661790751998344e-07  0.49999994380274865  1.0000
  Zn  Zn1       1.0  3.711439405203352e-07  0.9999986818429462  0.9999991731503425  1.0000
  H   H1        1.0  0.2833279857670092  0.8404322046707194  0.8009717030503648  1.0000
  H   H2        1.0  0.7166706321556902  0.15956607119647254  0.199030146515959  1.0000
  H   H3        1.0  0.48659157787538704  0.918077922687715  0.8688765810845354  1.0000
  H   H4        1.0  0.5134086451915181  0.0819216394643547  0.13112503396163078  1.0000
  H   H5        1.0  0.7731220803169594  0.46208888839954193  0.6217537581975846  1.0000
  H   H6        1.0  0.22687556349730198  0.5379132487746002  0.37824483615192145  1.0000
  H   H7        1.0  0.3452180019512241  0.583731569696198  0.8464526726082083  1.0000
  H   H8        1.0  0.65478298662412  0.4162653406144016  0.15354633277766533  1.0000
  H   H9        1.0  0.3265447572407255  0.30344478069258674  0.9872615384669885  1.0000
  H   H10       1.0  0.6734535359791567  0.6965547822769268  0.012739226027065256  1.0000
  C   C1        1.0  0.04833390407262769  0.7209978066697433  0.6391599615207113  1.0000
  C   C2        1.0  0.9516617402329218  0.2790043779039451  0.360840650159588  1.0000
  C   C3        1.0  0.05624518154992583  0.547248187612489  0.7235487460654467  1.0000
  C   C4        1.0  0.9437605760169134  0.45275261260748323  0.2764514676818592  1.0000
  C   C5        1.0  0.8991434942914721  0.4311113727922161  0.7011676607441685  1.0000
  C   C6        1.0  0.10085677521655607  0.5688881583051143  0.2988320423800558  1.0000
  C   C7        1.0  0.9045377936226731  0.27504951476276324  0.7829293470242288  1.0000
  C   C8        1.0  0.095462870249861  0.7249486826501438  0.21706857328936735  1.0000
  C   C9        1.0  0.2163558681088987  0.4995670721026785  0.826161044718738  1.0000
  C   C10       1.0  0.7836476349081067  0.500435016037045  0.17383723340418553  1.0000
  C   C11       1.0  0.20611010973373584  0.343549107649089  0.9055391466794799  1.0000
  C   C12       1.0  0.7938898582920473  0.6564516950231934  0.09445851541150316  1.0000
  C   C13       1.0  0.7420282646183339  0.14229273260240657  0.7642225620572417  1.0000
  C   C14       1.0  0.25797135548406647  0.8577093726995599  0.23577497092243496  1.0000
  N   N1        1.0  0.05219718598816311  0.23441565257930108  0.8848142211270583  1.0000
  N   N2        1.0  0.9478007825289012  0.7655851974925268  0.11518545829471795  1.0000
  O   O1        1.0  0.218632906204995  0.8124025416107655  0.6537924446348524  1.0000
  O   O2        1.0  0.7813666210151526  0.18759962580067932  0.3462089121886861  1.0000
  O   O3        1.0  0.3315885644209828  0.8566926878932292  0.8877221705934841  1.0000
  O   O4        1.0  0.6684136117135041  0.143306857914034  0.11227933904381619  1.0000
  O   O5        1.0  0.8732914466323296  0.7636015942278718  0.5606346070888292  1.0000
  O   O6        1.0  0.12670808058782512  0.23640057318356605  0.4393667497347166  1.0000
  O   O7        1.0  0.74752409549739  0.009896103518499906  0.8520116274589427  1.0000
  O   O8        1.0  0.2524735250962991  0.9901060491830052  0.14798792285152723  1.0000
  O   O9        1.0  0.611723344349123  0.1679840279900517  0.6673398757637442  1.0000
  O   O10       1.0  0.38827650757384174  0.832016852319079  0.3326625661320789  1.0000
