data_image0
_chemical_formula_structural       Zn2H27C52N2Cl5O8
_chemical_formula_sum              "Zn2 H27 C52 N2 Cl5 O8"
_cell_length_a       13.47025347161995
_cell_length_b       18.237043935413
_cell_length_c       19.655015805804734
_cell_angle_alpha    91.09182380665708
_cell_angle_beta     90.69316983822081
_cell_angle_gamma    67.34379937365179

_space_group_name_H-M_alt    "P 1"
_space_group_IT_number       1

loop_
  _space_group_symop_operation_xyz
  'x, y, z'

loop_
  _atom_site_type_symbol
  _atom_site_label
  _atom_site_symmetry_multiplicity
  _atom_site_fract_x
  _atom_site_fract_y
  _atom_site_fract_z
  _atom_site_occupancy
  Zn  Zn1       1.0  0.5122987327025966  0.4221225365526564  0.5004877002502823  1.0000
  Zn  Zn2       1.0  0.48785073527917433  0.5790576663956202  0.5023999488946913  1.0000
  H   H1        1.0  0.14411904251947044  0.6832833647232379  0.42998446957061287  1.0000
  H   H2        1.0  0.5178711922973775  0.607039921727889  0.15701255164858452  1.0000
  H   H3        1.0  0.6405438874976638  0.3844718939069267  0.9367816175461103  1.0000
  H   H4        1.0  0.3776607404989604  0.6130362319817237  0.9391945034268334  1.0000
  H   H5        1.0  0.47934980020715295  0.6245112171778189  0.8467054786224396  1.0000
  H   H6        1.0  0.5395081903988554  0.3760094497025435  0.7149439248871661  1.0000
  H   H7        1.0  0.8061793309011305  0.6579346060360935  0.39327456944167954  1.0000
  H   H8        1.0  0.5400366434450631  0.3745321043022614  0.8417740204850119  1.0000
  H   H9        1.0  0.36635953782410985  0.34786012695721524  0.44319602723601303  1.0000
  H   H10       1.0  0.6437683143427719  0.2668079084941795  0.5614519523821572  1.0000
  H   H11       1.0  0.46507221290523393  0.0778174821332343  0.6083982350929347  1.0000
  H   H12       1.0  0.4677901556453676  0.941086145438753  0.605431675739773  1.0000
  H   H13       1.0  0.5351540786179781  0.923418930195929  0.3906118310624152  1.0000
  H   H14       1.0  0.5326956078788925  0.06008618213781602  0.3936064012870375  1.0000
  H   H15       1.0  0.9545275771424712  0.7049033265414336  0.3983032644200933  1.0000
  H   H16       1.0  0.6386632520655834  0.6527765597027371  0.5547310784865972  1.0000
  H   H17       1.0  0.19047965224733326  0.45696904178662834  0.5113681737765177  1.0000
  H   H18       1.0  0.13566366171822608  0.3719737420487448  0.5217725366788742  1.0000
  H   H19       1.0  0.5164674134365796  0.6106293288748716  0.2843166300208466  1.0000
  H   H20       1.0  0.4812567225319382  0.3867561723298678  0.2844020865962521  1.0000
  H   H21       1.0  0.6349699786033296  0.3809817233817868  0.062222094230925507  1.0000
  H   H22       1.0  0.3741466246775785  0.6103108750422025  0.0650590929318824  1.0000
  H   H23       1.0  0.4751798516491945  0.625098032352362  0.7197519431392082  1.0000
  H   H24       1.0  0.3541356790030648  0.7341924235720967  0.44335423848617245  1.0000
  H   H25       1.0  0.8588508331726461  0.310706698569753  0.5371217287932099  1.0000
  H   H26       1.0  0.05747575956404917  0.27503910007636284  0.5504439322132698  1.0000
  H   H27       1.0  0.7282780981910904  0.5619703178638886  0.4262231765428623  1.0000
  C   C1        1.0  0.5041741863995312  0.5010369870046248  0.6336171299808984  1.0000
  C   C2        1.0  0.9858066415942515  0.46181328087862283  0.48617253564417257  1.0000
  C   C3        1.0  0.8739707645644685  0.4799511601730088  0.47463248759240173  1.0000
  C   C4        1.0  0.03009083531833309  0.5206378122410484  0.46996142694613513  1.0000
  C   C5        1.0  0.9634628969230049  0.592658215915975  0.43779845426754355  1.0000
  C   C6        1.0  0.8547992244721099  0.6045719859584652  0.42102900199451915  1.0000
  C   C7        1.0  0.8114004809333154  0.5513672942166818  0.4392761346833183  1.0000
  C   C8        1.0  0.13658595372248783  0.5102862787144531  0.48622072150332235  1.0000
  C   C9        1.0  0.11088885268743812  0.6389152641083555  0.44067591097524433  1.0000
  C   C10       1.0  0.8291818782339035  0.4250384618480396  0.4964152985709164  1.0000
  C   C11       1.0  0.5088661485413866  0.5611649989935047  0.2559075597748831  1.0000
  C   C12       1.0  0.7099901691565835  0.44665562265591763  0.4981650947018182  1.0000
  C   C13       1.0  0.5091419123072356  0.5589203842266316  0.18517024662036624  1.0000
  C   C14       1.0  0.5011653738629818  0.4947610552800796  0.1478085687539945  1.0000
  C   C15       1.0  0.49078995843954215  0.43293160268724046  0.1852923737616834  1.0000
  C   C16       1.0  0.49004299881187285  0.43465364764890063  0.25616346921334104  1.0000
  C   C17       1.0  0.49978946484700515  0.49855906515741566  0.29193107664363543  1.0000
  C   C18       1.0  0.5778999300629691  0.43170044361313137  0.0352783472517828  1.0000
  C   C19       1.0  0.5805936202968097  0.43360336779436187  0.9646440367050249  1.0000
  C   C20       1.0  0.5089396595261205  0.4987407661626478  0.9285533800261591  1.0000
  C   C21       1.0  0.4355811239058979  0.5625865028149449  0.9660829488012372  1.0000
  C   C22       1.0  0.43322500361352917  0.5609384160122701  0.0368451339295461  1.0000
  C   C23       1.0  0.5001451004846089  0.4994263029412097  0.3681920665160448  1.0000
  C   C24       1.0  0.5036779829029002  0.4951940738128684  0.07260890783445012  1.0000
  C   C25       1.0  0.4910263767937264  0.5699822553739438  0.8180654342834472  1.0000
  C   C26       1.0  0.4894945992051233  0.5706142353366701  0.74726943730456  1.0000
  C   C27       1.0  0.507066022607148  0.5006176407964844  0.709785883256018  1.0000
  C   C28       1.0  0.5266808004767186  0.4299699007652791  0.7445724431463177  1.0000
  C   C29       1.0  0.5277932494208812  0.4294287548193836  0.815313508480621  1.0000
  C   C30       1.0  0.5096540129431021  0.4994837960573689  0.8534462882267494  1.0000
  C   C31       1.0  0.4263409507417181  0.29766161187122014  0.4691091219502043  1.0000
  C   C32       1.0  0.4207492563964196  0.2228418059030943  0.4689465518159608  1.0000
  C   C33       1.0  0.49954814277908344  0.1588817548081352  0.5026807557299338  1.0000
  C   C34       1.0  0.2919400364806108  0.5517110106544151  0.4902516639681452  1.0000
  C   C35       1.0  0.5804118951269996  0.17628328417486472  0.5370549572784428  1.0000
  C   C36       1.0  0.5814368044988428  0.252395544998258  0.5355664139767669  1.0000
  C   C37       1.0  0.48066504994562115  0.0439188578097642  0.5606857138869188  1.0000
  C   C38       1.0  0.48217840103475146  0.967165340958374  0.559013533243423  1.0000
  C   C39       1.0  0.5017673980372449  0.9232503217968643  0.4978665617708984  1.0000
  C   C40       1.0  0.5197537100861284  0.9572420136810252  0.43835651069005627  1.0000
  C   C41       1.0  0.5182844728547379  0.03400668288877281  0.44002138137702945  1.0000
  C   C42       1.0  0.4988461132345563  0.07786145323263578  0.5011969152283485  1.0000
  C   C43       1.0  0.419198744404234  0.8246075717660944  0.4644045714615573  1.0000
  C   C44       1.0  0.41798879201608935  0.7486175222053574  0.46717467407421515  1.0000
  C   C45       1.0  0.006287294548847966  0.6504319605837452  0.4233559275897322  1.0000
  C   C46       1.0  0.5766717302404273  0.7032289032666768  0.5303600568623139  1.0000
  C   C47       1.0  0.5819606954919506  0.778154523891523  0.5295027054854701  1.0000
  C   C48       1.0  0.501479457317778  0.842069555272211  0.49683223175433266  1.0000
  C   C49       1.0  0.17712895186324573  0.567900578001243  0.47250724923773657  1.0000
  C   C50       1.0  0.8953159481634002  0.35186549601289846  0.5221170169901015  1.0000
  C   C51       1.0  0.006114720883104456  0.3325918281451196  0.530104725059694  1.0000
  C   C52       1.0  0.04991088174587335  0.3872667485782627  0.5136805379472449  1.0000
  N   N1        1.0  0.5059422902005225  0.31090608860549207  0.5016668962401313  1.0000
  N   N2        1.0  0.4951353149921331  0.690111005270289  0.5001589676996974  1.0000
  Cl  Cl1       1.0  0.4736504859589489  0.3531472762562871  0.14428557643706344  1.0000
  Cl  Cl2       1.0  0.313863911662807  0.2113354302233788  0.427764904428706  1.0000
  Cl  Cl3       1.0  0.6823379551603563  0.1039295844767736  0.580402667925334  1.0000
  Cl  Cl4       1.0  0.3157883322907294  0.8969181160104116  0.42201519376189384  1.0000
  Cl  Cl5       1.0  0.6902779366405198  0.7900403990142095  0.5682527797111592  1.0000
  O   O1        1.0  0.5321459324832319  0.4337522979197673  0.6030739581973137  1.0000
  O   O2        1.0  0.4738311480333336  0.5683975785123608  0.6048736513137387  1.0000
  O   O3        1.0  0.6749147820284093  0.39183446390853055  0.4867917431246981  1.0000
  O   O4        1.0  0.65236755449623  0.5186247954826514  0.5138399688379209  1.0000
  O   O5        1.0  0.4876897376998883  0.4417150728859838  0.39736103274709933  1.0000
  O   O6        1.0  0.5128553503448501  0.5577657704608471  0.39820857178744984  1.0000
  O   O7        1.0  0.3484618213955032  0.4821682179435597  0.511224057217632  1.0000
  O   O8        1.0  0.326508407945262  0.6071332530021536  0.4824728945407701  1.0000
