data_image0
_chemical_formula_structural       Cd4H24C24N40
_chemical_formula_sum              "Cd4 H24 C24 N40"
_cell_length_a       6.303733420038706
_cell_length_b       10.340509009049418
_cell_length_c       15.083333852047458
_cell_angle_alpha    90.00022328022823
_cell_angle_beta     89.99981225023865
_cell_angle_gamma    90.00031331425332

_space_group_name_H-M_alt    "P 1"
_space_group_IT_number       1

loop_
  _space_group_symop_operation_xyz
  'x, y, z'

loop_
  _atom_site_type_symbol
  _atom_site_label
  _atom_site_symmetry_multiplicity
  _atom_site_fract_x
  _atom_site_fract_y
  _atom_site_fract_z
  _atom_site_occupancy
  Cd  Cd1       1.0  0.24999388012950868  0.9999969703404118  0.43387206818591295  1.0000
  Cd  Cd2       1.0  0.7499969647197416  0.4999992160530626  0.06612940234595037  1.0000
  Cd  Cd3       1.0  0.7499939091385243  0.9999953792407653  0.566128278950842  1.0000
  Cd  Cd4       1.0  0.2500011406821939  0.4999988401310418  0.9338702842605782  1.0000
  H   H1        1.0  0.0525008687826514  0.9524051385015612  0.09791989346330608  1.0000
  H   H2        1.0  0.5525145171681274  0.5475883785320335  0.40209313158909044  1.0000
  H   H3        1.0  0.9474943580921148  0.452407145543809  0.40208741793883007  1.0000
  H   H4        1.0  0.4474981253546914  0.047584844927037316  0.09790183751424307  1.0000
  H   H5        1.0  0.9474988229253042  0.0475938848015218  0.9020957047450293  1.0000
  H   H6        1.0  0.4474994518090155  0.45240774356555846  0.5979151737877186  1.0000
  H   H7        1.0  0.05250850642285339  0.5475918777005262  0.5979056388315412  1.0000
  H   H8        1.0  0.552501566459014  0.9524103100013336  0.9020812745022438  1.0000
  H   H9        1.0  0.7781630611114281  0.816412899432635  0.33589973636018294  1.0000
  H   H10       1.0  0.2781721714227245  0.6835766223729253  0.16410832351110824  1.0000
  H   H11       1.0  0.22183108843517368  0.3164176090715571  0.16409925927027294  1.0000
  H   H12       1.0  0.7218161666424051  0.18357354121486222  0.3358903204919271  1.0000
  H   H13       1.0  0.2218033170136877  0.1835764530684827  0.6641032651746385  1.0000
  H   H14       1.0  0.7218322794007436  0.3164233679884774  0.8358999818776593  1.0000
  H   H15       1.0  0.7781797078670251  0.6835775459098129  0.8358951234560834  1.0000
  H   H16       1.0  0.2781549706152616  0.8164148441847914  0.6640987583867426  1.0000
  H   H17       1.0  0.7358983420084826  0.8229284141592007  0.1522275164750297  1.0000
  H   H18       1.0  0.23590603172449676  0.6770715880539626  0.3477766262486455  1.0000
  H   H19       1.0  0.26409903184644884  0.3229236970442387  0.34777017042057407  1.0000
  H   H20       1.0  0.7641012911411308  0.17707341308572214  0.15222796737886304  1.0000
  H   H21       1.0  0.2640950043908673  0.17708221390628862  0.847763551367329  1.0000
  H   H22       1.0  0.764100005466524  0.32292743523240836  0.6522290272040931  1.0000
  H   H23       1.0  0.7359054190129725  0.6770772603628288  0.6522295161852368  1.0000
  H   H24       1.0  0.23589522790746284  0.8229304455291384  0.8477756971369033  1.0000
  C   C1        1.0  0.8826506950752131  0.8573277649982886  0.2861593856515725  1.0000
  C   C2        1.0  0.3826353151553832  0.64267665181211  0.2138432202324267  1.0000
  C   C3        1.0  0.11735488309969357  0.35732270029008356  0.2138403812439122  1.0000
  C   C4        1.0  0.6173812533940647  0.14268063306073486  0.2861632712971556  1.0000
  C   C5        1.0  0.11738072402693689  0.1426896326307556  0.7138316821723831  1.0000
  C   C6        1.0  0.6173532721172136  0.35733204213038045  0.7861571293784309  1.0000
  C   C7        1.0  0.8826305314296405  0.6426821253687719  0.7861612943309095  1.0000
  C   C8        1.0  0.3826549247121561  0.8573357975657321  0.7138483490075839  1.0000
  C   C9        1.0  0.8595520318322938  0.8593022190205347  0.1952703472140342  1.0000
  C   C10       1.0  0.35954071798006026  0.640706947103034  0.3047150542995567  1.0000
  C   C11       1.0  0.14045514838279158  0.3592938933923832  0.3047161652343604  1.0000
  C   C12       1.0  0.6404821803961481  0.14071532842092443  0.19530005080167703  1.0000
  C   C13       1.0  0.14048731921585758  0.1407258163233109  0.8046948642655991  1.0000
  C   C14       1.0  0.6404510420353021  0.3593017468301555  0.6952799914418006  1.0000
  C   C15       1.0  0.859533438850029  0.6407128664340718  0.6952928031581678  1.0000
  C   C16       1.0  0.3595619294905318  0.859311740047758  0.8047301330467176  1.0000
  C   C17       1.0  0.15260616760884457  0.9636005176298281  0.23250546708189998  1.0000
  C   C18       1.0  0.6526254895879544  0.5363885367092536  0.2674908395158511  1.0000
  C   C19       1.0  0.8473907343744996  0.4636062152300938  0.26749126622395636  1.0000
  C   C20       1.0  0.3473553369320894  0.036382501312296305  0.2325133817283812  1.0000
  C   C21       1.0  0.8473475196597277  0.0363859336003856  0.7674849377735525  1.0000
  C   C22       1.0  0.347391652162095  0.4636114536491507  0.7325081840961614  1.0000
  C   C23       1.0  0.15263275279387756  0.5363899068681023  0.7325110722953951  1.0000
  C   C24       1.0  0.6525983502494981  0.9636000816915314  0.7674962496406292  1.0000
  N   N1        1.0  0.0658238130379658  0.9218734213916875  0.3085642561272053  1.0000
  N   N2        1.0  0.5657996144204346  0.5781298158464807  0.1914381420846425  1.0000
  N   N3        1.0  0.934193381036472  0.42187223631201926  0.19143435565239736  1.0000
  N   N4        1.0  0.43421485644048363  0.07813227659642048  0.3085582338361448  1.0000
  N   N5        1.0  0.9342123650713388  0.07813817386575292  0.6914413973205171  1.0000
  N   N6        1.0  0.434193731929497  0.42188081225704366  0.8085661854257677  1.0000
  N   N7        1.0  0.065792033503854  0.5781316222650544  0.8085633420207257  1.0000
  N   N8        1.0  0.5658181489886971  0.9218764174021316  0.6914328339751563  1.0000
  N   N9        1.0  0.0307055050546055  0.9267576101854901  0.16271854698425864  1.0000
  N   N10       1.0  0.5307198397144148  0.5732396939216075  0.3372719679587206  1.0000
  N   N11       1.0  0.9692926914128177  0.42675642538547726  0.3372701329865321  1.0000
  N   N12       1.0  0.46927396966079715  0.07323758037610871  0.1627316878440013  1.0000
  N   N13       1.0  0.9692719777175112  0.07324431419991839  0.8372665540073567  1.0000
  N   N14       1.0  0.4692973020518209  0.42676126349767435  0.6627237407375615  1.0000
  N   N15       1.0  0.03071651851355739  0.5732425978972912  0.6627322055469091  1.0000
  N   N16       1.0  0.5306987538962318  0.9267575745876327  0.8372812584449817  1.0000
  N   N17       1.0  0.9859890950851591  0.1439361541485269  0.4760414546082288  1.0000
  N   N18       1.0  0.4859958573320354  0.35605211138409504  0.023955038335060394  1.0000
  N   N19       1.0  0.014006860784917299  0.6439432502200548  0.023957084473394695  1.0000
  N   N20       1.0  0.5140017789644631  0.8560559258545484  0.4760447252011914  1.0000
  N   N21       1.0  0.014002664852483797  0.8560541654512052  0.5239549170756134  1.0000
  N   N22       1.0  0.5140085935019271  0.6439430436025759  0.9760453112464729  1.0000
  N   N23       1.0  0.9859960036801353  0.35605190476937304  0.9760452540594924  1.0000
  N   N24       1.0  0.4859883946034031  0.14393729496858754  0.5239569503548508  1.0000
  N   N25       1.0  0.031661286791568  0.24822913592625184  0.5059640452923659  1.0000
  N   N26       1.0  0.5316647628715429  0.25177577959281905  0.9940361601178151  1.0000
  N   N27       1.0  0.9683412865781307  0.7482212061330599  0.9940371663834141  1.0000
  N   N28       1.0  0.4683299068017062  0.7517718919890514  0.5059657239404556  1.0000
  N   N29       1.0  0.9683336459051544  0.751772788531575  0.4940349783381634  1.0000
  N   N30       1.0  0.4683412743318343  0.7482232436840448  0.005966178417906998  1.0000
  N   N31       1.0  0.031664750612392795  0.25177394886036814  0.005964509163788999  1.0000
  N   N32       1.0  0.5316570940368592  0.24822036175969941  0.49403661459999165  1.0000
  N   N33       1.0  0.07278642434827988  0.35067782742989106  0.5338074652941882  1.0000
  N   N34       1.0  0.5728004008221886  0.1493127351533374  0.966189366072207  1.0000
  N   N35       1.0  0.9272106152698  0.8506831237628205  0.9661900396871557  1.0000
  N   N36       1.0  0.4271982162163325  0.6493136895046662  0.5338115837837307  1.0000
  N   N37       1.0  0.9272005764983076  0.6493095909460321  0.46618758042242087  1.0000
  N   N38       1.0  0.4272103954426995  0.8506804857100861  0.03381297245241648  1.0000
  N   N39       1.0  0.0727970082972931  0.14931396536862  0.033809646911258484  1.0000
  N   N40       1.0  0.5727903709952215  0.3506814654581802  0.4661907547594096  1.0000
