data_image0
_chemical_formula_structural       Ag4H22C28N6O12
_chemical_formula_sum              "Ag4 H22 C28 N6 O12"
_cell_length_a       8.239216263217303
_cell_length_b       10.014472994582214
_cell_length_c       10.289628022824683
_cell_angle_alpha    65.36424643782281
_cell_angle_beta     77.70433312585571
_cell_angle_gamma    79.68931864148725

_space_group_name_H-M_alt    "P 1"
_space_group_IT_number       1

loop_
  _space_group_symop_operation_xyz
  'x, y, z'

loop_
  _atom_site_type_symbol
  _atom_site_label
  _atom_site_symmetry_multiplicity
  _atom_site_fract_x
  _atom_site_fract_y
  _atom_site_fract_z
  _atom_site_occupancy
  Ag  Ag1       1.0  0.7736384484604457  0.29606010934391946  0.1885485461452491  1.0000
  Ag  Ag2       1.0  0.22635816339199985  0.7039405110532115  0.8114527954859841  1.0000
  Ag  Ag3       1.0  0.9116130395824414  0.6270234897526734  0.020721254505325228  1.0000
  Ag  Ag4       1.0  0.08838481388293933  0.37297713563764023  0.9792798714217315  1.0000
  H   H1        1.0  0.5919298351037909  0.8013143345395546  0.6595230984253891  1.0000
  H   H2        1.0  0.4080718756642979  0.19868520159308634  0.3404778103563545  1.0000
  H   H3        1.0  0.8764451018336032  0.41864207356496747  0.6043110284901162  1.0000
  H   H4        1.0  0.12356006320860764  0.5813596704318372  0.39568546501155333  1.0000
  H   H5        1.0  0.5467076720922394  0.6951598073809959  0.3032469157155051  1.0000
  H   H6        1.0  0.45329003951437136  0.3048418962633903  0.6967489331890917  1.0000
  H   H7        1.0  0.48859250553671535  0.24953336152422878  0.06201071022022125  1.0000
  H   H8        1.0  0.5114056109774552  0.7504650501949542  0.9379903062301836  1.0000
  H   H9        1.0  0.5326799881946159  0.21870271904491997  0.8992005896256717  1.0000
  H   H10       1.0  0.4673193718114702  0.7812957028640852  0.1008011805316116  1.0000
  H   H11       1.0  0.6566728523889793  0.33114012427770945  0.925936777044818  1.0000
  H   H12       1.0  0.343326106467508  0.6688615999497783  0.07406176438876613  1.0000
  H   H13       1.0  0.663496269501124  0.9732307103034401  0.9337078239026515  1.0000
  H   H14       1.0  0.3365032210898633  0.026766602171683498  0.06629340681079302  1.0000
  H   H15       1.0  0.9977295198625312  0.7620044881690546  0.22465614897026864  1.0000
  H   H16       1.0  0.0022720584416760147  0.23799615220084283  0.7753443298442736  1.0000
  H   H17       1.0  0.08239068644613207  0.0754975235712294  0.2585860695418561  1.0000
  H   H18       1.0  0.9176068983335314  0.9245052999003178  0.7414122576286959  1.0000
  H   H19       1.0  0.07022212088363491  0.8822142783153168  0.362298965422717  1.0000
  H   H20       1.0  0.9297756019968518  0.11778745650889987  0.6377026999481927  1.0000
  H   H21       1.0  0.9125031730732046  0.014257943672667701  0.39830855706831886  1.0000
  H   H22       1.0  0.08749454229136694  0.9857437703649906  0.6016892306583802  1.0000
  C   C1        1.0  0.5586936027226486  0.7583924900047236  0.4775007712924266  1.0000
  C   C2        1.0  0.4413094802432767  0.24160594168721866  0.5224993823412947  1.0000
  C   C3        1.0  0.6263863805747364  0.7292076404280222  0.6010268248036967  1.0000
  C   C4        1.0  0.37361506150763546  0.2707940937858454  0.39897128522154207  1.0000
  C   C5        1.0  0.7445580272973589  0.6071468085337133  0.6455429178283085  1.0000
  C   C6        1.0  0.2554425724426963  0.39285161317184963  0.35445766721375804  1.0000
  C   C7        1.0  0.7871258054841446  0.5156445522325582  0.5688306284103108  1.0000
  C   C8        1.0  0.21287674386830704  0.4843582860151158  0.43116586653249567  1.0000
  C   C9        1.0  0.7171408500000213  0.5460058057886599  0.44587558601536875  1.0000
  C   C10       1.0  0.28286099323194946  0.45399262610673213  0.5541257527335832  1.0000
  C   C11       1.0  0.6030702330948402  0.6704086460949698  0.39803356678741875  1.0000
  C   C12       1.0  0.39693133957243276  0.3295919786850093  0.601964003793967  1.0000
  C   C13       1.0  0.8240931416586649  0.5721817101277226  0.7761896483604221  1.0000
  C   C14       1.0  0.17590869969432532  0.42781671657103  0.2238107209774754  1.0000
  C   C15       1.0  0.7606695590921149  0.44032637157482657  0.37166691109740685  1.0000
  C   C16       1.0  0.23933063949833414  0.5596753524492114  0.6283304452209465  1.0000
  C   C17       1.0  0.5894621918020064  0.23197256827401697  0.9795238864279414  1.0000
  C   C18       1.0  0.41053592283318346  0.7680258382485262  0.0204761606114161  1.0000
  C   C19       1.0  0.7066938679878733  0.10034579938549369  0.04708055799764568  1.0000
  C   C20       1.0  0.29330411794138916  0.8996537217675777  0.9529209978966124  1.0000
  C   C21       1.0  0.7286938005673349  0.9751207171384094  0.014492169436763996  1.0000
  C   C22       1.0  0.2713056919026329  0.0248766005333465  0.9855100306877279  1.0000
  C   C23       1.0  0.9146512256614086  0.8599572070004199  0.1741400809138727  1.0000
  C   C24       1.0  0.0853480018807957  0.14004231914584153  0.8258612592762166  1.0000
  C   C25       1.0  0.8997113382379072  0.9838800412706304  0.2080642391569968  1.0000
  C   C26       1.0  0.1002877587193964  0.016120594309519697  0.7919376404769382  1.0000
  C   C27       1.0  0.9972972372901833  0.9881367519953771  0.31218442997382573  1.0000
  C   C28       1.0  0.0027004874692764  0.0118649880254651  0.6878182048081315  1.0000
  N   N1        1.0  0.7954265485645209  0.1034231004527726  0.1421722668268757  1.0000
  N   N2        1.0  0.2045714354857679  0.8965764155036596  0.8578283196563278  1.0000
  N   N3        1.0  0.8324951181132577  0.8561025344354435  0.07687188754788109  1.0000
  N   N4        1.0  0.16750522045698094  0.1438981061378968  0.9231297763818777  1.0000
  N   N5        1.0  0.43430291194875537  0.8848451147754091  0.4301723849479446  1.0000
  N   N6        1.0  0.5656989294042346  0.11515331192334342  0.569827984389953  1.0000
  O   O1        1.0  0.7023024894439304  0.48173577679413876  0.2511043982608572  1.0000
  O   O2        1.0  0.2976989526384344  0.5182659574197288  0.7488937117643815  1.0000
  O   O3        1.0  0.8447601616756018  0.3199896432126295  0.42892615975211623  1.0000
  O   O4        1.0  0.15524017313668279  0.6800109869674316  0.5710735653555474  1.0000
  O   O5        1.0  0.911298654718152  0.44774058190777305  0.8202150891112583  1.0000
  O   O6        1.0  0.08870305041299537  0.5522589386349565  0.1797829114373359  1.0000
  O   O7        1.0  0.7948173152036021  0.667514261212368  0.8322153359781839  1.0000
  O   O8        1.0  0.20518315395154474  0.3324852699270835  0.16778578850773587  1.0000
  O   O9        1.0  0.35633672342563466  0.9337845487057663  0.5210016105409212  1.0000
  O   O10       1.0  0.6436637438505315  0.06621497723704549  0.478998544533944  1.0000
  O   O11       1.0  0.4132111279960854  0.9377020363784965  0.3012356607018278  1.0000
  O   O12       1.0  0.5867879670822377  0.06229859400501429  0.6987652495210598  1.0000
