data_image0
_chemical_formula_structural       Cu4H36C28Br4N4
_chemical_formula_sum              "Cu4 H36 C28 Br4 N4"
_cell_length_a       3.9339480467771777
_cell_length_b       14.489346694218892
_cell_length_c       14.087153174470634
_cell_angle_alpha    89.99927136955553
_cell_angle_beta     89.99903617278703
_cell_angle_gamma    89.99814531171889

_space_group_name_H-M_alt    "P 1"
_space_group_IT_number       1

loop_
  _space_group_symop_operation_xyz
  'x, y, z'

loop_
  _atom_site_type_symbol
  _atom_site_label
  _atom_site_symmetry_multiplicity
  _atom_site_fract_x
  _atom_site_fract_y
  _atom_site_fract_z
  _atom_site_occupancy
  Cu  Cu1       1.0  0.38650246528816723  0.9269086064340472  0.8384467053708351  1.0000
  Cu  Cu2       1.0  0.3865230352807389  0.42689268180102147  0.6615334489658694  1.0000
  Cu  Cu3       1.0  0.6134464717272368  0.9269058908229865  0.3384670163102612  1.0000
  Cu  Cu4       1.0  0.6135000869181654  0.4269016988789787  0.1615416919879777  1.0000
  H   H1        1.0  0.2355753411197767  0.727913706347927  0.7898709014746359  1.0000
  H   H2        1.0  0.23557634073209505  0.22792478492905136  0.7101213502923829  1.0000
  H   H3        1.0  0.7644297916000153  0.7279131257282572  0.289864669032447  1.0000
  H   H4        1.0  0.7643901186274886  0.22792834521326444  0.21015487048784112  1.0000
  H   H5        1.0  0.6006635222498886  0.6583494111286895  0.7691200478623941  1.0000
  H   H6        1.0  0.6006637632993304  0.15835954166917085  0.7308991144850198  1.0000
  H   H7        1.0  0.39935072948368616  0.6583499427554359  0.2691076868894982  1.0000
  H   H8        1.0  0.3993153822133025  0.1583635241079691  0.23091159893832014  1.0000
  H   H9        1.0  0.6070727045366126  0.7790030215561359  0.7424914340645756  1.0000
  H   H10       1.0  0.6070618045458364  0.27902455433230244  0.7575048192329917  1.0000
  H   H11       1.0  0.3929229346740399  0.7790056795842304  0.24248550389364715  1.0000
  H   H12       1.0  0.39286627909863375  0.2790196206120753  0.257525154326693  1.0000
  H   H13       1.0  0.8555574260960341  0.6156394438806246  0.9183206804230154  1.0000
  H   H14       1.0  0.8556088753647159  0.11562106002800479  0.5817023385824385  1.0000
  H   H15       1.0  0.1444768446246556  0.6156270139990383  0.4182993400320356  1.0000
  H   H16       1.0  0.1444342380267614  0.11564175807953347  0.08172359028164072  1.0000
  H   H17       1.0  0.047839519715239504  0.6593016049068936  0.0828064628318543  1.0000
  H   H18       1.0  0.04789142213543579  0.15926663129842916  0.417204463664902  1.0000
  H   H19       1.0  0.9521661747553127  0.6592676419682846  0.5827923875551805  1.0000
  H   H20       1.0  0.9522053644950575  0.15927131733769778  0.9172166532436492  1.0000
  H   H21       1.0  0.9269506948848302  0.8207829574392349  0.14034290369444594  1.0000
  H   H22       1.0  0.9269792807246733  0.3207362757166692  0.3596466780486125  1.0000
  H   H23       1.0  0.0730156954800165  0.8207414748020767  0.6403516201496516  1.0000
  H   H24       1.0  0.07308749183618352  0.3207458648970842  0.859655394029879  1.0000
  H   H25       1.0  0.3815041676933575  0.9537895329668231  0.09659332265631093  1.0000
  H   H26       1.0  0.3815082780567566  0.45373885734481695  0.40337183276965766  1.0000
  H   H27       1.0  0.6185190109779057  0.9537439852807024  0.5965885302683703  1.0000
  H   H28       1.0  0.6185434535298954  0.45374507156631694  0.903394724776881  1.0000
  H   H29       1.0  0.8058344290062821  0.9875160137257168  0.0802349672504121  1.0000
  H   H30       1.0  0.8058176048719333  0.4874858399641938  0.4197198725732109  1.0000
  H   H31       1.0  0.19419291770812208  0.9874934895478447  0.580263476675114  1.0000
  H   H32       1.0  0.19419642764467682  0.48749713374893133  0.9197320547786064  1.0000
  H   H33       1.0  0.5107574319514966  0.9986426245715022  0.9839763000570444  1.0000
  H   H34       1.0  0.5107070607715656  0.4986160849192842  0.5159730025979457  1.0000
  H   H35       1.0  0.48922840768316433  0.9986133855375101  0.4839952948346707  1.0000
  H   H36       1.0  0.4892670034541737  0.4986227339208682  0.0159941264506287  1.0000
  C   C1        1.0  0.6340015372910204  0.7480916850851144  0.8910893493121393  1.0000
  C   C2        1.0  0.6340138619302422  0.24808331580719312  0.608906420461942  1.0000
  C   C3        1.0  0.3659974724295836  0.748086986044207  0.391087854656881  1.0000
  C   C4        1.0  0.36595387225709436  0.24809242007857793  0.10893332056519972  1.0000
  C   C5        1.0  0.5148088504087838  0.7265142021345599  0.7928294306354645  1.0000
  C   C6        1.0  0.514815042022363  0.2265232468948071  0.7071716594583748  1.0000
  C   C7        1.0  0.48519634268215844  0.7265105345188517  0.2928193471722977  1.0000
  C   C8        1.0  0.4851567775705021  0.22652924155156737  0.2071935200805797  1.0000
  C   C9        1.0  0.8045633037929677  0.6839317301889523  0.9473056770861704  1.0000
  C   C10       1.0  0.8046031023612701  0.18391163591739  0.5527111075991584  1.0000
  C   C11       1.0  0.1954286545592936  0.6839133345996159  0.4472911017259165  1.0000
  C   C12       1.0  0.1954049016450696  0.1839187764184729  0.052727056545904816  1.0000
  C   C13       1.0  0.912518335867084  0.7086647282094064  0.0381512803241364  1.0000
  C   C14       1.0  0.9125533546032829  0.20863748206249258  0.46185405299651455  1.0000
  C   C15       1.0  0.08747797256930309  0.7086389934405518  0.5381464146370974  1.0000
  C   C16       1.0  0.0874723172925016  0.20864418494202397  0.9618740325635855  1.0000
  C   C17       1.0  0.8454703383850133  0.7975991270393762  0.070349761389771  1.0000
  C   C18       1.0  0.8455217854457403  0.2975722807530445  0.42964846394323797  1.0000
  C   C19       1.0  0.1545090206426067  0.7975748782932329  0.5703501357782984  1.0000
  C   C20       1.0  0.15453504598222884  0.29757770903241004  0.9296587763546216  1.0000
  C   C21       1.0  0.6722828807591272  0.859648591812686  0.0117873467264573  1.0000
  C   C22       1.0  0.6722966007938211  0.35962308895835793  0.4881955873987495  1.0000
  C   C23       1.0  0.32769624397168673  0.8596255938849426  0.5117929762038216  1.0000
  C   C24       1.0  0.3276896260550686  0.35963321885399324  0.9882097351266028  1.0000
  C   C25       1.0  0.5891513989058694  0.9552472659388515  0.04421441410168111  1.0000
  C   C26       1.0  0.5891561367334289  0.4552104331938693  0.4557522024363508  1.0000
  C   C27       1.0  0.41083284532597725  0.9552187121134351  0.5442237586107624  1.0000
  C   C28       1.0  0.4108604586398884  0.45521638730591  0.955773614378657  1.0000
  Br  Br1       1.0  0.9228866809322724  0.9992929652420487  0.7723587343728653  1.0000
  Br  Br2       1.0  0.9229124621138142  0.49927829024380094  0.7276297437769657  1.0000
  Br  Br3       1.0  0.07701783838458451  0.9993294338319814  0.2724031425629434  1.0000
  Br  Br4       1.0  0.07707666706926371  0.49929957542892106  0.22762446129338806  1.0000
  N   N1        1.0  0.5693405911455897  0.8346712381459724  0.9235767536161746  1.0000
  N   N2        1.0  0.5693769808481124  0.3346605116654188  0.5764069541338729  1.0000
  N   N3        1.0  0.4306239479194787  0.8346652853470858  0.4235833542040909  1.0000
  N   N4        1.0  0.43064254290608517  0.3346662916404953  0.07642349283651133  1.0000
