data_image0
_chemical_formula_structural       Cd2H24C32N2O14
_chemical_formula_sum              "Cd2 H24 C32 N2 O14"
_cell_length_a       7.116401777339644
_cell_length_b       7.475992803677428
_cell_length_c       14.955683364277727
_cell_angle_alpha    80.53936352064883
_cell_angle_beta     88.78188703573589
_cell_angle_gamma    68.56044662369783

_space_group_name_H-M_alt    "P 1"
_space_group_IT_number       1

loop_
  _space_group_symop_operation_xyz
  'x, y, z'

loop_
  _atom_site_type_symbol
  _atom_site_label
  _atom_site_symmetry_multiplicity
  _atom_site_fract_x
  _atom_site_fract_y
  _atom_site_fract_z
  _atom_site_occupancy
  Cd  Cd1       1.0  0.7330528221128816  0.1916881127387811  0.464270151680843  1.0000
  Cd  Cd2       1.0  0.2669226796988155  0.8083163336906625  0.5357308521280117  1.0000
  H   H1        1.0  0.9899674282613589  0.0589928905373469  0.06458357577928807  1.0000
  H   H2        1.0  0.010063267096647645  0.9410069339786274  0.9354120019982801  1.0000
  H   H3        1.0  0.6507242773999024  0.920342431300206  0.3851864941585815  1.0000
  H   H4        1.0  0.3492427718287487  0.07966205292126459  0.6148152458215606  1.0000
  H   H5        1.0  0.8953494469876377  0.8265149906902989  0.4049486480156474  1.0000
  H   H6        1.0  0.10461026312675871  0.1734866047638732  0.5950527250532289  1.0000
  H   H7        1.0  0.705606693271065  0.15807261718615703  0.2546008706880301  1.0000
  H   H8        1.0  0.2943953899036983  0.8419245194398358  0.7454092116383535  1.0000
  H   H9        1.0  0.6403018899734079  0.3653883310434977  0.10015654611559198  1.0000
  H   H10       1.0  0.3597221113635104  0.6346028879262915  0.899852508097517  1.0000
  H   H11       1.0  0.5807979054728847  0.8549114021314708  0.23333988299499  1.0000
  H   H12       1.0  0.41920989506129297  0.14508564746212468  0.7666621349593683  1.0000
  H   H13       1.0  0.6425426682166561  0.6291610713425725  0.3796759349339709  1.0000
  H   H14       1.0  0.3574530307191638  0.3708418854635198  0.6203303731917558  1.0000
  H   H15       1.0  0.5869622345685743  0.6703148542221127  0.00594552320916362  1.0000
  H   H16       1.0  0.41304510007907413  0.3296647448060597  0.9940599567148637  1.0000
  H   H17       1.0  0.49323419706229293  0.028684437046493403  0.1007071447388554  1.0000
  H   H18       1.0  0.506782574092199  0.9713038113119692  0.8992915186923227  1.0000
  H   H19       1.0  0.17015311149629034  0.1271424719509753  0.2027168738042846  1.0000
  H   H20       1.0  0.8298475362497016  0.8728662073581788  0.7972788869893606  1.0000
  H   H21       1.0  0.09316009420621905  0.41109225216300155  0.0785156901109048  1.0000
  H   H22       1.0  0.9068585576504093  0.5889134359153159  0.9214788317736903  1.0000
  H   H23       1.0  0.13220147643492916  0.7652150882322032  0.27245830235842317  1.0000
  H   H24       1.0  0.8677954303772636  0.23478487108307888  0.7275382153301777  1.0000
  C   C1        1.0  0.673331883294779  0.3141642805123935  0.24557139424887714  1.0000
  C   C2        1.0  0.3266778016439391  0.6858313604312086  0.7544374116838097  1.0000
  C   C3        1.0  0.6368643219546899  0.43017691584148554  0.1606334323140004  1.0000
  C   C4        1.0  0.36315578711707985  0.5698172131848692  0.8393734063292014  1.0000
  C   C5        1.0  0.6018268555722629  0.6300844302512516  0.1524342046594285  1.0000
  C   C6        1.0  0.3981828874634346  0.36991116704219706  0.8475692552089028  1.0000
  C   C7        1.0  0.6047189167100271  0.7026603273288713  0.23320849316333175  1.0000
  C   C8        1.0  0.39528156162064937  0.29734115002968753  0.7667972294644938  1.0000
  C   C9        1.0  0.6417741398413243  0.577369423003482  0.3156646413923808  1.0000
  C   C10       1.0  0.35822212309101087  0.42263206506668627  0.6843404469340229  1.0000
  C   C11       1.0  0.5677836301177522  0.7491140980717503  0.06308529684317679  1.0000
  C   C12       1.0  0.43223138130158395  0.2508712781561329  0.9369176322075461  1.0000
  C   C13       1.0  0.5153395451641886  0.9457160713553705  0.044994714763262805  1.0000
  C   C14       1.0  0.4846870716025934  0.05427214473430549  0.9550045376938384  1.0000
  C   C15       1.0  0.18964359599100789  0.46530984490071586  0.32643510871427134  1.0000
  C   C16       1.0  0.810344383773597  0.5346988829120817  0.6735607539492392  1.0000
  C   C17       1.0  0.20085916340892143  0.2834750398605266  0.3070268604338864  1.0000
  C   C18       1.0  0.7991343933482681  0.7165263771441915  0.6929682266596089  1.0000
  C   C19       1.0  0.1670161255839346  0.2663777250179677  0.2172964499103429  1.0000
  C   C20       1.0  0.8329896924357102  0.7336396525269747  0.7826965378953332  1.0000
  C   C21       1.0  0.12328942638550439  0.42555343229189196  0.1475804260298261  1.0000
  C   C22       1.0  0.8767279184141401  0.5744406693191664  0.8524217574448159  1.0000
  C   C23       1.0  0.10992764928886346  0.6072391674290711  0.166831130488589  1.0000
  C   C24       1.0  0.8900757385563695  0.39276222821940376  0.8331658821469219  1.0000
  C   C25       1.0  0.1417310986731409  0.6255023005870083  0.2563899753136525  1.0000
  C   C26       1.0  0.8582534269802408  0.3745006338582044  0.7436084042665455  1.0000
  C   C27       1.0  0.24117538239268313  0.4923698199260753  0.4191924965872573  1.0000
  C   C28       1.0  0.758804708785391  0.5076374769428184  0.580802882448218  1.0000
  C   C29       1.0  0.23712519572049467  0.10771256784907017  0.37983037976783146  1.0000
  C   C30       1.0  0.762868662383518  0.8922917648694054  0.6201651308313103  1.0000
  C   C31       1.0  0.06192540117726966  0.7767928077905211  0.09284973110543861  1.0000
  C   C32       1.0  0.9380965112023815  0.22320416062879636  0.9071488323699554  1.0000
  N   N1        1.0  0.6762906650997424  0.3861132286634898  0.3221827859431841  1.0000
  N   N2        1.0  0.3237083911531967  0.6138882649968951  0.6778242845196019  1.0000
  O   O1        1.0  0.3725497858593841  0.35284974190125945  0.47002179903436303  1.0000
  O   O2        1.0  0.6274423947793225  0.6471589861124657  0.5299760344466549  1.0000
  O   O3        1.0  0.1495816311237946  0.6624644051459326  0.4391196399274975  1.0000
  O   O4        1.0  0.8503961048876008  0.33753418270859464  0.5608784894581973  1.0000
  O   O5        1.0  0.40061853648536777  0.9622505384058825  0.38392583222611876  1.0000
  O   O6        1.0  0.5993530101911732  0.037742206840683  0.6160674858755257  1.0000
  O   O7        1.0  0.0949840885822013  0.10883107514936088  0.4330135651034226  1.0000
  O   O8        1.0  0.9049974778949732  0.8911834946686099  0.5669811963916089  1.0000
  O   O9        1.0  0.06110707941435578  0.7594180840242403  0.01098842181508529  1.0000
  O   O10       1.0  0.9388977764678543  0.24059059002957636  0.9890086415380209  1.0000
  O   O11       1.0  0.019838801562386356  0.9472776566251822  0.11955729683543134  1.0000
  O   O12       1.0  0.9802014380610944  0.052719219908247794  0.8804384464624205  1.0000
  O   O13       1.0  0.7793848018481385  0.9430477530967919  0.3773303034084705  1.0000
  O   O14       1.0  0.22057942501141534  0.0569567473595285  0.6226721274674603  1.0000
