data_image0
_chemical_formula_structural       Al2H18C36O24
_chemical_formula_sum              "Al2 H18 C36 O24"
_cell_length_a       4.274349591015562
_cell_length_b       17.176501376591077
_cell_length_c       17.176478550305195
_cell_angle_alpha    120.00010138339346
_cell_angle_beta     90.00029126534994
_cell_angle_gamma    89.99993352600514

_space_group_name_H-M_alt    "P 1"
_space_group_IT_number       1

loop_
  _space_group_symop_operation_xyz
  'x, y, z'

loop_
  _atom_site_type_symbol
  _atom_site_label
  _atom_site_symmetry_multiplicity
  _atom_site_fract_x
  _atom_site_fract_y
  _atom_site_fract_z
  _atom_site_occupancy
  Al  Al1       1.0  0.9888443881430504  0.5000011576132763  0.5000007739970371  1.0000
  Al  Al2       1.0  0.010657593088666302  0.1666664098025094  0.8333331102744737  1.0000
  H   H1        1.0  0.2904913397313749  0.10614041518636694  0.523954038703863  1.0000
  H   H2        1.0  0.704753211617657  0.10672571541776665  0.5255418906565694  1.0000
  H   H3        1.0  0.7102126295902593  0.19047962650368072  0.4395020734804759  1.0000
  H   H4        1.0  0.2959905461573483  0.19195896962797568  0.440006429244228  1.0000
  H   H5        1.0  0.2904885113347859  0.917815460839023  0.8938592262772644  1.0000
  H   H6        1.0  0.7047503603310545  0.918818251606936  0.8932736931293305  1.0000
  H   H7        1.0  0.7102127283243577  0.7490255442962022  0.809519568336661  1.0000
  H   H8        1.0  0.2959929701021906  0.7480484464907915  0.8080394049595153  1.0000
  H   H9        1.0  0.29048602662164313  0.4760421144215882  0.08218314956680922  1.0000
  H   H10       1.0  0.7047502169768266  0.4744578965501844  0.08118401029695112  1.0000
  H   H11       1.0  0.710205191604949  0.5604977049780828  0.25097695627802347  1.0000
  H   H12       1.0  0.29598311751320944  0.5599929970079031  0.25195166715566586  1.0000
  H   H13       1.0  0.8910425470427158  0.5566049526446477  0.7621146813673575  1.0000
  H   H14       1.0  0.10873563559083982  0.4288299815023605  0.889857778976392  1.0000
  H   H15       1.0  0.8910436662213073  0.7055098885004722  0.44339419239229005  1.0000
  H   H16       1.0  0.1087475647357863  0.9610281430826574  0.5711680935453671  1.0000
  H   H17       1.0  0.8910409080937213  0.2378845779709024  0.2944878963184791  1.0000
  H   H18       1.0  0.1087371492745106  0.11014457632956007  0.03897227789747148  1.0000
  C   C1        1.0  0.4924752518951935  0.43475649608505046  0.3640707275804758  1.0000
  C   C2        1.0  0.4924772937285198  0.42931454396294544  0.5652447457624418  1.0000
  C   C3        1.0  0.49248154898472773  0.635931167099791  0.5706854752884069  1.0000
  C   C4        1.0  0.507251581208152  0.2321104784222924  0.7627800355731154  1.0000
  C   C5        1.0  0.5072520994567215  0.030670515461508587  0.7678899881447377  1.0000
  C   C6        1.0  0.5072583319003883  0.237219837504341  0.9693303448593581  1.0000
  C   C7        1.0  0.49621536524771404  0.28292089759661815  0.7130989244367214  1.0000
  C   C8        1.0  0.5035579700585373  0.37968765470638716  0.6161060266066583  1.0000
  C   C9        1.0  0.49471020123602477  0.23935660208262266  0.6196605625309386  1.0000
  C   C10       1.0  0.4979252172006099  0.4252053017909672  0.711105140361546  1.0000
  C   C11       1.0  0.5055884664137054  0.28626828950417144  0.5726439664969263  1.0000
  C   C12       1.0  0.501666724890505  0.3779263139533455  0.7585053536640842  1.0000
  C   C13       1.0  0.4972128589649786  0.14807902569375378  0.5345421193437686  1.0000
  C   C14       1.0  0.5034704624503163  0.20107848114995625  0.48142259750643757  1.0000
  C   C15       1.0  0.4962209244043194  0.9301793063271403  0.7170784858585434  1.0000
  C   C16       1.0  0.5035618650551399  0.7364202446772623  0.6203110593320389  1.0000
  C   C17       1.0  0.4947054592636775  0.8803068642126277  0.7606435823383109  1.0000
  C   C18       1.0  0.49793002517628093  0.785899966917654  0.5747936041342355  1.0000
  C   C19       1.0  0.5055887308826571  0.786377935021278  0.7137321853674051  1.0000
  C   C20       1.0  0.5016758818241911  0.8805799785242172  0.6220729057233213  1.0000
  C   C21       1.0  0.4972096705386306  0.8864642865337088  0.8519207670715047  1.0000
  C   C22       1.0  0.5034723229571655  0.7803463344100903  0.7989210604057816  1.0000
  C   C23       1.0  0.4962252441030728  0.2869005953954442  0.06982146413029257  1.0000
  C   C24       1.0  0.5035520648973347  0.38389474170875093  0.26358229727701127  1.0000
  C   C25       1.0  0.4947095105809609  0.3803390785409987  0.11969647269896198  1.0000
  C   C26       1.0  0.49792285930782754  0.2888957778683334  0.21410105212392946  1.0000
  C   C27       1.0  0.5055821785948708  0.4273575823705399  0.21362440034434363  1.0000
  C   C28       1.0  0.5016722922923974  0.24149592110420307  0.11942271012347305  1.0000
  C   C29       1.0  0.49720319792997725  0.4654577338474012  0.1135369085750283  1.0000
  C   C30       1.0  0.5034600678217843  0.5185769071502476  0.21965547903601376  1.0000
  C   C31       1.0  0.45191381591546803  0.5253060066004946  0.7615987685257791  1.0000
  C   C32       1.0  0.5476886542998756  0.42841923102044865  0.8585906911630302  1.0000
  C   C33       1.0  0.4519127726462671  0.7362913496747296  0.47469376049360074  1.0000
  C   C34       1.0  0.5476916153703757  0.9301692925622048  0.5715787778598055  1.0000
  C   C35       1.0  0.4519071189081103  0.2384017313970474  0.2637079254179112  1.0000
  C   C36       1.0  0.5476954003143746  0.1414098028639756  0.06982970242856368  1.0000
  O   O1        1.0  0.7214850282133015  0.5960096555289097  0.583034669216346  1.0000
  O   O2        1.0  0.7214834747239038  0.48702557343575137  0.40399196638460916  1.0000
  O   O3        1.0  0.7214847363392353  0.4169671384489604  0.5129748331259947  1.0000
  O   O4        1.0  0.25253585692436087  0.5997800837933056  0.52131229621461  1.0000
  O   O5        1.0  0.2525390535446661  0.47868862380573063  0.5784688302392169  1.0000
  O   O6        1.0  0.2525373880063952  0.4215328153764161  0.40022212227614057  1.0000
  O   O7        1.0  0.7471846424566024  0.18784955209737564  0.933112837035509  1.0000
  O   O8        1.0  0.7471786102189669  0.24526278340503888  0.8121496169481759  1.0000
  O   O9        1.0  0.7471807839110126  0.06688841773021176  0.7547375411709538  1.0000
  O   O10       1.0  0.2781587175688998  0.24957250427676309  0.9294257267847001  1.0000
  O   O11       1.0  0.27815335092919474  0.07057450527583575  0.8201479484277029  1.0000
  O   O12       1.0  0.2781453758700324  0.17985357143972866  0.7504274275023234  1.0000
  O   O13       1.0  0.670007683658895  0.5785903153114585  0.7607188715834566  1.0000
  O   O14       1.0  0.20181526739783354  0.5572615050272347  0.8007473073134078  1.0000
  O   O15       1.0  0.3296911148431931  0.42745546150996444  0.9118631051409308  1.0000
  O   O16       1.0  0.7978088108135779  0.4675733191018449  0.8905155000521957  1.0000
  O   O17       1.0  0.6700110398191726  0.6821294189777942  0.42141120735842436  1.0000
  O   O18       1.0  0.20182526195937103  0.7434842090550687  0.4427376462042005  1.0000
  O   O19       1.0  0.3297074575971877  0.9844066451645614  0.5725410924179853  1.0000
  O   O20       1.0  0.7978298786577724  0.9229371940897265  0.5324220217654982  1.0000
  O   O21       1.0  0.6700086818850934  0.23928017826991524  0.3178701985598735  1.0000
  O   O22       1.0  0.2018129467452141  0.19925145199150043  0.25651318635654957  1.0000
  O   O23       1.0  0.32968753944489754  0.088139092359576  0.015591453645008389  1.0000
  O   O24       1.0  0.7978014351677487  0.10948550353010228  0.07705771614469369  1.0000
