data_image0
_chemical_formula_structural       Li4H16C36N16O12F12
_chemical_formula_sum              "Li4 H16 C36 N16 O12 F12"
_cell_length_a       8.616624964001131
_cell_length_b       11.630952881550288
_cell_length_c       12.1490614704137
_cell_angle_alpha    106.36019335796766
_cell_angle_beta     89.99994192043174
_cell_angle_gamma    90.00002478623303

_space_group_name_H-M_alt    "P 1"
_space_group_IT_number       1

loop_
  _space_group_symop_operation_xyz
  'x, y, z'

loop_
  _atom_site_type_symbol
  _atom_site_label
  _atom_site_symmetry_multiplicity
  _atom_site_fract_x
  _atom_site_fract_y
  _atom_site_fract_z
  _atom_site_occupancy
  Li  Li1       1.0  0.6980585057683015  0.7088292360287907  0.5568511605974108  1.0000
  Li  Li2       1.0  0.19805854154007824  0.7911705146361143  0.9431481926974922  1.0000
  Li  Li3       1.0  0.3019416547363889  0.29117121762678266  0.44314760675949555  1.0000
  Li  Li4       1.0  0.8019404584162331  0.20882994208992042  0.056852221703103056  1.0000
  H   H1        1.0  0.8732643236652109  0.9349087054138182  0.19055853759979152  1.0000
  H   H2        1.0  0.3732632584655704  0.5650914510555651  0.30944109809369985  1.0000
  H   H3        1.0  0.12673699738609656  0.06509174977708909  0.8094410532783625  1.0000
  H   H4        1.0  0.6267357414913305  0.4349090041351999  0.69055849278525  1.0000
  H   H5        1.0  0.9816872704783322  0.7952696951552907  0.15476907537062343  1.0000
  H   H6        1.0  0.4816862354111037  0.7047304742650482  0.3452304859205312  1.0000
  H   H7        1.0  0.018314050572975298  0.20473076003561627  0.8452305155075306  1.0000
  H   H8        1.0  0.5183139250924073  0.29526998246105046  0.6547699284796663  1.0000
  H   H9        1.0  0.1359024202593559  0.8694631310874286  0.32366247725885694  1.0000
  H   H10       1.0  0.6359021679966543  0.630536998564736  0.17633814483919957  1.0000
  H   H11       1.0  0.8640977402435651  0.13053732717393976  0.676338760662979  1.0000
  H   H12       1.0  0.3640968319596566  0.36946345816129866  0.8236622695613887  1.0000
  H   H13       1.0  0.031165081538432598  0.008951725572821099  0.3574928164324404  1.0000
  H   H14       1.0  0.5311662481578665  0.49104671363554075  0.14250647717586415  1.0000
  H   H15       1.0  0.9688339184177931  0.9910478350983423  0.6425073577459556  1.0000
  H   H16       1.0  0.46883275179894207  0.5089528455003529  0.8574928734808862  1.0000
  C   C1        1.0  0.6628486532002923  0.3004376446989525  0.4059199339099634  1.0000
  C   C2        1.0  0.16284797433399936  0.19956260234845047  0.09407974977907677  1.0000
  C   C3        1.0  0.3371515073032256  0.6995628120271533  0.594080480490234  1.0000
  C   C4        1.0  0.8371521861695184  0.800437854377655  0.9059206646211134  1.0000
  C   C5        1.0  0.7874055432016288  0.21870014773811156  0.37136895649723556  1.0000
  C   C6        1.0  0.2874048625188479  0.2813001157226935  0.12863146523964275  1.0000
  C   C7        1.0  0.21259461730129198  0.7813003105232565  0.6286322814246075  1.0000
  C   C8        1.0  0.7125952979846631  0.7187003410034123  0.8713689491605546  1.0000
  C   C9        1.0  0.5750056701031242  0.1234826103518216  0.3405332252679684  1.0000
  C   C10       1.0  0.07500616131549978  0.37651762773820246  0.15946734222219308  1.0000
  C   C11       1.0  0.42499449040038667  0.8765178463742839  0.659467189132229  1.0000
  C   C12       1.0  0.9249939991880108  0.6234828289878961  0.8405330721780047  1.0000
  C   C13       1.0  0.6729106008967917  0.4254347486237151  0.4519941956954268  1.0000
  C   C14       1.0  0.17291107568099304  0.07456550269617418  0.04800712813176489  1.0000
  C   C15       1.0  0.3270883990589298  0.5745657096375821  0.548007042226814  1.0000
  C   C16       1.0  0.827089084821935  0.9254349555651944  0.9519941097900783  1.0000
  C   C17       1.0  0.9474879461866834  0.24435361765304714  0.37696883809133647  1.0000
  C   C18       1.0  0.44748725857363764  0.25564666492937244  0.12303147379331136  1.0000
  C   C19       1.0  0.0525122143162449  0.755646840608328  0.6230323998305065  1.0000
  C   C20       1.0  0.5525117413826733  0.7443537917966624  0.8769689406072839  1.0000
  C   C21       1.0  0.4629420689313974  0.021402558746430596  0.30276840587665527  1.0000
  C   C22       1.0  0.9629419894825016  0.47859772568199305  0.19723189540280822  1.0000
  C   C23       1.0  0.537058091572703  0.9785978964444122  0.6972311850018967  1.0000
  C   C24       1.0  0.037057010473723985  0.5214018349891703  0.8027682787755879  1.0000
  C   C25       1.0  0.8071826001004752  0.8163565037064158  0.37418148597846806  1.0000
  C   C26       1.0  0.30718302711711937  0.6836427472795491  0.1258171313174684  1.0000
  C   C27       1.0  0.1928163998569303  0.18364305389420818  0.6258170411566366  1.0000
  C   C28       1.0  0.6928159728390141  0.3163559173367431  0.874182802638721  1.0000
  C   C29       1.0  0.921706681009482  0.8632025558398978  0.22211997780733836  1.0000
  C   C30       1.0  0.4217068632570644  0.6367976064159251  0.2778796246434608  1.0000
  C   C31       1.0  0.07829347949461857  0.13679789935093817  0.7778796130712063  1.0000
  C   C32       1.0  0.5782932972464536  0.3632028503101806  0.7221207897567365  1.0000
  C   C33       1.0  0.021283304361368494  0.9113333481037172  0.33022700213020056  1.0000
  C   C34       1.0  0.5212830371044177  0.5886658702672276  0.16977263487829214  1.0000
  C   C35       1.0  0.9787156955948503  0.08866621256744617  0.6697731720481881  1.0000
  C   C36       1.0  0.4787159628518011  0.4113336904039357  0.8302275393000969  1.0000
  N   N1        1.0  0.5266317424240157  0.23770958015373364  0.3858824666963016  1.0000
  N   N2        1.0  0.026631071428781197  0.26229065215802894  0.11411813398956377  1.0000
  N   N3        1.0  0.4733684180795024  0.7622908765723722  0.614117947703896  1.0000
  N   N4        1.0  0.9733679285275298  0.7377098045680058  0.8858822804110315  1.0000
  N   N5        1.0  0.6858286543957632  0.5288344764135572  0.4904824174057224  1.0000
  N   N6        1.0  0.18582825464650907  0.9711656592022134  0.009518170431860424  1.0000
  N   N7        1.0  0.3141703455598729  0.4711650857928689  0.5095185802943121  1.0000
  N   N8        1.0  0.8141707453092122  0.02883479905908359  0.9904830674903805  1.0000
  N   N9        1.0  0.0798094749911158  0.26643608532432944  0.38200518996747945  1.0000
  N   N10       1.0  0.5798082056255254  0.23356415333940106  0.11799537422680827  1.0000
  N   N11       1.0  0.9201906855128995  0.7335634738116424  0.6179941606888731  1.0000
  N   N12       1.0  0.42019079433078577  0.7664363033866334  0.8820050401737869  1.0000
  N   N13       1.0  0.7290451028361601  0.10580758835330066  0.32984278711871434  1.0000
  N   N14       1.0  0.22904558905180034  0.3941926681365117  0.17015767466603646  1.0000
  N   N15       1.0  0.2709550576673578  0.8941928683728049  0.670157627281476  1.0000
  N   N16       1.0  0.770954571451625  0.6058068925347226  0.8298424995119545  1.0000
  O   O1        1.0  0.7136157520087281  0.7753659786493541  0.42874573026054447  1.0000
  O   O2        1.0  0.21361628093765006  0.7246332611602  0.07125295124307471  1.0000
  O   O3        1.0  0.2863832479490824  0.22463178530626488  0.5712514929085089  1.0000
  O   O4        1.0  0.7863838795659603  0.2753680916207769  0.928747703379322  1.0000
  O   O5        1.0  0.7917172251429176  0.8050244494631895  0.26179990944783055  1.0000
  O   O6        1.0  0.2917174980243259  0.6949756957303278  0.23819895868304988  1.0000
  O   O7        1.0  0.2082829353616802  0.19497510813751254  0.7381986176868693  1.0000
  O   O8        1.0  0.7082826624798669  0.3050256555153794  0.7618008724177016  1.0000
  O   O9        1.0  0.9356296286358795  0.8763333984076098  0.4192727289052768  1.0000
  O   O10       1.0  0.4356312457630408  0.6236658694565024  0.08072662376857655  1.0000
  O   O11       1.0  0.06436821077364388  0.12366526467334177  0.5807263815296577  1.0000
  O   O12       1.0  0.5643689147405694  0.3763354833244747  0.9192740308538205  1.0000
  F   F1        1.0  0.31536806348554336  0.0627657569513147  0.2967869862314245  1.0000
  F   F2        1.0  0.8153679513926234  0.43723451138487945  0.20321423983837403  1.0000
  F   F3        1.0  0.6846320970173848  0.9372347013100606  0.7032142516904115  1.0000
  F   F4        1.0  0.18463104856427748  0.5627659438058925  0.7967853510405758  1.0000
  F   F5        1.0  0.4580494202859454  0.950977521760606  0.3759203125489918  1.0000
  F   F6        1.0  0.958049195295274  0.5490226448362775  0.12407926496272373  1.0000
  F   F7        1.0  0.5419530613124691  0.04902203737550079  0.6240790381065577  1.0000
  F   F8        1.0  0.04195212575603339  0.4509778103546295  0.8759203259154301  1.0000
  F   F9        1.0  0.4990435560290079  0.9476734807766931  0.1971291602361092  1.0000
  F   F10       1.0  0.9990430772444653  0.5523275883070082  0.3028714528884179  1.0000
  F   F11       1.0  0.5009577650217096  0.05232697594948378  0.8028712541636833  1.0000
  F   F12       1.0  0.0009570832597276997  0.44767376293869876  0.6971283782123334  1.0000
