data_image0
_chemical_formula_structural       CdH16C6N14
_chemical_formula_sum              "Cd1 H16 C6 N14"
_cell_length_a       7.745903874048219
_cell_length_b       7.871731482376355
_cell_length_c       9.023748333353673
_cell_angle_alpha    65.15503439937268
_cell_angle_beta     66.28742968183833
_cell_angle_gamma    73.24727694085725

_space_group_name_H-M_alt    "P 1"
_space_group_IT_number       1

loop_
  _space_group_symop_operation_xyz
  'x, y, z'

loop_
  _atom_site_type_symbol
  _atom_site_label
  _atom_site_symmetry_multiplicity
  _atom_site_fract_x
  _atom_site_fract_y
  _atom_site_fract_z
  _atom_site_occupancy
  Cd  Cd1       1.0  9.026414957761008e-06  0.9999953850394688  0.5000045260715495  1.0000
  H   H1        1.0  0.3757795597470094  0.9338517790949936  0.2778316981471889  1.0000
  H   H2        1.0  0.6242325055230113  0.06614539924234461  0.7221540525261075  1.0000
  H   H3        1.0  0.8466030471957496  0.24519844256285242  0.22769429097567695  1.0000
  H   H4        1.0  0.15339314649960306  0.7547972022838821  0.7723249729811316  1.0000
  H   H5        1.0  0.24414867681723265  0.7948034578408496  0.28493390368159066  1.0000
  H   H6        1.0  0.7558508534934207  0.2051921527608513  0.7150598556103204  1.0000
  H   H7        1.0  0.2345525698759944  0.3158795104226755  0.13912935482098018  1.0000
  H   H8        1.0  0.7654521561004088  0.6841187221078047  0.8608651426522301  1.0000
  H   H9        1.0  0.9156537809315637  0.3899112824061035  0.2774464663230206  1.0000
  H   H10       1.0  0.08435094662525702  0.6100846545616959  0.7225643196365966  1.0000
  H   H11       1.0  0.115794449993416  0.0123276162277079  0.08409681709977691  1.0000
  H   H12       1.0  0.8841915677300349  0.987671323019498  0.9159169745258637  1.0000
  H   H13       1.0  0.12035847642628995  0.3576062939251159  0.9885239899305915  1.0000
  H   H14       1.0  0.8796288363319537  0.6423845444204375  0.011485385709569465  1.0000
  H   H15       1.0  0.3474493211704583  0.07487045679026486  0.9926044240656398  1.0000
  H   H16       1.0  0.6525326510229378  0.9251293133225645  0.00739601459180483  1.0000
  C   C1        1.0  0.3302587140882168  0.16514898834994804  0.5864228880382854  1.0000
  C   C2        1.0  0.6697416802003034  0.8348587029046044  0.4135776958077173  1.0000
  C   C3        1.0  0.13514467687508616  0.26301112859106013  0.11480000207693307  1.0000
  C   C4        1.0  0.8648545090412013  0.7369852649134717  0.8852047079029502  1.0000
  C   C5        1.0  0.21768853238661734  0.0647838155983251  0.10587242595629219  1.0000
  C   C6        1.0  0.782301657841707  0.9352171555933921  0.8941282154607393  1.0000
  N   N1        1.0  0.15970775309661894  0.1783005978723153  0.5697583470090636  1.0000
  N   N2        1.0  0.8402949435232401  0.8217018150000542  0.4302365557205477  1.0000
  N   N3        1.0  0.31944200978044535  0.2810942032037929  0.6667042301720587  1.0000
  N   N4        1.0  0.6805684568522139  0.7189242319915222  0.3332739338204861  1.0000
  N   N5        1.0  0.13961175427468928  0.3662931433764456  0.698740597022301  1.0000
  N   N6        1.0  0.8603963538500498  0.6337105412744392  0.3012543078910214  1.0000
  N   N7        1.0  0.04272913685942111  0.3042826991189926  0.6416169533469755  1.0000
  N   N8        1.0  0.9572740787226055  0.6957150960551032  0.35838595608029084  1.0000
  N   N9        1.0  0.49992177107884583  0.050408185444823096  0.5399502421751734  1.0000
  N   N10       1.0  0.5000800453610807  0.9496216373804884  0.46002593108194395  1.0000
  N   N11       1.0  0.25020342750020325  0.930146980713218  0.267716890643868  1.0000
  N   N12       1.0  0.7497972259587302  0.06984966106521279  0.7322828122787542  1.0000
  N   N13       1.0  0.9535690962584269  0.2620274772508753  0.25708827656460204  1.0000
  N   N14       1.0  0.04643299775572981  0.7379669911837966  0.7429249777183671  1.0000
