data_image0
_chemical_formula_structural       Cd2H36C36N8O10
_chemical_formula_sum              "Cd2 H36 C36 N8 O10"
_cell_length_a       8.408057857198372
_cell_length_b       10.362370799445706
_cell_length_c       10.776752065812373
_cell_angle_alpha    98.65720402929664
_cell_angle_beta     99.45398659226049
_cell_angle_gamma    94.92606771051258

_space_group_name_H-M_alt    "P 1"
_space_group_IT_number       1

loop_
  _space_group_symop_operation_xyz
  'x, y, z'

loop_
  _atom_site_type_symbol
  _atom_site_label
  _atom_site_symmetry_multiplicity
  _atom_site_fract_x
  _atom_site_fract_y
  _atom_site_fract_z
  _atom_site_occupancy
  Cd  Cd1       1.0  0.5137803850678182  0.32143801553728213  0.382122213652707  1.0000
  Cd  Cd2       1.0  0.48621872031127095  0.6785603104825241  0.617875861874083  1.0000
  H   H1        1.0  0.6334102342883624  0.7565854374942446  0.9407514759980274  1.0000
  H   H2        1.0  0.36658792242126736  0.24341485464101  0.059248610153183306  1.0000
  H   H3        1.0  0.6122990437325625  0.9822494859212509  0.05042146150117328  1.0000
  H   H4        1.0  0.3876980357501765  0.017751788908149997  0.9495795494479823  1.0000
  H   H5        1.0  0.5408160713933511  0.831654584352478  0.3894170564936915  1.0000
  H   H6        1.0  0.4591855577423374  0.16834472840601217  0.6105842808902937  1.0000
  H   H7        1.0  0.7026159456103824  0.1041963786793474  0.5477075008290698  1.0000
  H   H8        1.0  0.2973859733792209  0.895804897195674  0.45229230026068024  1.0000
  H   H9        1.0  0.8669376127189848  0.502152351206341  0.5521958582566315  1.0000
  H   H10       1.0  0.133067674693514  0.4978469590760426  0.4478013272789881  1.0000
  H   H11       1.0  0.10078455917290087  0.3925722370027032  0.7076854050883912  1.0000
  H   H12       1.0  0.8992181553744486  0.607426092130126  0.29231408051084895  1.0000
  H   H13       1.0  0.12964071278609876  0.16590537679886097  0.752442646207982  1.0000
  H   H14       1.0  0.8703621466882013  0.8340939338922341  0.24755607124414794  1.0000
  H   H15       1.0  0.9963279938142475  0.033255144067304294  0.6556749930864144  1.0000
  H   H16       1.0  0.003669873041466966  0.9667431849514188  0.34432662935903124  1.0000
  H   H17       1.0  0.7874013614596221  0.0786680237006365  0.7943039943794548  1.0000
  H   H18       1.0  0.21259803411456346  0.9213411099112035  0.20569659434214327  1.0000
  H   H19       1.0  0.9686096490230648  0.027177171963650396  0.8742277544282049  1.0000
  H   H20       1.0  0.03138796924370976  0.9728280337564283  0.12577481886649616  1.0000
  H   H21       1.0  0.7871927971462255  0.1501456017576928  0.028356464733441642  1.0000
  H   H22       1.0  0.21281234533931573  0.8498527269664249  0.9716414889492883  1.0000
  H   H23       1.0  0.7069207618549739  0.2628697449179001  0.9313710361989113  1.0000
  H   H24       1.0  0.2930772581124613  0.7371295647275671  0.06862889111261689  1.0000
  H   H25       1.0  0.6130169121305542  0.5676624996591357  0.059593346909963395  1.0000
  H   H26       1.0  0.3869849986742934  0.4323387771474144  0.940407381166587  1.0000
  H   H27       1.0  0.8542719085441347  0.20717248571207844  0.2975298847145283  1.0000
  H   H28       1.0  0.1457236998546207  0.7928268224790571  0.7024697205399023  1.0000
  H   H29       1.0  0.9179439104009359  0.4416562118171187  0.06964451547821679  1.0000
  H   H30       1.0  0.08205435849662018  0.5583450656024881  0.9303585104730917  1.0000
  H   H31       1.0  0.7679393811539084  0.3749210189571812  0.14892430665965864  1.0000
  H   H32       1.0  0.2320572881022187  0.6250773084028581  0.8510762277704346  1.0000
  H   H33       1.0  0.2167930784075622  0.41087409809049547  0.14792251195741102  1.0000
  H   H34       1.0  0.7832045313332684  0.5891222640856028  0.8520769388350545  1.0000
  H   H35       1.0  0.16390230574705097  0.18406917723559957  0.4345122584655174  1.0000
  H   H36       1.0  0.8360918233829651  0.815928165248792  0.5654868680809886  1.0000
  C   C1        1.0  0.6163240035294919  0.7725777759959483  0.03952650521814859  1.0000
  C   C2        1.0  0.3836765483792987  0.2274225194566809  0.9604757569637674  1.0000
  C   C3        1.0  0.6017864427316509  0.8986387962235083  0.09983058381793337  1.0000
  C   C4        1.0  0.3982138520622554  0.10135953238650328  0.9001695067110093  1.0000
  C   C5        1.0  0.568866842362489  0.9198647139948265  0.22428071441049724  1.0000
  C   C6        1.0  0.4311347785884437  0.08013459969518522  0.775721549960281  1.0000
  C   C7        1.0  0.5611344704855269  0.8143744682425262  0.2912993573001614  1.0000
  C   C8        1.0  0.4388682358770594  0.1856238618218171  0.7087010552858788  1.0000
  C   C9        1.0  0.5395002161431676  0.05493530064625669  0.2832092736723909  1.0000
  C   C10       1.0  0.46049900960859697  0.94506400972638  0.7167908146676896  1.0000
  C   C11       1.0  0.7791383768025139  0.19767933634169305  0.5664783990127235  1.0000
  C   C12       1.0  0.22086490108314646  0.8023229208872423  0.4335198679716542  1.0000
  C   C13       1.0  0.8681882552877835  0.4035626682812745  0.5743057110340786  1.0000
  C   C14       1.0  0.13181487767091934  0.5964386073893948  0.4256933240974164  1.0000
  C   C15       1.0  0.984000173694298  0.35131812560705095  0.6511925273073943  1.0000
  C   C16       1.0  0.016005234090883405  0.648682169028163  0.34880667104151547  1.0000
  C   C17       1.0  0.0018143464200690944  0.1280135477072051  0.7183595496935598  1.0000
  C   C18       1.0  0.9981863749699541  0.8719877265091327  0.281639163380838  1.0000
  C   C19       1.0  0.9182155040892255  0.10785379449586686  0.8296835966398677  1.0000
  C   C20       1.0  0.081784413558303  0.892150427394192  0.17031635891184044  1.0000
  C   C21       1.0  0.8176013813951925  0.2412348072490076  0.9914158309435809  1.0000
  C   C22       1.0  0.18239946855226916  0.7587674503886389  0.008583967957306983  1.0000
  C   C23       1.0  0.5804234130239792  0.6879096416631115  0.23258957380665635  1.0000
  C   C24       1.0  0.41957955045349127  0.3120906552438569  0.7674130104323568  1.0000
  C   C25       1.0  0.574804715028236  0.5736690646264435  0.30318696472496504  1.0000
  C   C26       1.0  0.42519692229220846  0.42633024720052476  0.6968134456722127  1.0000
  C   C27       1.0  0.60416042554138  0.6672698970662125  0.10534977810897324  1.0000
  C   C28       1.0  0.3958425624903654  0.3327303970461912  0.8946500251696394  1.0000
  C   C29       1.0  0.9762849762016045  0.24414469861856963  0.28931730218218393  1.0000
  C   C30       1.0  0.0237091529284115  0.755852643865815  0.7106818243643291  1.0000
  C   C31       1.0  0.8719874237120635  0.35275240123818463  0.10271074853417878  1.0000
  C   C32       1.0  0.12801192241238366  0.6472478934872824  0.8972913526191919  1.0000
  C   C33       1.0  0.16288792216168696  0.3507992775519996  0.20754416429616643  1.0000
  C   C34       1.0  0.8371084817948001  0.6491970838969368  0.7924551254677612  1.0000
  C   C35       1.0  0.12828268105951676  0.23269528462202513  0.35373321927244217  1.0000
  C   C36       1.0  0.8717137147122143  0.7673010777584321  0.6462669974782786  1.0000
  N   N1        1.0  0.9262985106047096  0.22112363965835868  0.6447676684621657  1.0000
  N   N2        1.0  0.07370341656965708  0.7788776352851413  0.35523120564077715  1.0000
  N   N3        1.0  0.74152934068708  0.3068785721358935  0.5224067353732452  1.0000
  N   N4        1.0  0.2584736637141773  0.6931217201134672  0.47759121393176684  1.0000
  N   N5        1.0  0.0006092730136515013  0.3198570659846922  0.1973274922600154  1.0000
  N   N6        1.0  0.9993874044272456  0.6801412604438183  0.8026721151832847  1.0000
  N   N7        1.0  0.24325995822923113  0.2993148673086309  0.301713164070705  1.0000
  N   N8        1.0  0.756736445727263  0.7006814941403049  0.6982861256932156  1.0000
  O   O1        1.0  0.5962248300159272  0.1520038340726657  0.23651501116781057  1.0000
  O   O2        1.0  0.40377319813626394  0.8479954746412799  0.7634839891569173  1.0000
  O   O3        1.0  0.46048940229986357  0.0664680166497504  0.37433245313892644  1.0000
  O   O4        1.0  0.5395098234519081  0.933531293722879  0.6256676352011539  1.0000
  O   O5        1.0  0.9449770328401215  0.22735707874345928  0.919363222536383  1.0000
  O   O6        1.0  0.05502585152964198  0.772651073628566  0.08063676344436745  1.0000
  O   O7        1.0  0.5562371697253353  0.45854644986336274  0.23575578412581424  1.0000
  O   O8        1.0  0.4437607298694103  0.5414518754292742  0.7642421303724237  1.0000
  O   O9        1.0  0.5911022896312942  0.5932796920083232  0.4238218440677672  1.0000
  O   O10       1.0  0.4088965422633918  0.40671666903190123  0.5761759137796504  1.0000
