data_image0
_chemical_formula_structural       Zn2H30C50N2O8
_chemical_formula_sum              "Zn2 H30 C50 N2 O8"
_cell_length_a       16.16403823681419
_cell_length_b       18.268119170838606
_cell_length_c       19.676795914819706
_cell_angle_alpha    90.03448403307002
_cell_angle_beta     89.73430195922059
_cell_angle_gamma    90.08280076965579

_space_group_name_H-M_alt    "P 1"
_space_group_IT_number       1

loop_
  _space_group_symop_operation_xyz
  'x, y, z'

loop_
  _atom_site_type_symbol
  _atom_site_label
  _atom_site_symmetry_multiplicity
  _atom_site_fract_x
  _atom_site_fract_y
  _atom_site_fract_z
  _atom_site_occupancy
  Zn  Zn1       1.0  0.5001691722399216  0.576398961252444  0.5000351354455786  1.0000
  Zn  Zn2       1.0  0.4998324969728146  0.4235980243560248  0.4999486804395872  1.0000
  H   H1        1.0  0.9491839818244542  0.4317490917402579  0.4012659291396118  1.0000
  H   H2        1.0  0.0508145412971572  0.5682457219581989  0.5987549951575344  1.0000
  H   H3        1.0  0.4148865356998072  0.6923628746659103  0.5785683703737232  1.0000
  H   H4        1.0  0.585133016591854  0.30763688367996167  0.42145910063226194  1.0000
  H   H5        1.0  0.41161666702744537  0.8294203243500604  0.5829148919548927  1.0000
  H   H6        1.0  0.5883936111960963  0.17057887775328603  0.4171080317773104  1.0000
  H   H7        1.0  0.5882864766190538  0.8296336151394923  0.41701746145022156  1.0000
  H   H8        1.0  0.41172565771788777  0.1703666833189317  0.5830059652575272  1.0000
  H   H9        1.0  0.5852791257251083  0.692572672445415  0.42140080169761507  1.0000
  H   H10       1.0  0.4147398091349642  0.3074287276805804  0.5786266712443504  1.0000
  H   H11       1.0  0.630673429704636  0.9326238440774118  0.47758857508782165  1.0000
  H   H12       1.0  0.3693381051209883  0.06737863677204099  0.5224221482262124  1.0000
  H   H13       1.0  0.6307553188711025  0.06756860301242537  0.47761969238745633  1.0000
  H   H14       1.0  0.3692555926773834  0.9324333316383999  0.5223940819474533  1.0000
  H   H15       1.0  0.5010461756211129  0.38264897527879776  0.7169533571576208  1.0000
  H   H16       1.0  0.49906192383645015  0.6173645027416369  0.2830245635755091  1.0000
  H   H17       1.0  0.5013772387030073  0.3820713193456342  0.8440371604496377  1.0000
  H   H18       1.0  0.49879396159175826  0.6179476789024247  0.1559456612894436  1.0000
  H   H19       1.0  0.49829083883437164  0.6171705078642942  0.7170662581396596  1.0000
  H   H20       1.0  0.5018531527749132  0.3828446338321497  0.2829054608667363  1.0000
  H   H21       1.0  0.4036953017095115  0.581044911757587  0.0635279501035839  1.0000
  H   H22       1.0  0.5965229672793271  0.41901023847271546  0.9364379685846556  1.0000
  H   H23       1.0  0.0531510676059028  0.5570887928592541  0.39577598272660447  1.0000
  H   H24       1.0  0.9468499280707618  0.4429060233596188  0.6042464590922589  1.0000
  H   H25       1.0  0.049971200232711496  0.37331228301003694  0.5061518151284758  1.0000
  H   H26       1.0  0.950029793800681  0.626680343600192  0.4938706264837549  1.0000
  H   H27       1.0  0.49831533533541966  0.6177941847861347  0.8441454696150571  1.0000
  H   H28       1.0  0.5018701064284199  0.38222427097651485  0.15582816323453838  1.0000
  H   H29       1.0  0.4032518461977901  0.5809126952433984  0.9376051167645514  1.0000
  H   H30       1.0  0.5969831354687755  0.41915505702023376  0.06236126323975098  1.0000
  C   C1        1.0  0.5011669237262878  0.5001046809075262  0.3665986018247337  1.0000
  C   C2        1.0  0.4988836284991436  0.4999000009276669  0.6333830412227144  1.0000
  C   C3        1.0  0.5013516221823622  0.43378098555499617  0.8162775215111394  1.0000
  C   C4        1.0  0.4988010155577739  0.5662363582388534  0.18370636993382308  1.0000
  C   C5        1.0  0.4996117702883538  0.4999364732952215  0.8528767100049846  1.0000
  C   C6        1.0  0.5005687265138121  0.5000896432300691  0.1470979542464121  1.0000
  C   C7        1.0  0.4978062971186645  0.566073557414306  0.8163447126894068  1.0000
  C   C8        1.0  0.5023562640019889  0.43394597384561706  0.18362237936261036  1.0000
  C   C9        1.0  0.4980819576555078  0.5660736510860287  0.7456265589154824  1.0000
  C   C10       1.0  0.5020601735168526  0.43393930080925697  0.2543471980883325  1.0000
  C   C11       1.0  0.499120149154706  0.4999053633017922  0.7095406516651792  1.0000
  C   C12       1.0  0.500989802718891  0.5001042844542597  0.29043777157857414  1.0000
  C   C13       1.0  0.44682975438396977  0.5462472255781987  0.9649350752829449  1.0000
  C   C14       1.0  0.5533872646428009  0.4538013579615593  0.035036436715216696  1.0000
  C   C15       1.0  0.4470615385937293  0.5463147194618398  0.0356863772747218  1.0000
  C   C16       1.0  0.5531523868702876  0.45373167179413093  0.9642841269913587  1.0000
  C   C17       1.0  0.500356651979793  0.5000777769061812  0.07205224330611769  1.0000
  C   C18       1.0  0.4998517022954658  0.4999680641969204  0.9279203097984164  1.0000
  C   C19       1.0  0.4520912558797434  0.7256334660072241  0.5439679780712436  1.0000
  C   C20       1.0  0.5479239680330181  0.2743646457893405  0.4560569641705712  1.0000
  C   C21       1.0  0.45030940397213476  0.8016365120323669  0.5454883129054551  1.0000
  C   C22       1.0  0.5497058179607563  0.19836269565512046  0.45453866230069917  1.0000
  C   C23       1.0  0.662526490141154  0.49961642797748596  0.4989321667507978  1.0000
  C   C24       1.0  0.337477003633488  0.5003592162020352  0.5010628225122743  1.0000
  C   C25       1.0  0.49996069607755084  0.841714613896414  0.49998358972201357  1.0000
  C   C26       1.0  0.5000526761195586  0.15828732789288577  0.5000403417939338  1.0000
  C   C27       1.0  0.5496676067080127  0.8017576750812975  0.4544755546161808  1.0000
  C   C28       1.0  0.4503482350001277  0.1982420801630695  0.5455509106453603  1.0000
  C   C29       1.0  0.5480605174969995  0.7257522944171978  0.456033567245349  1.0000
  C   C30       1.0  0.45195594731997346  0.2742496497755909  0.5439908635807952  1.0000
  C   C31       1.0  0.5728830302399289  0.9620005541016141  0.4864131609814137  1.0000
  C   C32       1.0  0.42712849523825724  0.03799974012733999  0.5136031524937791  1.0000
  C   C33       1.0  0.572922647809861  0.0381187327159722  0.4864234750930976  1.0000
  C   C34       1.0  0.4270901155285003  0.9618832048438576  0.5135933431903013  1.0000
  C   C35       1.0  0.5000477378362476  0.07750832169844558  0.5000284927676119  1.0000
  C   C36       1.0  0.4999637841400498  0.9224919738887537  0.49999036178385126  1.0000
  C   C37       1.0  0.028537180591790397  0.5318618940235352  0.44205369401458927  1.0000
  C   C38       1.0  0.9714669103849828  0.46813182843625606  0.5579667059348807  1.0000
  C   C39       1.0  0.972819252014169  0.46192172849962543  0.4451185517424604  1.0000
  C   C40       1.0  0.027183604388980605  0.5380747298465919  0.5549013438120696  1.0000
  C   C41       1.0  0.7519865504691411  0.4997290041123248  0.4987010609350975  1.0000
  C   C42       1.0  0.2480274443915107  0.5002521292149352  0.5013086368097319  1.0000
  C   C43       1.0  0.9731131665027347  0.570502557095814  0.49657613488603397  1.0000
  C   C44       1.0  0.026888453198488097  0.4294900672242718  0.5034412227926451  1.0000
  C   C45       1.0  0.914954443704289  0.500706386724289  0.49957977354786454  1.0000
  C   C46       1.0  0.0850477906270086  0.49928459690227783  0.5004396150558463  1.0000
  C   C47       1.0  0.8274029508479828  0.5001929797173331  0.4991456854077042  1.0000
  C   C48       1.0  0.172586292986125  0.49979525658644525  0.50087119926269  1.0000
  C   C49       1.0  0.5006702019421994  0.4337601627678536  0.7455565306827481  1.0000
  C   C50       1.0  0.4994545926763152  0.5662500447963834  0.2544259155904243  1.0000
  N   N1        1.0  0.5001561369900216  0.6884406181085225  0.5000393814982756  1.0000
  N   N2        1.0  0.49986032548328996  0.3115591367472631  0.49998555733649397  1.0000
  O   O1        1.0  0.501191914809901  0.5622019374052057  0.396194730117628  1.0000
  O   O2        1.0  0.4988295592425516  0.43780984306367526  0.6037915712461979  1.0000
  O   O3        1.0  0.5011470297530847  0.4380276022343708  0.3961462815284945  1.0000
  O   O4        1.0  0.4988800226602094  0.5619830829210952  0.6038318722588443  1.0000
  O   O5        1.0  0.6273904561523266  0.5620343806583391  0.4991049034428698  1.0000
  O   O6        1.0  0.3726130481551664  0.43794783017393957  0.5008860207180559  1.0000
  O   O7        1.0  0.62723370073887  0.43720637843652804  0.499071451998958  1.0000
  O   O8        1.0  0.3727741397729289  0.5627785710328864  0.5009169188769105  1.0000
