data_image0
_chemical_formula_structural       Hg4H12C20N8O8
_chemical_formula_sum              "Hg4 H12 C20 N8 O8"
_cell_length_a       6.90626919468252
_cell_length_b       6.906190168870352
_cell_length_c       14.072101442573809
_cell_angle_alpha    90.77321161409326
_cell_angle_beta     90.77555641330012
_cell_angle_gamma    103.14416875384337

_space_group_name_H-M_alt    "P 1"
_space_group_IT_number       1

loop_
  _space_group_symop_operation_xyz
  'x, y, z'

loop_
  _atom_site_type_symbol
  _atom_site_label
  _atom_site_symmetry_multiplicity
  _atom_site_fract_x
  _atom_site_fract_y
  _atom_site_fract_z
  _atom_site_occupancy
  Hg  Hg1       1.0  0.7987238990700192  0.5117016610353461  0.45383008477998044  1.0000
  Hg  Hg2       1.0  0.511627159540069  0.7986474841152287  0.9538452926249337  1.0000
  Hg  Hg3       1.0  0.4161321382172004  0.3617441274021119  0.4395249174965272  1.0000
  Hg  Hg4       1.0  0.36177673476342415  0.4160342427966555  0.9395411381565711  1.0000
  H   H1        1.0  0.9651839105867379  0.41327126490046606  0.6663291054076341  1.0000
  H   H2        1.0  0.413268937325391  0.9652129715099423  0.16634341423077365  1.0000
  H   H3        1.0  0.0596365885608847  0.5870814981982875  0.8246985419309854  1.0000
  H   H4        1.0  0.5871426288634254  0.05971306644904929  0.3246907649012486  1.0000
  H   H5        1.0  0.23105827058434156  0.5543134622457516  0.1333581210804837  1.0000
  H   H6        1.0  0.5542310434228169  0.23095285080434286  0.6333242855715399  1.0000
  H   H7        1.0  0.5460362884411509  0.5070889505775966  0.22516215135024006  1.0000
  H   H8        1.0  0.5069840848959897  0.5459100520460609  0.7251223310391881  1.0000
  H   H9        1.0  0.9442586478382606  0.4515084117167946  0.013740371781956603  1.0000
  H   H10       1.0  0.4513646367817826  0.9441363965006816  0.5137076477146678  1.0000
  H   H11       1.0  0.9427294548140208  0.9569615413595616  0.5461069192285137  1.0000
  H   H12       1.0  0.956890393871525  0.9427412092662311  0.04608719462495971  1.0000
  C   C1        1.0  0.9821524210618903  0.5735818639255257  0.6748850862759924  1.0000
  C   C2        1.0  0.5735774574622851  0.9821908944256209  0.1748877961218867  1.0000
  C   C3        1.0  0.05770515950523954  0.8753813504319651  0.7659472120668485  1.0000
  C   C4        1.0  0.8754144239405334  0.05777703937339851  0.2659240611682421  1.0000
  C   C5        1.0  0.036718285367477704  0.6697121597000547  0.7619944393195652  1.0000
  C   C6        1.0  0.6697526615718344  0.036777775393296984  0.2619852856829183  1.0000
  C   C7        1.0  0.029008669299543027  0.5768359451159527  0.24686249987770748  1.0000
  C   C8        1.0  0.5767455482434369  0.028883886014973797  0.7468313588427051  1.0000
  C   C9        1.0  0.07699711216675813  0.542289509995314  0.1530929058742387  1.0000
  C   C10       1.0  0.5421882638672954  0.07688577728949751  0.6530601643120308  1.0000
  C   C11       1.0  0.6984946788754554  0.5127452977855286  0.20356530701430137  1.0000
  C   C12       1.0  0.5126431034973818  0.6983691625946092  0.7035327453350249  1.0000
  C   C13       1.0  0.9195732439517811  0.4863806538280002  0.0879860525947151  1.0000
  C   C14       1.0  0.48626635744373187  0.9194596571396901  0.5879529430990333  1.0000
  C   C15       1.0  0.9710419318064679  0.8745694453757124  0.6087639145575707  1.0000
  C   C16       1.0  0.8745218407903435  0.9710658843257179  0.10874683971933052  1.0000
  C   C17       1.0  0.12269158498609296  0.9908141010581488  0.8586728394676584  1.0000
  C   C18       1.0  0.9909031644940283  0.12278357014825052  0.35863561898768387  1.0000
  C   C19       1.0  0.18764059553920023  0.6182538109145244  0.3248627587517348  1.0000
  C   C20       1.0  0.6181658208971893  0.18750783358248668  0.8248354248223606  1.0000
  N   N1        1.0  0.839512102546038  0.563134788918525  0.2714162962413696  1.0000
  N   N2        1.0  0.5630459430175917  0.8393846783217784  0.7713868998734343  1.0000
  N   N3        1.0  0.7294845319467239  0.470768366746583  0.11268906912506793  1.0000
  N   N4        1.0  0.4706540068080329  0.7293599691967217  0.61265514835317  1.0000
  N   N5        1.0  0.026126525292568183  0.9784278767329155  0.6887560298105129  1.0000
  N   N6        1.0  0.978422657036418  0.026185662579912592  0.1887244736674347  1.0000
  N   N7        1.0  0.9477464025668068  0.6761035767125277  0.5986118990496794  1.0000
  N   N8        1.0  0.6760658629247728  0.9477579449262593  0.0986098039452443  1.0000
  O   O1        1.0  0.132112766062825  0.5999024361953149  0.41189294144530214  1.0000
  O   O2        1.0  0.5997998340561209  0.13199540825362283  0.9118716268290259  1.0000
  O   O3        1.0  0.3653523303902304  0.6569698822241962  0.2998193399093126  1.0000
  O   O4        1.0  0.6568874204505871  0.3652417548414775  0.7997924242415738  1.0000
  O   O5        1.0  0.14470583577809037  0.8938873504953335  0.9313340626759157  1.0000
  O   O6        1.0  0.8940249192351712  0.14481787894191464  0.43130714354870053  1.0000
  O   O7        1.0  0.1511328111685728  0.18012389379460106  0.851628910919729  1.0000
  O   O8        1.0  0.18019614386670207  0.15120845542538322  0.35157447456688123  1.0000
