data_image0
_chemical_formula_structural       Sr4P4H36C8O36
_chemical_formula_sum              "Sr4 P4 H36 C8 O36"
_cell_length_a       6.98785937300514
_cell_length_b       11.018406484676682
_cell_length_c       13.292988439673472
_cell_angle_alpha    110.04691598311473
_cell_angle_beta     89.99985846667467
_cell_angle_gamma    90.00007567643502

_space_group_name_H-M_alt    "P 1"
_space_group_IT_number       1

loop_
  _space_group_symop_operation_xyz
  'x, y, z'

loop_
  _atom_site_type_symbol
  _atom_site_label
  _atom_site_symmetry_multiplicity
  _atom_site_fract_x
  _atom_site_fract_y
  _atom_site_fract_z
  _atom_site_occupancy
  Sr  Sr1       1.0  0.9364428091166062  0.8484154384709442  0.347863969627234  1.0000
  Sr  Sr2       1.0  0.43644389888880397  0.151582185707575  0.1521289011571909  1.0000
  Sr  Sr3       1.0  0.0635602510491324  0.1515875238785185  0.6521369206758152  1.0000
  Sr  Sr4       1.0  0.5635605923322514  0.8484160003032956  0.8478690259880964  1.0000
  P   P1        1.0  0.788458157356537  0.6323159861106262  0.5987845288827458  1.0000
  P   P2        1.0  0.2884484977087567  0.36768763191950166  0.9012204105284526  1.0000
  P   P3        1.0  0.21156207546513878  0.36769295420252496  0.4012129184016332  1.0000
  P   P4        1.0  0.7115545624382377  0.6323141025997286  0.0987876304930353  1.0000
  H   H1        1.0  0.5194861775998731  0.739270647973882  0.5515763046993811  1.0000
  H   H2        1.0  0.0194932240338659  0.26072064889388  0.9484161817236443  1.0000
  H   H3        1.0  0.48051115836246777  0.2607353426671679  0.44842174727338613  1.0000
  H   H4        1.0  0.9805169913766532  0.7392714281170997  0.05158891119127417  1.0000
  H   H5        1.0  0.6929229556774529  0.6214946834940778  0.39102003153318793  1.0000
  H   H6        1.0  0.1929247582183322  0.37850286744180295  0.10897312370900641  1.0000
  H   H7        1.0  0.30707581133801654  0.3785055388495238  0.6089755070244465  1.0000
  H   H8        1.0  0.8070797329905587  0.6214970666154258  0.8910306049268257  1.0000
  H   H9        1.0  0.8434550822836611  0.44534431673258723  0.4677874863850563  1.0000
  H   H10       1.0  0.3434590795159096  0.5546501463545539  0.03221130956272594  1.0000
  H   H11       1.0  0.15652651208867496  0.5546549136495641  0.5322085019252398  1.0000
  H   H12       1.0  0.6565368253821974  0.44534127939849816  0.9677845539159052  1.0000
  H   H13       1.0  0.7051033223991111  0.0957271610007098  0.4639401341940968  1.0000
  H   H14       1.0  0.2051037826621496  0.9042768655677168  0.03606326057407472  1.0000
  H   H15       1.0  0.29489830670549816  0.9042747307658845  0.5360634395110183  1.0000
  H   H16       1.0  0.7948949843371266  0.0957240866554443  0.9639392737696115  1.0000
  H   H17       1.0  0.29612539046263453  0.8994561357260411  0.25784780833271986  1.0000
  H   H18       1.0  0.7961202949774561  0.1005549405538204  0.24215009825782374  1.0000
  H   H19       1.0  0.7038791007572909  0.10054395557877173  0.7421514529859153  1.0000
  H   H20       1.0  0.2038799030755811  0.8994469774204888  0.7578527308952587  1.0000
  H   H21       1.0  0.264102086254951  0.6817619291179399  0.41447571020141544  1.0000
  H   H22       1.0  0.7641068210717492  0.3182382521922875  0.0855264364062052  1.0000
  H   H23       1.0  0.7358981118014185  0.3182390755212979  0.5855253350356976  1.0000
  H   H24       1.0  0.23589480803725138  0.6817656234920336  0.914476237813652  1.0000
  H   H25       1.0  0.34159280708919226  0.7510907651579045  0.19530695648654733  1.0000
  H   H26       1.0  0.8416034779638936  0.24891933284056475  0.30469134672642895  1.0000
  H   H27       1.0  0.6584102530758357  0.2489102656896948  0.804693344196025  1.0000
  H   H28       1.0  0.15839672009543895  0.751079792712666  0.6953076197844723  1.0000
  H   H29       1.0  0.11010339284594291  0.7242778862660018  0.5052752310727656  1.0000
  H   H30       1.0  0.610110337120936  0.27572390386909973  0.9947248597291961  1.0000
  H   H31       1.0  0.889895374158499  0.27572217883002287  0.4947247748020729  1.0000
  H   H32       1.0  0.3898912919896206  0.7242742297254879  0.005274556523495723  1.0000
  H   H33       1.0  0.5745728185408652  0.030561189189711506  0.3638755529541698  1.0000
  H   H34       1.0  0.0745715056984579  0.9694449130765508  0.13612337203954183  1.0000
  H   H35       1.0  0.42542881056778004  0.9694417207436743  0.6361268264554525  1.0000
  H   H36       1.0  0.9254286923531011  0.030557944440765494  0.8638804964766467  1.0000
  C   C1        1.0  0.6749386813179541  0.7448843077060731  0.5402917626951975  1.0000
  C   C2        1.0  0.17494279833875476  0.25510990696110974  0.9597021711273614  1.0000
  C   C3        1.0  0.32505293043081457  0.2551168803873837  0.45970407067685687  1.0000
  C   C4        1.0  0.8250631239261637  0.7448871822593973  0.04029918397118585  1.0000
  C   C5        1.0  0.7424242984265561  0.8817399909506992  0.602560282146847  1.0000
  C   C6        1.0  0.2424384322119906  0.11825105847540837  0.8974408784900094  1.0000
  C   C7        1.0  0.25757589963023253  0.11825717689274032  0.3974388392964415  1.0000
  C   C8        1.0  0.7575631969037248  0.881746187992029  0.10255600929384914  1.0000
  O   O1        1.0  0.7231711381813141  0.7120435630808687  0.4296133497431001  1.0000
  O   O2        1.0  0.22317435870755992  0.2879529001622956  0.07038319811913138  1.0000
  O   O3        1.0  0.2768219046234107  0.28795958272259276  0.5703823286957289  1.0000
  O   O4        1.0  0.7768358567124379  0.7120450761860012  0.9296206854457483  1.0000
  O   O5        1.0  0.006560656869822899  0.6510664119070101  0.5942342662464457  1.0000
  O   O6        1.0  0.506555316447461  0.3489431779231823  0.9057653257825254  1.0000
  O   O7        1.0  0.9934309548700284  0.3489404134444598  0.40576780330424367  1.0000
  O   O8        1.0  0.49343915740954003  0.6510618731744416  0.09423168682880602  1.0000
  O   O9        1.0  0.7317884966965663  0.4955633816952557  0.5140370965268559  1.0000
  O   O10       1.0  0.23178159022848632  0.5044325719072518  0.9859633169386728  1.0000
  O   O11       1.0  0.2682059771572582  0.5044329776439725  0.48595726279233287  1.0000
  O   O12       1.0  0.7682057283519086  0.4955713823987082  0.014037123630941974  1.0000
  O   O13       1.0  0.7014970943865321  0.6516088598263465  0.7064177211342014  1.0000
  O   O14       1.0  0.2015022258255854  0.3483795945312238  0.7935736682502964  1.0000
  O   O15       1.0  0.2984916552474175  0.3483854893863666  0.29357828222645577  1.0000
  O   O16       1.0  0.7984922480312094  0.6516148857219974  0.2064186123426808  1.0000
  O   O17       1.0  0.875532446277269  0.9307442553112114  0.5649378519130793  1.0000
  O   O18       1.0  0.3755448574878101  0.06925077577670888  0.9350620988220584  1.0000
  O   O19       1.0  0.12446918284064168  0.0692539831150967  0.4350585861281503  1.0000
  O   O20       1.0  0.6244524784510473  0.9307510373654466  0.06494370854416326  1.0000
  O   O21       1.0  0.6584084252950007  0.9361912123473601  0.6925239839556099  1.0000
  O   O22       1.0  0.15842860000564224  0.06379991664217502  0.8074742966061026  1.0000
  O   O23       1.0  0.34159177275768826  0.06380973987602093  0.30747855038723776  1.0000
  O   O24       1.0  0.841575891209267  0.9361914566963137  0.1925230559732469  1.0000
  O   O25       1.0  0.6690880366683486  0.011497257140867096  0.41094011041979445  1.0000
  O   O26       1.0  0.16908842594835244  0.9885068634270551  0.08906034820679308  1.0000
  O   O27       1.0  0.3309064371677195  0.9885055741676539  0.5890645026526047  1.0000
  O   O28       1.0  0.8309117721010821  0.011490199584656592  0.9109417514479646  1.0000
  O   O29       1.0  0.24685416006337144  0.8101646477858752  0.2424060858191552  1.0000
  O   O30       1.0  0.7468692221695079  0.18984466563149743  0.25758607682332985  1.0000
  O   O31       1.0  0.7531489000972726  0.18983439914399716  0.757595114348675  1.0000
  O   O32       1.0  0.2531324069337657  0.8101485605846365  0.7424140990367791  1.0000
  O   O33       1.0  0.1809779040262711  0.7537157793496406  0.45292394910939754  1.0000
  O   O34       1.0  0.6809812352492274  0.2462902762966692  0.0470770852472668  1.0000
  O   O35       1.0  0.8190222940373816  0.24629013266804384  0.5470763365203056  1.0000
  O   O36       1.0  0.3190232559647511  0.7537135731801499  0.9529263335237843  1.0000
