data_image0
_chemical_formula_structural       Al2H74C46O4
_chemical_formula_sum              "Al2 H74 C46 O4"
_cell_length_a       8.82630257476464
_cell_length_b       11.784775407069066
_cell_length_c       12.410621150363081
_cell_angle_alpha    67.07234526399509
_cell_angle_beta     73.37355520688158
_cell_angle_gamma    77.9818002821214

_space_group_name_H-M_alt    "P 1"
_space_group_IT_number       1

loop_
  _space_group_symop_operation_xyz
  'x, y, z'

loop_
  _atom_site_type_symbol
  _atom_site_label
  _atom_site_symmetry_multiplicity
  _atom_site_fract_x
  _atom_site_fract_y
  _atom_site_fract_z
  _atom_site_occupancy
  Al  Al1       1.0  0.11561106024211647  0.3585350467663703  0.257245558119287  1.0000
  Al  Al2       1.0  0.8843936008909098  0.6414654779197451  0.7427528809972302  1.0000
  H   H1        1.0  0.22444303910599211  0.9685338484201368  0.004426625791936138  1.0000
  H   H2        1.0  0.7755648777256708  0.03146018062904691  0.9955743472496864  1.0000
  H   H3        1.0  0.5125187935074536  0.2686003477798026  0.8321217584053574  1.0000
  H   H4        1.0  0.48746030415876607  0.7314141405027146  0.1678735205530656  1.0000
  H   H5        1.0  0.8060331091047671  0.04792232919952261  0.2820626654130366  1.0000
  H   H6        1.0  0.19396813141763397  0.9520772723199331  0.717938421088995  1.0000
  H   H7        1.0  0.8590972912046978  0.11714604829007416  0.12312931742068403  1.0000
  H   H8        1.0  0.14090407644073366  0.8828526263065303  0.876872084362205  1.0000
  H   H9        1.0  0.9001705286043558  0.18590940143202064  0.21561076166422313  1.0000
  H   H10       1.0  0.09983595150072934  0.814086482047401  0.7843906269975423  1.0000
  H   H11       1.0  0.012114445526393092  0.9297860246913602  0.40031445580535774  1.0000
  H   H12       1.0  0.9878905978521215  0.07021171321829911  0.5996873484765431  1.0000
  H   H13       1.0  0.1034133290053774  0.06835247827415  0.34707558930191607  1.0000
  H   H14       1.0  0.8965881651788191  0.9316452734048543  0.6529245148799633  1.0000
  H   H15       1.0  0.21807664565653073  0.9310117413846515  0.33037941818844985  1.0000
  H   H16       1.0  0.7819260313003085  0.0689860077071955  0.6696204462525089  1.0000
  H   H17       1.0  0.9542944226119728  0.8471881237945171  0.2727325553403119  1.0000
  H   H18       1.0  0.04570757918796178  0.15280592620094072  0.7272663906422139  1.0000
  H   H19       1.0  0.15608823963742677  0.8359300211944999  0.1937176300499387  1.0000
  H   H20       1.0  0.8439132539625117  0.16406773448975545  0.8062808612500806  1.0000
  H   H21       1.0  0.002498305720422371  0.9121909546614548  0.11397392465234173  1.0000
  H   H22       1.0  0.9975042438212538  0.08780772335587982  0.8860248180668224  1.0000
  H   H23       1.0  0.5225356182586579  0.12989312492764782  0.730064644409808  1.0000
  H   H24       1.0  0.4774702271076733  0.8701073871581712  0.2699375871704532  1.0000
  H   H25       1.0  0.34542781640517006  0.06158338411101033  0.7641532525795685  1.0000
  H   H26       1.0  0.6545832667910573  0.9384134219505427  0.23584444251482484  1.0000
  H   H27       1.0  0.5047510128824797  0.9750335909924532  0.8319037598773561  1.0000
  H   H28       1.0  0.49525432399172314  0.02497062878478571  0.16809721057946095  1.0000
  H   H29       1.0  0.19446523841227042  0.6229706557028722  0.1464696945226578  1.0000
  H   H30       1.0  0.8055383667790179  0.37702894665016373  0.8535284931747146  1.0000
  H   H31       1.0  0.015788586884532663  0.6974541764251826  0.0934955608956258  1.0000
  H   H32       1.0  0.9842146372297975  0.3025482046937924  0.906502487400097  1.0000
  H   H33       1.0  0.19270783069200795  0.6563023075969455  0.9934397902322875  1.0000
  H   H34       1.0  0.8072927346734814  0.34369359482612083  0.006560377811311497  1.0000
  H   H35       1.0  0.8691976887853697  0.5863255563524989  0.05333846712658639  1.0000
  H   H36       1.0  0.1307994952191152  0.4136777586172117  0.9466628839157211  1.0000
  H   H37       1.0  0.8959294587633831  0.4214319685699551  0.1189628218798546  1.0000
  H   H38       1.0  0.10406666900723133  0.5785704260693054  0.8810374713023637  1.0000
  H   H39       1.0  0.8140786661744102  0.3254563702221419  0.3251401347341201  1.0000
  H   H40       1.0  0.18592405032418918  0.6745497125803794  0.6748590717609633  1.0000
  H   H41       1.0  0.9211814722342451  0.2318446541024955  0.4326800894150367  1.0000
  H   H42       1.0  0.07882188017163823  0.7681567920831187  0.567321499925285  1.0000
  H   H43       1.0  0.9272165170689988  0.42298855988718026  0.48174753849475865  1.0000
  H   H44       1.0  0.07278303335716167  0.5770147439003425  0.5182557523884911  1.0000
  H   H45       1.0  0.6440059549103694  0.42468937445102034  0.5984536478280235  1.0000
  H   H46       1.0  0.3559934294352658  0.5753065185434353  0.40155159860210426  1.0000
  H   H47       1.0  0.7332071402061189  0.2718347341062072  0.6083571179388374  1.0000
  H   H48       1.0  0.26679659240033254  0.7281639393213483  0.39164219148032947  1.0000
  H   H49       1.0  0.599010078182715  0.3501973762410986  0.5131292636023519  1.0000
  H   H50       1.0  0.40099614767631675  0.6498003610840329  0.48687149449768435  1.0000
  H   H51       1.0  0.8828524557055104  0.5903114898328283  0.2938642871400531  1.0000
  H   H52       1.0  0.11714498283716779  0.4096899692885432  0.7061385009049065  1.0000
  H   H53       1.0  0.7234624655359524  0.6054835933163006  0.413986295317997  1.0000
  H   H54       1.0  0.2765360286563379  0.39451879014077235  0.5860159377051775  1.0000
  H   H55       1.0  0.6962407028936966  0.5416122552888896  0.3139115298311808  1.0000
  H   H56       1.0  0.30376066592025797  0.45838641129719804  0.6860930977154498  1.0000
  H   H57       1.0  0.35846188672627477  0.46603190328797695  0.23360603464906401  1.0000
  H   H58       1.0  0.6415456490284227  0.5339649045271528  0.7663947989909092  1.0000
  H   H59       1.0  0.21249526528617216  0.45801744206064404  0.3667570142788677  1.0000
  H   H60       1.0  0.7875109611571177  0.541980291259236  0.6332453567030427  1.0000
  H   H61       1.0  0.4505319478519993  0.3308613281476839  0.4218716276577297  1.0000
  H   H62       1.0  0.5494758421487589  0.6691336258217292  0.5781298365439654  1.0000
  H   H63       1.0  0.35316186432281427  0.12783697580037776  0.5440237756083377  1.0000
  H   H64       1.0  0.6468435604247915  0.8721579813407133  0.45597897451614955  1.0000
  H   H65       1.0  0.2207899371923858  0.15279821847521194  0.4510948018198136  1.0000
  H   H66       1.0  0.7792177259774745  0.8471976604144305  0.548907153541954  1.0000
  H   H67       1.0  0.1885240095114753  0.24481064505036443  0.5415890080232587  1.0000
  H   H68       1.0  0.8114836530741198  0.7551852378445291  0.45841133445664894  1.0000
  H   H69       1.0  0.5801651673367655  0.1552732102205213  0.35458830000263225  1.0000
  H   H70       1.0  0.41984316836082053  0.8447263857891517  0.6454073158491626  1.0000
  H   H71       1.0  0.5816777946276233  0.29631814786659316  0.22929558232165456  1.0000
  H   H72       1.0  0.418330415115463  0.7036823670554356  0.7707029440130102  1.0000
  H   H73       1.0  0.4447726893901701  0.19081837224486975  0.2607524147057276  1.0000
  H   H74       1.0  0.5552347183651065  0.8091793685009918  0.7392456843305838  1.0000
  C   C1        1.0  0.23260602376829104  0.20068095515514275  0.1005785266239698  1.0000
  C   C2        1.0  0.7673857534044615  0.7993186750720442  0.8994212520417405  1.0000
  C   C3        1.0  0.18599815336648354  0.09102688709737093  0.10213797902501652  1.0000
  C   C4        1.0  0.8140035968165689  0.9089689987201551  0.8978675943641937  1.0000
  C   C5        1.0  0.2577771942108313  0.0524528162386062  0.004476441178823599  1.0000
  C   C6        1.0  0.7422258635308409  0.9475421560899306  0.9955227562228471  1.0000
  C   C7        1.0  0.372529415710197  0.11486128440774486  0.9048208269690152  1.0000
  C   C8        1.0  0.6274692058972561  0.8851401701238475  0.09518252777594668  1.0000
  C   C9        1.0  0.42176497340309976  0.2182795067341914  0.9062472869616798  1.0000
  C   C10       1.0  0.5782203808300607  0.7817238481254452  0.09375081640336434  1.0000
  C   C11       1.0  0.356143730510496  0.2606203479654425  0.003798035204759678  1.0000
  C   C12       1.0  0.6438313976348196  0.7393885971390618  0.9961968686388049  1.0000
  C   C13       1.0  0.41309036826559953  0.3632242783337248  0.0041604642345590215  1.0000
  C   C14       1.0  0.5868676093972737  0.6367717712977949  0.9958265605772211  1.0000
  C   C15       1.0  0.4689347420042792  0.4521805302540688  0.0006924472371991365  1.0000
  C   C16       1.0  0.5310030670201724  0.54785911980278  0.9992810233833966  1.0000
  C   C17       1.0  0.0594252182155159  0.018844828288095507  0.2062747713619331  1.0000
  C   C18       1.0  0.9405762762608135  0.9811529213882794  0.7937261392608832  1.0000
  C   C19       1.0  0.8967767669244678  0.09784278920995604  0.20625909230616205  1.0000
  C   C20       1.0  0.10322709338927884  0.9021549532894826  0.7937421452757364  1.0000
  C   C21       1.0  0.10127846495377202  0.9855609351835358  0.3282075840487124  1.0000
  C   C22       1.0  0.8987253944835771  0.014436813323790406  0.6717912342103817  1.0000
  C   C23       1.0  0.043163129824151235  0.8967520471209913  0.194958700551666  1.0000
  C   C24       1.0  0.9568386183139806  0.10324385271492531  0.8050412277510052  1.0000
  C   C25       1.0  0.4400138504072046  0.06811297343961802  0.8022653599421263  1.0000
  C   C26       1.0  0.5599906847713212  0.9318884701588319  0.1977359896572678  1.0000
  C   C27       1.0  0.12129794352639316  0.6300408832875136  0.08595225589773747  1.0000
  C   C28       1.0  0.8787019868082098  0.36995964974457973  0.9140479486234272  1.0000
  C   C29       1.0  0.9566628556742883  0.5040100088715534  0.06112158307988114  1.0000
  C   C30       1.0  0.04333314555755407  0.49599330868531427  0.9388800077033468  1.0000
  C   C31       1.0  0.9049483826633202  0.328020500451622  0.36962491367680883  1.0000
  C   C32       1.0  0.09505496974256286  0.6719809457339849  0.6303766756635127  1.0000
  C   C33       1.0  0.8341262173059006  0.4146742024516784  0.44231838583475985  1.0000
  C   C34       1.0  0.16587595261947288  0.5853272443184567  0.5576842496874266  1.0000
  C   C35       1.0  0.6947792746136017  0.3627304963686769  0.5467113477071167  1.0000
  C   C36       1.0  0.30522445886924027  0.6372681710509912  0.45329038103485425  1.0000
  C   C37       1.0  0.7818003556771769  0.5451497758372029  0.3617623587586751  1.0000
  C   C38       1.0  0.21819957611808144  0.4548507471817588  0.6382418779671541  1.0000
  C   C39       1.0  0.27942221380530435  0.40337391460244737  0.3095644666444031  1.0000
  C   C40       1.0  0.7205828295732104  0.5966238233072119  0.6904373376374976  1.0000
  C   C41       1.0  0.3827967468166946  0.2944444117942027  0.3821683365510822  1.0000
  C   C42       1.0  0.6172094787501974  0.705553327533565  0.617831615108031  1.0000
  C   C43       1.0  0.280995546899419  0.19997420778825165  0.485755821593429  1.0000
  C   C44       1.0  0.7190144812314613  0.8000216699323417  0.5142440414046164  1.0000
  C   C45       1.0  0.5043826517169021  0.2305610361015199  0.3024362504695688  1.0000
  C   C46       1.0  0.49562319160450824  0.7694394900026893  0.6975603360241539  1.0000
  O   O1        1.0  0.16131264930090336  0.24723957062531815  0.1867122237337355  1.0000
  O   O2        1.0  0.8386759617994171  0.7527572805868846  0.8132916393201484  1.0000
  O   O3        1.0  0.07017378299437375  0.5085242423158435  0.12311842157274809  1.0000
  O   O4        1.0  0.9298199803994861  0.49147814948722185  0.8768855768550666  1.0000
