data_image0
_chemical_formula_structural       La8H32C44N16O52
_chemical_formula_sum              "La8 H32 C44 N16 O52"
_cell_length_a       8.623618436002582
_cell_length_b       15.235218851010988
_cell_length_c       18.01827772600734
_cell_angle_alpha    90.00010362495627
_cell_angle_beta     89.99999848262362
_cell_angle_gamma    90.00008951184715

_space_group_name_H-M_alt    "P 1"
_space_group_IT_number       1

loop_
  _space_group_symop_operation_xyz
  'x, y, z'

loop_
  _atom_site_type_symbol
  _atom_site_label
  _atom_site_symmetry_multiplicity
  _atom_site_fract_x
  _atom_site_fract_y
  _atom_site_fract_z
  _atom_site_occupancy
  La  La1       1.0  0.6600394727336791  0.7241379918488707  0.3922500284799  1.0000
  La  La2       1.0  0.8399574428136773  0.2241389193512546  0.6077502635270875  1.0000
  La  La3       1.0  0.33995741317360745  0.2758612671857393  0.8922497493536383  1.0000
  La  La4       1.0  0.1600429438853581  0.7758617014996008  0.10775284570767951  1.0000
  La  La5       1.0  0.33995858376519555  0.2758609635297944  0.6077486400934973  1.0000
  La  La6       1.0  0.16004293289631732  0.7758593796557137  0.3922495150298034  1.0000
  La  La7       1.0  0.6600406433261413  0.7241383445680112  0.1077500292042615  1.0000
  La  La8       1.0  0.8399562722249598  0.22414119212533737  0.8922480428367336  1.0000
  H   H1        1.0  0.4780872094282957  0.988650906750003  0.5990002917850319  1.0000
  H   H2        1.0  0.008537146807924504  0.9391895902762288  0.5469192513723655  1.0000
  H   H3        1.0  0.865170139168747  0.6054341031174816  0.3250626051717163  1.0000
  H   H4        1.0  0.717600905272441  0.5419062442337149  0.3343975225116509  1.0000
  H   H5        1.0  0.0219067826436685  0.488651114213802  0.4009965244286988  1.0000
  H   H6        1.0  0.49145902672000136  0.43919032036549766  0.4530791540265611  1.0000
  H   H7        1.0  0.634831084194623  0.10543433792287261  0.6749380599328489  1.0000
  H   H8        1.0  0.7824013007649172  0.041907901167483906  0.6656013802721717  1.0000
  H   H9        1.0  0.521909699131193  0.011351664540377698  0.0990005897247315  1.0000
  H   H10       1.0  0.9914586061648267  0.06081090071675279  0.0469196215054382  1.0000
  H   H11       1.0  0.13483139035133007  0.3945650124977007  0.8250630645022738  1.0000
  H   H12       1.0  0.28240062352583106  0.4580922349339432  0.8343975230653342  1.0000
  H   H13       1.0  0.9781005390497199  0.5113534144895198  0.9009982662393411  1.0000
  H   H14       1.0  0.5085448121267931  0.5608097248953854  0.9530787552524275  1.0000
  H   H15       1.0  0.3651716165278671  0.8945664263498614  0.1749386024694388  1.0000
  H   H16       1.0  0.21760024107163642  0.9580921868009113  0.1656025762741251  1.0000
  H   H17       1.0  0.5219131662836389  0.011348705001800902  0.4009967118128586  1.0000
  H   H18       1.0  0.991462069296901  0.0608093651053139  0.4530816371690349  1.0000
  H   H19       1.0  0.13483255575243192  0.394563539516014  0.6749366183926568  1.0000
  H   H20       1.0  0.28240178964691154  0.4580900856519748  0.6656017010517203  1.0000
  H   H21       1.0  0.9780947526716233  0.5113465284150395  0.5989988141916741  1.0000
  H   H22       1.0  0.5085401893838509  0.5608079786439293  0.5469233994903319  1.0000
  H   H23       1.0  0.3651692915144409  0.8945633047107862  0.3250622736155364  1.0000
  H   H24       1.0  0.21760139415804497  0.9580910542149894  0.3343989532772157  1.0000
  H   H25       1.0  0.47808835736849903  0.9886479472151495  0.9010008538091724  1.0000
  H   H26       1.0  0.008538290729731602  0.9391893674121689  0.9530818220289704  1.0000
  H   H27       1.0  0.8651689853604765  0.6054345992576557  0.1749372690476179  1.0000
  H   H28       1.0  0.7175985925817799  0.5419086895681178  0.16560225549356739  1.0000
  H   H29       1.0  0.021905634694924507  0.48864816639245134  0.0990042872800387  1.0000
  H   H30       1.0  0.4914555635859871  0.439190543232101  0.0469199133219647  1.0000
  H   H31       1.0  0.6348310783969425  0.1054338417798206  0.8250611760889441  1.0000
  H   H32       1.0  0.7824001346410371  0.0419080813295309  0.8343988672602762  1.0000
  C   C1        1.0  0.46882404999428934  0.8234001380979379  0.5028267114351621  1.0000
  C   C2        1.0  0.3531012464562835  0.882469836682958  0.5371330326519868  1.0000
  C   C3        1.0  0.3709905942488305  0.9593719684283714  0.5794329168023894  1.0000
  C   C4        1.0  0.22114054893675936  0.9918013770861264  0.5879415245816091  1.0000
  C   C5        1.0  0.15973117384234573  0.07507940257033852  0.6188522119047803  1.0000
  C   C6        1.0  0.031169481838318795  0.323405809971348  0.49717373650756974  1.0000
  C   C7        1.0  0.1468924498902382  0.38247291123062155  0.46286639581919786  1.0000
  C   C8        1.0  0.12900447588238964  0.45937165513453954  0.4205655195218654  1.0000
  C   C9        1.0  0.2788557711230197  0.4918024896840051  0.4120558514523793  1.0000
  C   C10       1.0  0.34026398558776805  0.5750805784111321  0.3811445255724664  1.0000
  C   C11       1.0  0.5311740255974657  0.17660157152210595  0.0028278175144436  1.0000
  C   C12       1.0  0.6468956668800914  0.1175319461681852  0.037133492338576  1.0000
  C   C13       1.0  0.6290063158208882  0.040629904717889104  0.0794327037943887  1.0000
  C   C14       1.0  0.7788552008679589  0.0081992014759393  0.0879423707162914  1.0000
  C   C15       1.0  0.8402610947571179  0.9249212419742963  0.11885335230844872  1.0000
  C   C16       1.0  0.9688297151853437  0.6765989240342519  0.9971757316001587  1.0000
  C   C17       1.0  0.8531067497810697  0.6175304367920162  0.9628677462945702  1.0000
  C   C18       1.0  0.8710028442969887  0.5406309462208584  0.9205678620091575  1.0000
  C   C19       1.0  0.7211515497117206  0.5081987807577095  0.9120575903995133  1.0000
  C   C20       1.0  0.6597433376332732  0.42491996967081047  0.8811455823876031  1.0000
  C   C21       1.0  0.5311740065046495  0.1765988172789505  0.497170292162231  1.0000
  C   C22       1.0  0.6468968100416818  0.1175284623218147  0.4628656359209061  1.0000
  C   C23       1.0  0.6290097814612495  0.0406263305762309  0.4205646417864983  1.0000
  C   C24       1.0  0.7788586671681088  0.008197578294236502  0.4120582539757862  1.0000
  C   C25       1.0  0.8402692018685656  0.924919552810529  0.381147566652615  1.0000
  C   C26       1.0  0.968828574659668  0.676592489032828  0.5028243770733241  1.0000
  C   C27       1.0  0.8531056066068744  0.6175247313984755  0.5371306077771933  1.0000
  C   C28       1.0  0.8709958998258431  0.540625331122854  0.5794325940580194  1.0000
  C   C29       1.0  0.7211469237990259  0.508195809324576  0.5879444820965034  1.0000
  C   C30       1.0  0.6597387093351943  0.4249183769713483  0.618855807976921  1.0000
  C   C31       1.0  0.4688251905072606  0.8233973838624068  0.9971758459869521  1.0000
  C   C32       1.0  0.35310354922837217  0.882469634709544  0.9628679511968344  1.0000
  C   C33       1.0  0.3709929002867085  0.9593710197847615  0.9205676297565119  1.0000
  C   C34       1.0  0.22114401523767674  0.9918004102824655  0.9120612927856088  1.0000
  C   C35       1.0  0.15973464253049494  0.0750783697802149  0.8811480912254622  1.0000
  C   C36       1.0  0.031166022110539905  0.32340659508416547  0.0028246019542806  1.0000
  C   C37       1.0  0.14688898751111173  0.3824724568319908  0.0371336972418561  1.0000
  C   C38       1.0  0.12900564866153993  0.4593719474105171  0.07943524650322331  1.0000
  C   C39       1.0  0.2788546240310695  0.49180148737705315  0.08794551811086392  1.0000
  C   C40       1.0  0.34026051689662046  0.5750796420866636  0.1188553061542734  1.0000
  C   C41       1.0  0.4919395611767144  0.7621293440222131  0.25000005859337904  1.0000
  C   C42       1.0  0.008066555670573902  0.2621322534762954  0.750001405443939  1.0000
  C   C43       1.0  0.5080619741411853  0.2378702677318714  0.7499986099805085  1.0000
  C   C44       1.0  0.9919396180723297  0.7378680146555041  0.24999892810643587  1.0000
  N   N1        1.0  0.1256932974994669  0.9344099320229448  0.5517443477137078  1.0000
  N   N2        1.0  0.2020845735283601  0.8682815744241523  0.5203694889858284  1.0000
  N   N3        1.0  0.37430170311300515  0.4344125182737102  0.448253495370615  1.0000
  N   N4        1.0  0.297905604483006  0.36828416071173115  0.47963102772785504  1.0000
  N   N5        1.0  0.8743012954946252  0.06559056926947451  0.0517447260681081  1.0000
  N   N6        1.0  0.7979123411017143  0.13171951626807044  0.0203694142644011  1.0000
  N   N7        1.0  0.6257021361064545  0.5655875166860441  0.9482531030203634  1.0000
  N   N8        1.0  0.7020947534997077  0.6317192230970292  0.979631291117734  1.0000
  N   N9        1.0  0.8743047589975249  0.065587710609698  0.44825598583468457  1.0000
  N   N10       1.0  0.7979158021815922  0.13171672458400252  0.47963139955506046  1.0000
  N   N11       1.0  0.6256975129945843  0.5655884062289404  0.5517468381802858  1.0000
  N   N12       1.0  0.7020878135898557  0.6317134819182896  0.5203687508285526  1.0000
  N   N13       1.0  0.12569560140361352  0.9344123243544472  0.9482561624763122  1.0000
  N   N14       1.0  0.20208455579276574  0.8682807518632175  0.9796342492380106  1.0000
  N   N15       1.0  0.3742993992104716  0.4344114386959248  0.0517472305290241  1.0000
  N   N16       1.0  0.297906781822725  0.3682836705277452  0.0203684874426671  1.0000
  O   O1        1.0  0.6119229302922378  0.8354171005586509  0.5088428333791555  1.0000
  O   O2        1.0  0.41188150902634396  0.7601453170902419  0.46215629440377637  1.0000
  O   O3        1.0  0.0134387711013133  0.08650023943761913  0.6142790871314645  1.0000
  O   O4        1.0  0.25746864293221  0.12911479775654303  0.6446172015599672  1.0000
  O   O5        1.0  0.4381605475191962  0.7893833446133911  0.3128834482925669  1.0000
  O   O6        1.0  0.8013105857080307  0.5712416278254082  0.3608617832168193  1.0000
  O   O7        1.0  0.888069656765211  0.3354224159520812  0.4911565191638445  1.0000
  O   O8        1.0  0.08811184663183981  0.2601504693052519  0.537845721587118  1.0000
  O   O9        1.0  0.4865552605333505  0.5865028659802293  0.3857198878154193  1.0000
  O   O10       1.0  0.2425231881721785  0.6291132074575431  0.3553796187153822  1.0000
  O   O11       1.0  0.061839847204950595  0.28938682332865545  0.6871180575074121  1.0000
  O   O12       1.0  0.6986882232132601  0.07124249854206251  0.6391388294939873  1.0000
  O   O13       1.0  0.38807514483856664  0.1645872473993393  0.008843922142446602  1.0000
  O   O14       1.0  0.5881153714869001  0.23985737303926416  0.9621554032123214  1.0000
  O   O15       1.0  0.9865534978512545  0.9135003953467091  0.114281873890171  1.0000
  O   O16       1.0  0.7425189852552309  0.8708872145320614  0.1446171499290472  1.0000
  O   O17       1.0  0.5618409829415115  0.2106157450013555  0.8128819575052049  1.0000
  O   O18       1.0  0.19869210065164114  0.428756251460392  0.8608611844675876  1.0000
  O   O19       1.0  0.11192954072401311  0.664582961583882  0.9911596123903976  1.0000
  O   O20       1.0  0.9118862262619346  0.739855909684877  0.0378460228641444  1.0000
  O   O21       1.0  0.5134520623343094  0.4134976918697221  0.8857220382322453  1.0000
  O   O22       1.0  0.7574852966465572  0.3708885983709466  0.8553783720189188  1.0000
  O   O23       1.0  0.9381628525797087  0.7106159360644354  0.18711720379660332  1.0000
  O   O24       1.0  0.30131332066785194  0.9287581893110683  0.13913942491287662  1.0000
  O   O25       1.0  0.3880751262095928  0.16458382393579288  0.4911502852757437  1.0000
  O   O26       1.0  0.5881142282586111  0.2398523255402054  0.5378429291606253  1.0000
  O   O27       1.0  0.986561604608561  0.913498059572902  0.3857240213774205  1.0000
  O   O28       1.0  0.7425317327778559  0.8708835012486491  0.3553809120209195  1.0000
  O   O29       1.0  0.5618363493726477  0.2106149543932361  0.6871174402483362  1.0000
  O   O30       1.0  0.1986909496070908  0.42875601480816533  0.63913799533956  1.0000
  O   O31       1.0  0.11192839973453773  0.6645771958016696  0.5088432593940554  1.0000
  O   O32       1.0  0.9118850502601249  0.7398478296978224  0.4621518370017839  1.0000
  O   O33       1.0  0.5134462747845278  0.41349674577445933  0.6142793357504743  1.0000
  O   O34       1.0  0.7574806663559315  0.37088509155094573  0.6446201598414945  1.0000
  O   O35       1.0  0.9381640073231522  0.7106114756798407  0.31288172104946443  1.0000
  O   O36       1.0  0.3013133121036447  0.928756456840496  0.36086205904739904  1.0000
  O   O37       1.0  0.6119229116666673  0.8354163025978069  0.991155856418473  1.0000
  O   O38       1.0  0.4118826850146746  0.7601435514622852  0.0378443753465874  1.0000
  O   O39       1.0  0.0134410798329085  0.0865011855331375  0.8857234545892609  1.0000
  O   O40       1.0  0.25747559242916657  0.1291143663412697  0.8553820736383742  1.0000
  O   O41       1.0  0.4381593927702668  0.7893838667545979  0.18711893103668592  1.0000
  O   O42       1.0  0.8013094346662231  0.5712433602948792  0.13913859409030493  1.0000
  O   O43       1.0  0.8880673561815584  0.3354251830306439  0.0088407211660524  1.0000
  O   O44       1.0  0.0881106706400487  0.26014960943227555  0.9621526457142906  1.0000
  O   O45       1.0  0.48655411140859445  0.5865025762620776  0.1142782953181225  1.0000
  O   O46       1.0  0.24251855788796922  0.6291142952542472  0.14462085154947601  1.0000
  O   O47       1.0  0.0618410019539013  0.28938630118685893  0.8128820197712869  1.0000
  O   O48       1.0  0.6986870550439478  0.0712414224442952  0.8608609086370154  1.0000
  O   O49       1.0  0.6086967388533394  0.7079988960967897  0.25000001667333294  1.0000
  O   O50       1.0  0.8913059297740845  0.2079995158731975  0.7500008055949294  1.0000
  O   O51       1.0  0.3913036368594193  0.29200137203128673  0.7499992068930652  1.0000
  O   O52       1.0  0.10869792475578782  0.7920000958848733  0.2500006379389533  1.0000
