data_image0
_chemical_formula_structural       CuH24C24N4O4
_chemical_formula_sum              "Cu1 H24 C24 N4 O4"
_cell_length_a       5.704826344355642
_cell_length_b       8.984460211369846
_cell_length_c       11.020078138084733
_cell_angle_alpha    91.97200327414257
_cell_angle_beta     106.43294197769886
_cell_angle_gamma    105.56298003212031

_space_group_name_H-M_alt    "P 1"
_space_group_IT_number       1

loop_
  _space_group_symop_operation_xyz
  'x, y, z'

loop_
  _atom_site_type_symbol
  _atom_site_label
  _atom_site_symmetry_multiplicity
  _atom_site_fract_x
  _atom_site_fract_y
  _atom_site_fract_z
  _atom_site_occupancy
  Cu  Cu1       1.0  0.5000182438047319  0.5000022449923094  0.5000090765623071  1.0000
  H   H1        1.0  0.054015022680488356  0.4037387593650906  0.599431576723319  1.0000
  H   H2        1.0  0.9459848717983022  0.5962589528149991  0.40056671600095245  1.0000
  H   H3        1.0  0.6396162205080955  0.20208620032186533  0.5431622466920062  1.0000
  H   H4        1.0  0.3603878471093795  0.7979347210855254  0.45682536977641786  1.0000
  H   H5        1.0  0.5266433299702488  0.994076033023838  0.35569810514525824  1.0000
  H   H6        1.0  0.4733709949563192  0.005932951470242599  0.6442816169655289  1.0000
  H   H7        1.0  0.2641332224516191  0.21144425510721027  0.3128114928951008  1.0000
  H   H8        1.0  0.7358941906472015  0.788556806924774  0.6872034810225929  1.0000
  H   H9        1.0  0.8771788628889966  0.8537470454994962  0.260816503279692  1.0000
  H   H10       1.0  0.12288601776684521  0.1462780078143027  0.7391925301151334  1.0000
  H   H11       1.0  0.626423268301089  0.9197844318002383  0.16784463762156326  1.0000
  H   H12       1.0  0.3736106787213558  0.08021884900482233  0.8321676827724647  1.0000
  H   H13       1.0  0.9552981271099057  0.22161086544497277  0.11428535424603582  1.0000
  H   H14       1.0  0.044770677634495944  0.7784080850601215  0.8857077604825466  1.0000
  H   H15       1.0  0.7031662277560216  0.07804177850064062  0.0010354323085977083  1.0000
  H   H16       1.0  0.2968515908389693  0.9219839149458553  0.9989742070837125  1.0000
  H   H17       1.0  0.7354038579567117  0.8036444434962675  0.9920978229461287  1.0000
  H   H18       1.0  0.26459807378090267  0.19637634300421078  0.007876782535923622  1.0000
  H   H19       1.0  0.0022411791533303495  0.7667169688691903  0.10406469839612958  1.0000
  H   H20       1.0  0.9977383056512823  0.2332772306514884  0.895911564140633  1.0000
  H   H21       1.0  0.231270847432164  0.5883745756822735  0.8132846667732566  1.0000
  H   H22       1.0  0.768636072530363  0.4115763063075591  0.18670482675447897  1.0000
  H   H23       1.0  0.824362819245998  0.3781156511459472  0.9704535188943313  1.0000
  H   H24       1.0  0.17554217071076308  0.6218422752377821  0.029535862053258234  1.0000
  C   C1        1.0  0.0031438219484201634  0.3120229714136046  0.5214281273283279  1.0000
  C   C2        1.0  0.9968824401709425  0.68797577482664  0.4785875381153205  1.0000
  C   C3        1.0  0.7698921775752157  0.19685785899625333  0.48852690559917283  1.0000
  C   C4        1.0  0.23012708428233727  0.8031419793772018  0.5114750875952441  1.0000
  C   C5        1.0  0.711458587008444  0.0830471359049909  0.38709777675425283  1.0000
  C   C6        1.0  0.2885512834143499  0.9169632763249853  0.612897682076408  1.0000
  C   C7        1.0  0.8912746200825411  0.0837629687887826  0.3229415688081262  1.0000
  C   C8        1.0  0.10875724939007386  0.9162508234131723  0.6770670672194329  1.0000
  C   C9        1.0  0.12058475734139765  0.20359294591148827  0.3615982464639842  1.0000
  C   C10       1.0  0.8794347213082433  0.796410537861199  0.6384147509287531  1.0000
  C   C11       1.0  0.835515159139668  0.9562022981863837  0.21742288278002775  1.0000
  C   C12       1.0  0.16452062350350627  0.043808925108450615  0.7825717287892004  1.0000
  C   C13       1.0  0.9118469411518079  0.1137462012055437  0.051403073694032735  1.0000
  C   C14       1.0  0.08817801820802647  0.8862616487757436  0.948590834665588  1.0000
  C   C15       1.0  0.9411548925541382  0.8534579260282485  0.04466581333296924  1.0000
  C   C16       1.0  0.05884936721440681  0.1465524717227495  0.9553224975050016  1.0000
  C   C17       1.0  0.5727355816524097  0.45980808751650676  0.7520281569780708  1.0000
  C   C18       1.0  0.42721102284803447  0.5401775781156318  0.24797864463210578  1.0000
  C   C19       1.0  0.5327198490395448  0.48099984852751043  0.8796117548302719  1.0000
  C   C20       1.0  0.46722957504702106  0.5189844997566411  0.12038634105255143  1.0000
  C   C21       1.0  0.3484779447080016  0.5500807505885918  0.895348868644611  1.0000
  C   C22       1.0  0.6514729363641508  0.4498954455797347  0.10465378507701228  1.0000
  C   C23       1.0  0.6827071816675601  0.43112177269816254  0.984964494842636  1.0000
  C   C24       1.0  0.3172442179667954  0.5688555534916233  0.015035535618409323  1.0000
  N   N1        1.0  0.17452196485187  0.3164367367609629  0.4579004352809692  1.0000
  N   N2        1.0  0.82551092227515  0.6835642728514133  0.5421162206351726  1.0000
  N   N3        1.0  0.9832543856753094  0.9944293423264914  0.1286090519740882  1.0000
  N   N4        1.0  0.0167620405071034  0.0055762208734009  0.8713799649170753  1.0000
  O   O1        1.0  0.46955781189587514  0.5412584060393614  0.6685434911271174  1.0000
  O   O2        1.0  0.530449386484854  0.45874985653561146  0.33146424521722656  1.0000
  O   O3        1.0  0.6953745854127789  0.3706197873620027  0.7311010580496885  1.0000
  O   O4        1.0  0.30456979635977205  0.6293577462343622  0.2689079654015957  1.0000
