data_image0
_chemical_formula_structural       Cd4H12C8O12
_chemical_formula_sum              "Cd4 H12 C8 O12"
_cell_length_a       5.714264441025487
_cell_length_b       6.1802109051511
_cell_length_c       10.208097607089348
_cell_angle_alpha    97.21839492058822
_cell_angle_beta     89.9996733267043
_cell_angle_gamma    90.0000329371787

_space_group_name_H-M_alt    "P 1"
_space_group_IT_number       1

loop_
  _space_group_symop_operation_xyz
  'x, y, z'

loop_
  _atom_site_type_symbol
  _atom_site_label
  _atom_site_symmetry_multiplicity
  _atom_site_fract_x
  _atom_site_fract_y
  _atom_site_fract_z
  _atom_site_occupancy
  Cd  Cd1       1.0  0.9786362297388962  0.14017589013078438  0.8690397392325054  1.0000
  Cd  Cd2       1.0  0.4786333590871267  0.3598313663754595  0.13096548128105923  1.0000
  Cd  Cd3       1.0  0.0213639588977443  0.8598300543367755  0.1309638718257133  1.0000
  Cd  Cd4       1.0  0.5213650795477847  0.6401745651068962  0.8690371492088361  1.0000
  H   H1        1.0  0.013570864815932301  0.30072019995787963  0.12630255388211964  1.0000
  H   H2        1.0  0.5135825113435573  0.19929062987137058  0.8737044666513469  1.0000
  H   H3        1.0  0.9864240738028299  0.6992922682820433  0.8737015222654065  1.0000
  H   H4        1.0  0.48641592730092503  0.8007152756394118  0.1262962026960182  1.0000
  H   H5        1.0  0.2602919327101816  0.537289057345049  0.5341123425215103  1.0000
  H   H6        1.0  0.7603078847799126  0.9627039465336863  0.46588411757603143  1.0000
  H   H7        1.0  0.7396977558888197  0.46270382659903225  0.46588935782222773  1.0000
  H   H8        1.0  0.239715053967636  0.0372921343556172  0.5341129123955568  1.0000
  H   H9        1.0  0.031053134769606992  0.7116933037244307  0.5954636436561602  1.0000
  H   H10       1.0  0.5310537258177702  0.7882982487038247  0.4045354339897075  1.0000
  H   H11       1.0  0.9689453038705056  0.288314245714787  0.40453812253258553  1.0000
  H   H12       1.0  0.46895696288520844  0.21168314071992708  0.5954595690002336  1.0000
  C   C1        1.0  0.0734838630854995  0.5411399100631513  0.5599892363974064  1.0000
  C   C2        1.0  0.5734790633546184  0.9588533877384646  0.4400206007987109  1.0000
  C   C3        1.0  0.926516325563  0.45885620979113634  0.4400107353263252  1.0000
  C   C4        1.0  0.42651412519477816  0.04113803407707189  0.5599937306954886  1.0000
  C   C5        1.0  0.044137368056262  0.41050384958224834  0.6738979947549169  1.0000
  C   C6        1.0  0.5441174856341818  0.08951822055701092  0.3260979698427847  1.0000
  C   C7        1.0  0.9558628205830857  0.5894939271862681  0.3261040543814602  1.0000
  C   C8        1.0  0.4558704530263569  0.910497327769498  0.6738926108590209  1.0000
  O   O1        1.0  0.12175294083101558  0.19455031261549746  0.07773338521712252  1.0000
  O   O2        1.0  0.6217607408209105  0.3054603928250685  0.9222693484097633  1.0000
  O   O3        1.0  0.8782419977873346  0.8054605246817772  0.9222705746602885  1.0000
  O   O4        1.0  0.3782446978556706  0.6945503925255281  0.07773068916488061  1.0000
  O   O5        1.0  0.9210585957578845  0.238354610677888  0.6601711818921034  1.0000
  O   O6        1.0  0.4210588143691254  0.26162658930321203  0.3398323723600072  1.0000
  O   O7        1.0  0.0789450929032256  0.7616398782325787  0.3398286735556155  1.0000
  O   O8        1.0  0.5789291242137865  0.7383663206130395  0.6601712891292026  1.0000
  O   O9        1.0  0.1462322411049115  0.4745415224516518  0.7855344146991428  1.0000
  O   O10       1.0  0.6462413728543197  0.025447847468719  0.21445789976505134  1.0000
  O   O11       1.0  0.85376094749963  0.5254595421760939  0.21446982813179724  1.0000
  O   O12       1.0  0.35378156595731264  0.9745366350209607  0.7855245883179905  1.0000
