data_image0
_chemical_formula_structural       Cu2H12C18S4N12O2
_chemical_formula_sum              "Cu2 H12 C18 S4 N12 O2"
_cell_length_a       8.44106324255051
_cell_length_b       8.752654143170004
_cell_length_c       9.484768382085065
_cell_angle_alpha    81.14802128123308
_cell_angle_beta     68.54046253257285
_cell_angle_gamma    74.92771539099535

_space_group_name_H-M_alt    "P 1"
_space_group_IT_number       1

loop_
  _space_group_symop_operation_xyz
  'x, y, z'

loop_
  _atom_site_type_symbol
  _atom_site_label
  _atom_site_symmetry_multiplicity
  _atom_site_fract_x
  _atom_site_fract_y
  _atom_site_fract_z
  _atom_site_occupancy
  Cu  Cu1       1.0  0.8491924046504808  0.1572925310085438  0.7634494597719838  1.0000
  Cu  Cu2       1.0  0.15080993014252206  0.842712404625466  0.2365368729799258  1.0000
  H   H1        1.0  0.9321058506543309  0.6714063170997518  0.02377400766933857  1.0000
  H   H2        1.0  0.0678898664175875  0.3286045370473403  0.9762177986993451  1.0000
  H   H3        1.0  0.7585088264845723  0.8150912943492444  0.9812155252677857  1.0000
  H   H4        1.0  0.24148331841237797  0.18491838704701993  0.0187839221072181  1.0000
  H   H5        1.0  0.5799336776883594  0.0985795188036107  0.6324506373418187  1.0000
  H   H6        1.0  0.42006657066786357  0.901418322408162  0.3675447783901762  1.0000
  H   H7        1.0  0.30859353757132624  0.26457563250712474  0.5835858717753339  1.0000
  H   H8        1.0  0.6914076128113111  0.7354234513387682  0.4164164544753958  1.0000
  H   H9        1.0  0.20859101387360815  0.5478217404226983  0.648396091069074  1.0000
  H   H10       1.0  0.7914132561248765  0.45217500423817825  0.3516076860132316  1.0000
  H   H11       1.0  0.3803916320334865  0.6582285862980656  0.7631683043029935  1.0000
  H   H12       1.0  0.6196113078505762  0.3417681899014866  0.23684222026899698  1.0000
  C   C1        1.0  0.5304438903250813  0.2227250317105742  0.6581689441223091  1.0000
  C   C2        1.0  0.4695557498482473  0.7772751876980879  0.34182737398415247  1.0000
  C   C3        1.0  0.3809182001146425  0.31578882663789903  0.6315193350867148  1.0000
  C   C4        1.0  0.6190829601877186  0.6842102504020532  0.3684819346183161  1.0000
  C   C5        1.0  0.3247470516105934  0.4734274666606951  0.6690187732107091  1.0000
  C   C6        1.0  0.675255658579964  0.5265704475926969  0.33098427845580847  1.0000
  C   C7        1.0  0.41883974899364074  0.5357097962114777  0.7315428697268589  1.0000
  C   C8        1.0  0.5811615867719412  0.46428337708383793  0.26846447635022486  1.0000
  C   C9        1.0  0.5660510591168091  0.4349316647271806  0.7551555185411517  1.0000
  C   C10       1.0  0.4339543875685551  0.5650603507637088  0.2448506799749949  1.0000
  C   C11       1.0  0.6784994205020213  0.4745982422781765  0.8200610518114928  1.0000
  C   C12       1.0  0.3215080239990088  0.5253913226414609  0.1799311575663367  1.0000
  C   C13       1.0  0.8051495700683801  0.5884493876174091  0.9199541348577612  1.0000
  C   C14       1.0  0.19484348214304253  0.4115567298864917  0.08004448722839191  1.0000
  C   C15       1.0  0.1023474546601904  0.14711211038262922  0.3786572694063893  1.0000
  C   C16       1.0  0.8976682233791352  0.8529001258538287  0.6213353242482925  1.0000
  C   C17       1.0  0.8180400914316766  0.9929249464455838  0.1535473520458197  1.0000
  C   C18       1.0  0.18194876806674642  0.007066995825738301  0.8464715490918948  1.0000
  S   S1        1.0  0.03650040243473283  0.3067351314609397  0.4686957479271642  1.0000
  S   S2        1.0  0.9635150906388718  0.693247433830429  0.5313054483437155  1.0000
  S   S3        1.0  0.6533486595991391  0.07175471857954821  0.09661042774143172  1.0000
  S   S4        1.0  0.34662719480703424  0.9282383164170868  0.9034124784658246  1.0000
  N   N1        1.0  0.6206311085034458  0.2808076498539195  0.7190238167751132  1.0000
  N   N2        1.0  0.37937949000426135  0.7191843551834013  0.2809733530591103  1.0000
  N   N3        1.0  0.8115755106272715  0.36968725096414085  0.8400428905160241  1.0000
  N   N4        1.0  0.1884298988146115  0.6303201792351274  0.1599568550578354  1.0000
  N   N5        1.0  0.895357446240574  0.4383496373134933  0.9033821837980298  1.0000
  N   N6        1.0  0.1046360036432716  0.5616648326824817  0.09662036498626492  1.0000
  N   N7        1.0  0.8338327324658652  0.7023907840916976  0.9766282108456111  1.0000
  N   N8        1.0  0.16616293500742782  0.2976201040851408  0.023368878251538702  1.0000
  N   N9        1.0  0.1602034967737396  0.030964928177155605  0.3098958534245355  1.0000
  N   N10       1.0  0.8398163523601313  0.9690365031721628  0.6900748383255646  1.0000
  N   N11       1.0  0.9341075726584268  0.9295332291538615  0.19860640299938845  1.0000
  N   N12       1.0  0.06586951046867282  0.07047043012763511  0.8014029627881598  1.0000
  O   O1        1.0  0.6641104093143683  0.6168218138187526  0.8707771965557356  1.0000
  O   O2        1.0  0.3358826283456721  0.3831795107705603  0.12921580281422257  1.0000
