data_image0
_chemical_formula_structural       Al4H33C50NO20
_chemical_formula_sum              "Al4 H33 C50 N1 O20"
_cell_length_a       6.740518309634066
_cell_length_b       18.083080589249377
_cell_length_c       20.66921438479577
_cell_angle_alpha    72.45335529518914
_cell_angle_beta     86.54709372271883
_cell_angle_gamma    86.44370376461985

_space_group_name_H-M_alt    "P 1"
_space_group_IT_number       1

loop_
  _space_group_symop_operation_xyz
  'x, y, z'

loop_
  _atom_site_type_symbol
  _atom_site_label
  _atom_site_symmetry_multiplicity
  _atom_site_fract_x
  _atom_site_fract_y
  _atom_site_fract_z
  _atom_site_occupancy
  Al  Al1       1.0  0.09691142885917256  0.5002164998243401  0.5019444507955557  1.0000
  Al  Al2       1.0  0.5966859310276363  0.5008690723613682  0.5004373693327155  1.0000
  Al  Al3       1.0  0.6474690466812162  0.9991446882252929  0.9979435314343592  1.0000
  Al  Al4       1.0  0.1477528381278858  0.998792289812947  0.9994942748719354  1.0000
  H   H1        1.0  0.6345769882852038  0.14639187743312473  0.2787773941184498  1.0000
  H   H2        1.0  0.698661766857107  0.3087490421017235  0.23619426805236549  1.0000
  H   H3        1.0  0.983732036274894  0.3661342414619638  0.1723818010559981  1.0000
  H   H4        1.0  0.96636575967009  0.36921699568085836  0.258024955486576  1.0000
  H   H5        1.0  0.13463477906462626  0.42844523209603846  0.19838589118522526  1.0000
  H   H6        1.0  0.4609826107945665  0.4040592123855475  0.10833437092284022  1.0000
  H   H7        1.0  0.5781374106231779  0.3218398638142901  0.08899358287771973  1.0000
  H   H8        1.0  0.3180951987908641  0.3409326170242082  0.0801389351560431  1.0000
  H   H9        1.0  0.6280397942260902  0.9022984814402193  0.6358465344127567  1.0000
  H   H10       1.0  0.7622673326972772  0.8482206313559714  0.5868003090744767  1.0000
  H   H11       1.0  0.5282656893782444  0.8176842092398217  0.627074014894646  1.0000
  H   H12       1.0  0.3710036729168065  0.7126832033853248  0.7173069712269041  1.0000
  H   H13       1.0  0.24532222622940483  0.6301062993534431  0.7141563979721255  1.0000
  H   H14       1.0  0.24517124458479597  0.7148287161793759  0.643679806581851  1.0000
  H   H15       1.0  0.11635576061058114  0.5994328059185393  0.8631569399361114  1.0000
  H   H16       1.0  0.22558461909920163  0.684814836493878  0.867593859023323  1.0000
  H   H17       1.0  0.9951292249819801  0.656843684132852  0.9115342541527911  1.0000
  H   H18       1.0  0.6122163345975906  0.6218333019594624  0.8766315634488251  1.0000
  H   H19       1.0  0.5100372418569704  0.6171392250137301  0.8006899794516897  1.0000
  H   H20       1.0  0.7377476930779847  0.566051423173576  0.8276315571370677  1.0000
  H   H21       1.0  0.37519284656809043  0.7952831908060601  0.7752078012539627  1.0000
  H   H22       1.0  0.491608576199603  0.7895036770909698  0.8517412461714428  1.0000
  H   H23       1.0  0.5074039434451124  0.8742724006023153  0.7813140347097516  1.0000
  H   H24       1.0  0.29509209386426954  0.09652820341057118  0.3912190321582402  1.0000
  H   H25       1.0  0.4370262420998613  0.16092766852604967  0.41783312356973573  1.0000
  H   H26       1.0  0.17623926188398537  0.1784826481695774  0.41057381382748304  1.0000
  H   H27       1.0  0.90381832704967  0.19378460085000168  0.3037171076245855  1.0000
  H   H28       1.0  0.926034171953617  0.1944165855449356  0.21721993593698846  1.0000
  H   H29       1.0  0.029501799260764003  0.1149534084222594  0.2811605869450347  1.0000
  H   H30       1.0  0.33242523734953267  0.6023599827157966  0.48466310161100523  1.0000
  H   H31       1.0  0.8634819647284998  0.4052465269296873  0.4979059457346296  1.0000
  H   H32       1.0  0.4122085952577378  0.8983894753474004  0.008721133467041406  1.0000
  H   H33       1.0  0.8806146310388597  0.0945904042045953  0.0010318155544411054  1.0000
  C   C1        1.0  0.37338016148804337  0.4226001464926127  0.42424904627797855  1.0000
  C   C2        1.0  0.34583359884648973  0.3951293429570697  0.6053293135499302  1.0000
  C   C3        1.0  0.8174728178895803  0.5783737494784802  0.577769378206746  1.0000
  C   C4        1.0  0.8506098617347746  0.6074178730838398  0.3969252549695669  1.0000
  C   C5        1.0  0.8555439081883306  0.6687262084814092  0.33320728926020854  1.0000
  C   C6        1.0  0.8662261005840647  0.721239840985753  0.2796989488950601  1.0000
  C   C7        1.0  0.8775792281037909  0.779160075716753  0.22061503377216965  1.0000
  C   C8        1.0  0.8882894333845642  0.8316042752497449  0.16706135285903667  1.0000
  C   C9        1.0  0.7704891245746239  0.7951831070109421  0.6943293890126939  1.0000
  C   C10       1.0  0.9835115959768995  0.8120757121734314  0.7133082730267121  1.0000
  C   C11       1.0  0.9391296013164377  0.8769908134687512  0.8743837078738111  1.0000
  C   C12       1.0  0.8063306001792441  0.6231337352822308  0.6249639046044706  1.0000
  C   C13       1.0  0.6947697310280956  0.7776424678396268  0.7708031122644953  1.0000
  C   C14       1.0  0.9067509409852048  0.7949493318881763  0.7904213891708594  1.0000
  C   C15       1.0  0.7627036867970458  0.6892769688092457  0.7850787608475758  1.0000
  C   C16       1.0  0.8388204239845932  0.7064741218097835  0.7079975566069409  1.0000
  C   C17       1.0  0.9749332041700568  0.7063048056756714  0.8035636772367383  1.0000
  C   C18       1.0  0.05092411777651049  0.7235407055898974  0.7272157996936032  1.0000
  C   C19       1.0  0.9341747071718771  0.8397795928244348  0.8342393604821225  1.0000
  C   C20       1.0  0.8125582965880865  0.6616392292147921  0.6640526875738079  1.0000
  C   C21       1.0  0.5204020892687211  0.1933038259990951  0.2658575168424521  1.0000
  C   C22       1.0  0.34447833145689083  0.20542620280819077  0.31495006157226874  1.0000
  C   C23       1.0  0.38261255167950037  0.37917173310630387  0.37621214458385316  1.0000
  C   C24       1.0  0.3626939908825051  0.12152015548498699  0.12248843723784124  1.0000
  C   C25       1.0  0.5550735925503075  0.28211973672919294  0.24190164890954693  1.0000
  C   C26       1.0  0.37970365719983323  0.2964055180451978  0.29119450539113256  1.0000
  C   C27       1.0  0.406823592242901  0.29506780942298866  0.18372340343245244  1.0000
  C   C28       1.0  0.37169805402572814  0.20423425852224134  0.20729209887151978  1.0000
  C   C29       1.0  0.22801678654561636  0.30745422576597287  0.23255115425272524  1.0000
  C   C30       1.0  0.19492501031968598  0.21770338925467309  0.2568699784749384  1.0000
  C   C31       1.0  0.3822226085073409  0.3416132908101659  0.3360993077362195  1.0000
  C   C32       1.0  0.36783812014759576  0.15908167535938128  0.16243036101411693  1.0000
  C   C33       1.0  0.35180771304240477  0.333129083037896  0.6684642469601914  1.0000
  C   C34       1.0  0.3663607503578419  0.27957634500761236  0.7210311139399155  1.0000
  C   C35       1.0  0.3809492505351457  0.2204067152558622  0.7790408783254251  1.0000
  C   C36       1.0  0.3939608762592285  0.1667467733902654  0.8315997255423045  1.0000
  C   C37       1.0  0.39931336103539644  0.10453302311108101  0.8945805422899372  1.0000
  C   C38       1.0  0.3707560326124906  0.07734147163922958  0.07510155984134315  1.0000
  C   C39       1.0  0.8931798249174178  0.8926776238051274  0.10319749597555025  1.0000
  C   C40       1.0  0.9276469787910742  0.9211688337793402  0.9220724171670942  1.0000
  C   C41       1.0  0.09759218365243776  0.8757750512264054  0.6757286103087168  1.0000
  C   C42       1.0  0.06981669728816087  0.37103549794580454  0.2143929283329841  1.0000
  C   C43       1.0  0.4425842718839661  0.34298269441831036  0.11153418831676733  1.0000
  C   C44       1.0  0.6668287377130041  0.8434832775351778  0.6328323743201951  1.0000
  C   C45       1.0  0.23849284205394386  0.6938949843735783  0.6994933544266433  1.0000
  C   C46       1.0  0.08396320873574575  0.6593149189393374  0.8645528171178256  1.0000
  C   C47       1.0  0.6493075532332996  0.6201323706850131  0.8245065187514982  1.0000
  C   C48       1.0  0.5073562353005272  0.8105727682818511  0.7959940254686729  1.0000
  C   C49       1.0  0.3112285769176281  0.1578995379667276  0.3873479450111574  1.0000
  C   C50       1.0  0.0032252076845721896  0.1784475668309682  0.2651912363814262  1.0000
  N   N1        1.0  0.1926860400576729  0.927499054358769  0.6440673631679061  1.0000
  O   O1        1.0  0.514589097051015  0.4181341543734973  0.57841955999821  1.0000
  O   O2        1.0  0.19918705990959745  0.4377867400494678  0.4462774048495107  1.0000
  O   O3        1.0  0.0191750434014963  0.5828842151141984  0.421618083908669  1.0000
  O   O4        1.0  0.17514680919891387  0.4196746621312002  0.5826154729415053  1.0000
  O   O5        1.0  0.9927920208835487  0.5617722365969371  0.557947875191097  1.0000
  O   O6        1.0  0.5377658023699607  0.441261135388693  0.441273710444932  1.0000
  O   O7        1.0  0.34033015612892825  0.546471822900301  0.49421892179822186  1.0000
  O   O8        1.0  0.6546200311078677  0.5604322553336446  0.5594940877410367  1.0000
  O   O9        1.0  0.6794185598403856  0.5851075102364118  0.4219757220464403  1.0000
  O   O10       1.0  0.8531144127040945  0.4550699561822995  0.5067475945060949  1.0000
  O   O11       1.0  0.20621776286117918  0.05810631474038529  0.05873942828136341  1.0000
  O   O12       1.0  0.5701334120826403  0.07943917896825779  0.9169553613856252  1.0000
  O   O13       1.0  0.7523036077059899  0.9368492017728656  0.9425224513538951  1.0000
  O   O14       1.0  0.5445956935101107  0.0621087625930699  0.052839125587326  1.0000
  O   O15       1.0  0.7244949639701803  0.9172885010696348  0.07865235618711355  1.0000
  O   O16       1.0  0.23037923560789153  0.08208255182452008  0.9217684483154116  1.0000
  O   O17       1.0  0.4039404400985305  0.9530047328821706  0.005543498445050008  1.0000
  O   O18       1.0  0.0643218922040418  0.9146140953072361  0.07782234332452725  1.0000
  O   O19       1.0  0.09038645372436344  0.9394121477827184  0.9401355800667449  1.0000
  O   O20       1.0  0.8912734070515711  0.0444440305354945  0.9928254751373587  1.0000
