data_image0
_chemical_formula_structural       Cd2H40C52I4N12
_chemical_formula_sum              "Cd2 H40 C52 I4 N12"
_cell_length_a       7.081940254
_cell_length_b       9.119650852943977
_cell_length_c       22.1775
_cell_angle_alpha    94.23308749347743
_cell_angle_beta     90.0
_cell_angle_gamma    112.84730210454403

_space_group_name_H-M_alt    "P 1"
_space_group_IT_number       1

loop_
  _space_group_symop_operation_xyz
  'x, y, z'

loop_
  _atom_site_type_symbol
  _atom_site_label
  _atom_site_symmetry_multiplicity
  _atom_site_fract_x
  _atom_site_fract_y
  _atom_site_fract_z
  _atom_site_occupancy
  Cd  Cd1       1.0  0.35580684122195555  8.83355660122e-05  0.7498883762318229  1.0000
  Cd  Cd2       1.0  0.6441964379028846  0.999910858312262  0.2501129069313778  1.0000
  H   H1        1.0  0.3115964451517925  0.3370730014952628  0.7986136275330226  1.0000
  H   H2        1.0  0.9740400979335676  0.6626826727145456  0.7013536604793984  1.0000
  H   H3        1.0  0.68840363135687  0.6629226112114139  0.20138664511511448  1.0000
  H   H4        1.0  0.02596176914886428  0.3373165211637286  0.2986471717763521  1.0000
  H   H5        1.0  0.08701192946815439  0.4259576804861567  0.8628171455862202  1.0000
  H   H6        1.0  0.660916766191832  0.5737514384929128  0.6370098498290844  1.0000
  H   H7        1.0  0.9129865166715304  0.5740403196682563  0.13718094499143518  1.0000
  H   H8        1.0  0.3390879249754235  0.42624775538536136  0.36299008061176613  1.0000
  H   H9        1.0  0.7750311035641532  0.9314018519737388  0.9058803534786507  1.0000
  H   H10       1.0  0.8432689197662031  0.0684111209815867  0.5940764992352072  1.0000
  H   H11       1.0  0.2249697300072171  0.0686009230761329  0.09412103838471352  1.0000
  H   H12       1.0  0.1567349562165674  0.9315892666205485  0.4059239183464811  1.0000
  H   H13       1.0  0.018581186278687756  0.868446049055386  0.8415264242559388  1.0000
  H   H14       1.0  0.1496353471878749  0.1313740862431345  0.6584942238088729  1.0000
  H   H15       1.0  0.9814206808037439  0.1315531448228882  0.1584775643519691  1.0000
  H   H16       1.0  0.8503685287948883  0.8686263013590079  0.3415075464951656  1.0000
  H   H17       1.0  0.7410067423486026  0.3840937845391963  0.8313847903463697  1.0000
  H   H18       1.0  0.35755372757042647  0.616505852443197  0.6685314604046795  1.0000
  H   H19       1.0  0.2589896367689661  0.6159113779584047  0.1686144194465129  1.0000
  H   H20       1.0  0.6424487944917132  0.3834861790918893  0.331469605358194  1.0000
  H   H21       1.0  0.7097668927476379  0.646295231495273  0.8388862338738861  1.0000
  H   H22       1.0  0.0641408333374116  0.3543605105087764  0.6614041694011306  1.0000
  H   H23       1.0  0.290228889512008  0.3537087372784598  0.16111293968560864  1.0000
  H   H24       1.0  0.9358586463133349  0.6456339084740392  0.3385947142912613  1.0000
  H   H25       1.0  0.732345508623517  0.6747368963037204  0.026070351228902697  1.0000
  H   H26       1.0  0.056694620107727196  0.3244183348019689  0.4742132847181608  1.0000
  H   H27       1.0  0.2676464741620279  0.3252622975745538  0.9739286773970478  1.0000
  H   H28       1.0  0.9433057768105046  0.6755892151433613  0.5257850957266044  1.0000
  H   H29       1.0  0.7557260489369642  0.4092992639495208  0.027196189075461105  1.0000
  H   H30       1.0  0.3455412714131327  0.5897103328446391  0.472708773213725  1.0000
  H   H31       1.0  0.24426533699066513  0.5906987362048923  0.9728019015021943  1.0000
  H   H32       1.0  0.6544627647744152  0.41029602337683  0.5272922764423527  1.0000
  H   H33       1.0  0.3707556990824942  0.1038874005267161  0.9157449098704191  1.0000
  H   H34       1.0  0.2670302078743347  0.8957130895806316  0.5842528385827563  1.0000
  H   H35       1.0  0.6292332412916578  0.8961141807992874  0.084255093037207  1.0000
  H   H36       1.0  0.7329718775346664  0.10428371684991329  0.4157479212062185  1.0000
  H   H37       1.0  0.12367289046228781  0.9023418382031989  0.9781395346392969  1.0000
  H   H38       1.0  0.22147395662638306  0.09762512513071898  0.5220830675958936  1.0000
  H   H39       1.0  0.8763168650963565  0.0976585493989361  0.0218599811274842  1.0000
  H   H40       1.0  0.7785263382088559  0.9023681001282355  0.47791713258546764  1.0000
  C   C1        1.0  0.19061894975323668  0.2512526116659259  0.823464004365526  1.0000
  C   C2        1.0  0.9389450261153129  0.7485209684018557  0.6764921035539828  1.0000
  C   C3        1.0  0.8093794963864482  0.74874538848848  0.1765363407493865  1.0000
  C   C4        1.0  0.061061673952281105  0.2514794192002867  0.32350921584260567  1.0000
  C   C5        1.0  0.0630942996067745  0.3003039190042927  0.8595627228413038  1.0000
  C   C6        1.0  0.7625761674753947  0.6994398179668622  0.6403068068277662  1.0000
  C   C7        1.0  0.9369047433908264  0.6996952748739814  0.1404372075995468  1.0000
  C   C8        1.0  0.23743053259219238  0.3005605696352801  0.3596936107539221  1.0000
  C   C9        1.0  0.9057261876453284  0.1866757317388519  0.8906600134776923  1.0000
  C   C10       1.0  0.7189743176909786  0.8130942671573393  0.6091918261204086  1.0000
  C   C11       1.0  0.09426720718262514  0.8133234621394223  0.10934036787060111  1.0000
  C   C12       1.0  0.2810295582917917  0.18690612044480298  0.39080994418362996  1.0000
  C   C13       1.0  0.889843884778621  0.0272360037047576  0.8833666626543959  1.0000
  C   C14       1.0  0.8622742042492534  0.9725745818028385  0.6165820012585642  1.0000
  C   C15       1.0  0.11016200010448066  0.9727655776212457  0.11663334025323022  1.0000
  C   C16       1.0  0.1377310837759183  0.0274258057992967  0.38341841632312423  1.0000
  C   C17       1.0  0.026162881408936276  0.9905640004489982  0.8469776607813416  1.0000
  C   C18       1.0  0.0351692618636079  0.0092621034688491  0.6530147612809856  1.0000
  C   C19       1.0  0.9738347495462636  0.009435193429275998  0.1530263278265664  1.0000
  C   C20       1.0  0.9648352109770785  0.9907394778571543  0.3469870452564479  1.0000
  C   C21       1.0  0.7577918259792256  0.3776070890565677  0.9291773017906523  1.0000
  C   C22       1.0  0.380153160342438  0.6221760408021382  0.5707087544335607  1.0000
  C   C23       1.0  0.2422007536642424  0.6223932985455745  0.0708213121612289  1.0000
  C   C24       1.0  0.6198472946975784  0.377823153076136  0.42929162691473977  1.0000
  C   C25       1.0  0.7432133848485664  0.4455144585671107  0.8756803998383306  1.0000
  C   C26       1.0  0.29802917858371103  0.5547485482853389  0.6243090509757749  1.0000
  C   C27       1.0  0.2567844063114109  0.5544907039304903  0.12431790813965193  1.0000
  C   C28       1.0  0.7019731251518593  0.4452458706974767  0.3756916363464242  1.0000
  C   C29       1.0  0.7265775226935602  0.5929823299587156  0.8800532698569583  1.0000
  C   C30       1.0  0.13390751244090637  0.4073332007437998  0.6201519562655591  1.0000
  C   C31       1.0  0.2734176627081624  0.4070204450911561  0.1199463183766056  1.0000
  C   C32       1.0  0.866098809095334  0.5926636056867451  0.3798469998936085  1.0000
  C   C33       1.0  0.7358725576497207  0.6075171117394405  0.9835439346825154  1.0000
  C   C34       1.0  0.1278488385367282  0.3919341628847803  0.5166558002098256  1.0000
  C   C35       1.0  0.2641202403203167  0.3924808884149655  0.016456410432397203  1.0000
  C   C36       1.0  0.8721540039349734  0.6080698058889524  0.48334337334967603  1.0000
  C   C37       1.0  0.7506669533353473  0.4598116892986965  0.9845021475349611  1.0000
  C   C38       1.0  0.29038653062204384  0.5395619932742974  0.5154950292787959  1.0000
  C   C39       1.0  0.2493262231660438  0.5401898920273069  0.0154969535577578  1.0000
  C   C40       1.0  0.70961712703415  0.4604407817755671  0.4845054607696683  1.0000
  C   C41       1.0  0.6368275713316437  0.1124261073333486  0.9652815081044466  1.0000
  C   C42       1.0  0.5244294781543315  0.8873498601821621  0.5345858435139377  1.0000
  C   C43       1.0  0.36316337794283987  0.887576667716516  0.0347176292216602  1.0000
  C   C44       1.0  0.4755762465239854  0.1126457525245144  0.46541488004164927  1.0000
  C   C45       1.0  0.4259030397936456  0.0590773940808376  0.9532367705792808  1.0000
  C   C46       1.0  0.36695013542376387  0.9406973797108051  0.5467676206708916  1.0000
  C   C47       1.0  0.5740909518922308  0.9409229935212975  0.0467631960949504  1.0000
  C   C48       1.0  0.6330493442269827  0.05929703927200339  0.4532330666513076  1.0000
  C   C49       1.0  0.2882220581895822  0.9462446145116488  0.9878283430711293  1.0000
  C   C50       1.0  0.3420692566567709  0.0537438358518401  0.5123087880418495  1.0000
  C   C51       1.0  0.7117700848007475  0.0537605479859522  0.0121713176292033  1.0000
  C   C52       1.0  0.6579340224680764  0.9462553580264339  0.48769114239899375  1.0000
  I   I1        1.0  0.6262867990212797  0.2657074139477017  0.7015724647532693  1.0000
  I   I2        1.0  0.36180844174965904  0.7347967251254843  0.798175855199581  1.0000
  I   I3        1.0  0.37371305916082054  0.7342905862067111  0.2984274294541933  1.0000
  I   I4        1.0  0.6381970646020891  0.2652012750289217  0.2018235881004244  1.0000
  N   N1        1.0  0.17524879811553262  0.0988045243093794  0.8169167469182526  1.0000
  N   N2        1.0  0.07598367370908926  0.9009941239595705  0.6830694308867322  1.0000
  N   N3        1.0  0.8247544810093146  0.9011946695688948  0.183084536244948  1.0000
  N   N4        1.0  0.9240216143160894  0.09900626364256478  0.31693188850985626  1.0000
  N   N5        1.0  0.7743065530288578  0.2274569201402201  0.9281422465518929  1.0000
  N   N6        1.0  0.5469822107919668  0.7721877377501372  0.57160568708629  1.0000
  N   N7        1.0  0.22568803551494196  0.7725446611857905  0.0718559527259259  1.0000
  N   N8        1.0  0.4530190594325418  0.2278102624042688  0.42839510893607274  1.0000
  N   N9        1.0  0.7246859444763915  0.6754388059363663  0.9327073705857458  1.0000
  N   N10       1.0  0.0491432654139672  0.3244696649281664  0.567598677721719  1.0000
  N   N11       1.0  0.2753078288829158  0.3245639691135054  0.0672917667403681  1.0000
  N   N12       1.0  0.9508583833418952  0.675531916397837  0.432400423371007  1.0000
