data_image0
_chemical_formula_structural       V2Cu2As2H16C20N4O12
_chemical_formula_sum              "V2 Cu2 As2 H16 C20 N4 O12"
_cell_length_a       5.614631339404033
_cell_length_b       10.256414037209117
_cell_length_c       11.709448224653235
_cell_angle_alpha    72.69925437843216
_cell_angle_beta     80.78320158799417
_cell_angle_gamma    88.6199760860557

_space_group_name_H-M_alt    "P 1"
_space_group_IT_number       1

loop_
  _space_group_symop_operation_xyz
  'x, y, z'

loop_
  _atom_site_type_symbol
  _atom_site_label
  _atom_site_symmetry_multiplicity
  _atom_site_fract_x
  _atom_site_fract_y
  _atom_site_fract_z
  _atom_site_occupancy
  V   V1        1.0  0.1174114491912661  0.7887042186220868  0.25791604133409857  1.0000
  V   V2        1.0  0.8826417511437157  0.21130486163515627  0.742041284474645  1.0000
  Cu  Cu1       1.0  0.683871456121274  0.8784410915539456  0.8276049728819571  1.0000
  Cu  Cu2       1.0  0.3160028159562883  0.12151732556822745  0.17243771491369125  1.0000
  As  As1       1.0  0.6536641090710446  0.888664190649273  0.1135144728346375  1.0000
  As  As2       1.0  0.34639804429048837  0.11125818634479152  0.8864100482679049  1.0000
  H   H1        1.0  0.33697053849204645  0.9418722216684542  0.6478222000774279  1.0000
  H   H2        1.0  0.6630221896156029  0.05814547003473082  0.35221963884291807  1.0000
  H   H3        1.0  0.27174988004094297  0.8497989149941177  0.476583273481566  1.0000
  H   H4        1.0  0.7282464996362707  0.15023515899575565  0.52343010266906  1.0000
  H   H5        1.0  0.5255984693801493  0.6575422544564448  0.4414885134741126  1.0000
  H   H6        1.0  0.47439762342304453  0.34246934659085343  0.5585384184633992  1.0000
  H   H7        1.0  0.8348192706270867  0.5635850603520396  0.5741554442089124  1.0000
  H   H8        1.0  0.16524378133097878  0.4364414466499369  0.4258572061536511  1.0000
  H   H9        1.0  0.0903658066987134  0.4992426716576261  0.6956633240164009  1.0000
  H   H10       1.0  0.9096247145084179  0.5007780830868284  0.3043283588492968  1.0000
  H   H11       1.0  0.3821023503024747  0.44549239852258193  0.8411157632461296  1.0000
  H   H12       1.0  0.6178518668201534  0.5544963561751999  0.15891956041132724  1.0000
  H   H13       1.0  0.3792619513717526  0.5878590776485595  0.9865029706553015  1.0000
  H   H14       1.0  0.62074152226414  0.41216178078094867  0.013522678816087775  1.0000
  H   H15       1.0  0.07953515834633153  0.772492852712695  0.9783875957175707  1.0000
  H   H16       1.0  0.9204612389027745  0.2275442864969719  0.021621565463931302  1.0000
  C   C1        1.0  0.4444993126042434  0.8600339129506556  0.6259569756528264  1.0000
  C   C2        1.0  0.5554715909639327  0.13997847849880427  0.3740785687780175  1.0000
  C   C3        1.0  0.4088074371281819  0.8073942071085939  0.5327782689952157  1.0000
  C   C4        1.0  0.5911672967460503  0.19263456059191242  0.46724844258530135  1.0000
  C   C5        1.0  0.551711066083108  0.7006419557180695  0.5132482007486202  1.0000
  C   C6        1.0  0.44829592192979817  0.2993758728142025  0.4867728358416769  1.0000
  C   C7        1.0  0.7249363453135517  0.6485763478323181  0.5868047513929538  1.0000
  C   C8        1.0  0.27505420224246546  0.351437252458325  0.4132041631819305  1.0000
  C   C9        1.0  0.7528115359909291  0.70623564457415  0.6779512340408187  1.0000
  C   C10       1.0  0.24716470874488286  0.293771688710244  0.3220860593276171  1.0000
  C   C11       1.0  0.9300526015694572  0.6624830249777035  0.7609589491639355  1.0000
  C   C12       1.0  0.06990363325784442  0.3375220898843595  0.23906683471977888  1.0000
  C   C13       1.0  0.09263023034611707  0.5574114880128461  0.7596290643574902  1.0000
  C   C14       1.0  0.9073763684147381  0.4425818271585484  0.24039838079360712  1.0000
  C   C15       1.0  0.2558346009484751  0.527973547121313  0.8415306994805647  1.0000
  C   C16       1.0  0.7441686645486739  0.47203812089721714  0.15849052540308145  1.0000
  C   C17       1.0  0.2543215037575591  0.6051023158348985  0.9216446916048538  1.0000
  C   C18       1.0  0.7456495816004747  0.39492642047934373  0.07837804570455378  1.0000
  C   C19       1.0  0.08763802729072272  0.7083176275708285  0.9189078182111243  1.0000
  C   C20       1.0  0.9123238815286072  0.29170387857935515  0.08111325364472315  1.0000
  N   N1        1.0  0.6129927767538561  0.8106995194683722  0.6955762986572365  1.0000
  N   N2        1.0  0.38698304696875846  0.1892822795899534  0.3044659633458622  1.0000
  N   N3        1.0  0.929040025276784  0.7347852255527557  0.8412652834215564  1.0000
  N   N4        1.0  0.0709195995891108  0.2652168636107817  0.15874223198495227  1.0000
  O   O1        1.0  0.7678940793801985  0.9312614958481904  0.9634693321065412  1.0000
  O   O2        1.0  0.2320802585030748  0.06859779815350463  0.03645717501639468  1.0000
  O   O3        1.0  0.8482291208443798  0.7716018417627241  0.1918564077775143  1.0000
  O   O4        1.0  0.1519004015314209  0.22835586610013076  0.808057879505057  1.0000
  O   O5        1.0  0.39483144449631885  0.7830544433223495  0.1484332880353491  1.0000
  O   O6        1.0  0.6052544247054854  0.21683952340984555  0.8515744707569933  1.0000
  O   O7        1.0  0.6180838269329384  0.0258399926229629  0.16729600092062213  1.0000
  O   O8        1.0  0.3819877151831578  0.9741284410023571  0.8325756580601931  1.0000
  O   O9        1.0  0.8830533565181896  0.07233911497228722  0.6988631959550844  1.0000
  O   O10       1.0  0.11689375825185519  0.9277323473343488  0.3010196499024784  1.0000
  O   O11       1.0  0.116767886856735  0.6553863016568046  0.37659319207480013  1.0000
  O   O12       1.0  0.8832853856086162  0.3446993441983396  0.6234167988870566  1.0000
