data_image0
_chemical_formula_structural       Er4H40C24O26
_chemical_formula_sum              "Er4 H40 C24 O26"
_cell_length_a       8.338208884554946
_cell_length_b       11.315175301967635
_cell_length_c       11.315068915838607
_cell_angle_alpha    91.82525712413049
_cell_angle_beta     107.68958906850293
_cell_angle_gamma    107.6892642955631

_space_group_name_H-M_alt    "P 1"
_space_group_IT_number       1

loop_
  _space_group_symop_operation_xyz
  'x, y, z'

loop_
  _atom_site_type_symbol
  _atom_site_label
  _atom_site_symmetry_multiplicity
  _atom_site_fract_x
  _atom_site_fract_y
  _atom_site_fract_z
  _atom_site_occupancy
  Er  Er1       1.0  0.7468345203644802  0.8694050009937656  0.15433487104065338  1.0000
  Er  Er2       1.0  0.24682421651640848  0.15433259930180301  0.8694060475261907  1.0000
  Er  Er3       1.0  0.5057897455204383  0.5056803801046357  0.01912251825829971  1.0000
  Er  Er4       1.0  0.005793082160899104  0.01912332247873391  0.505679534653403  1.0000
  H   H1        1.0  0.11336056523732915  0.7390129325021279  0.08671149375533102  1.0000
  H   H2        1.0  0.6133857955010881  0.08674178101227169  0.7390319603928716  1.0000
  H   H3        1.0  0.16122543766459782  0.5994745401330164  0.1367319035903733  1.0000
  H   H4        1.0  0.6612265367175425  0.13675622517789074  0.5994879992461009  1.0000
  H   H5        1.0  0.11425202667387428  0.6223669470262437  0.9774150969129849  1.0000
  H   H6        1.0  0.614227869987623  0.977440703218079  0.6223737430992102  1.0000
  H   H7        1.0  0.9035100920384094  0.8329222249041306  0.8750171766909887  1.0000
  H   H8        1.0  0.40353467638896473  0.8750338674046247  0.8329065923434412  1.0000
  H   H9        1.0  0.7356331735848299  0.743830753795699  0.7363076194617618  1.0000
  H   H10       1.0  0.2356669764515901  0.7363202767026494  0.7438251240582473  1.0000
  H   H11       1.0  0.918097937106772  0.6931992222224964  0.8067203348276663  1.0000
  H   H12       1.0  0.4181235648458071  0.806736302127682  0.6931881489212302  1.0000
  H   H13       1.0  0.9871402700519097  0.4902182062935339  0.3653988712898125  1.0000
  H   H14       1.0  0.48714647187765076  0.36538930164955735  0.49022039905865  1.0000
  H   H15       1.0  0.9950012580020342  0.6264248276425023  0.4569319332274161  1.0000
  H   H16       1.0  0.4949971628781427  0.45692645685991096  0.6264232701657946  1.0000
  H   H17       1.0  0.14048915157297873  0.6429711358912655  0.3706690189513822  1.0000
  H   H18       1.0  0.6404849281634171  0.3706625088285307  0.6429795597045427  1.0000
  H   H19       1.0  0.3869363583119069  0.978346580061384  0.24751782170091735  1.0000
  H   H20       1.0  0.886923795326453  0.24750255472708463  0.9783350184854883  1.0000
  H   H21       1.0  0.3807293053102612  0.0794137199287803  0.3719304041988281  1.0000
  H   H22       1.0  0.8807288378576105  0.3719168910851849  0.07940618165840616  1.0000
  H   H23       1.0  0.3251814723171336  0.9174296129066235  0.3782013164686404  1.0000
  H   H24       1.0  0.825167344857789  0.3781867338960582  0.9174218255152482  1.0000
  H   H25       1.0  0.5341069902972251  0.649171308756415  0.507872240815864  1.0000
  H   H26       1.0  0.03405489367888489  0.5078594355421373  0.6491794412688776  1.0000
  H   H27       1.0  0.5392288577723363  0.6233904227676349  0.3510470285659011  1.0000
  H   H28       1.0  0.03919182274305652  0.3510439349108552  0.6233899647579761  1.0000
  H   H29       1.0  0.41168981010936534  0.7115040342711012  0.3812047203135904  1.0000
  H   H30       1.0  0.9116686911010204  0.3811869889534378  0.7115240453541035  1.0000
  H   H31       1.0  0.6555274426060292  0.27662833945657184  0.37046885440760496  1.0000
  H   H32       1.0  0.15554615781829992  0.37046591756072905  0.27664250740865265  1.0000
  H   H33       1.0  0.5298888692037805  0.2052042811800234  0.21076229499175977  1.0000
  H   H34       1.0  0.029903859504791803  0.2107590944065976  0.2052153845427469  1.0000
  H   H35       1.0  0.7420956242065343  0.3193481635459534  0.24754661607755676  1.0000
  H   H36       1.0  0.24211648667146327  0.2475421178512107  0.3193531639561584  1.0000
  H   H37       1.0  0.6600434445320289  0.03468105843147381  0.9709356357262848  1.0000
  H   H38       1.0  0.16006594990339107  0.970933683149653  0.03467277551244763  1.0000
  H   H39       1.0  0.8129718404627937  0.004769057199006  0.9358012911539006  1.0000
  H   H40       1.0  0.31300361141489924  0.935798161641763  0.004772100606814381  1.0000
  C   C1        1.0  0.3721227369308692  0.7332329319234319  0.09356497207863872  1.0000
  C   C2        1.0  0.8721083993278711  0.09356268547871592  0.7332277663869889  1.0000
  C   C3        1.0  0.17789990594451405  0.6707123885816485  0.07401789712293548  1.0000
  C   C4        1.0  0.6779008345241168  0.07404303477798631  0.6707207107220583  1.0000
  C   C5        1.0  0.7249561219322089  0.6593463741731327  0.9010590981702222  1.0000
  C   C6        1.0  0.22496810116507504  0.9010665402534883  0.6593321557459079  1.0000
  C   C7        1.0  0.827923368882942  0.7377874470766983  0.8271985340630934  1.0000
  C   C8        1.0  0.3279531021857737  0.8272113186722837  0.7377801895717653  1.0000
  C   C9        1.0  0.8707409309359448  0.6185449136515687  0.25999039387547634  1.0000
  C   C10       1.0  0.3707350385224757  0.25998753884324094  0.6185371849558905  1.0000
  C   C11       1.0  0.005439694949586743  0.5904050899694013  0.3692556390841021  1.0000
  C   C12       1.0  0.505439736990496  0.3692468659764714  0.5904094910825464  1.0000
  C   C13       1.0  0.12440798197979332  0.9673279186456015  0.24930588025873135  1.0000
  C   C14       1.0  0.6243945685650585  0.24930082458330818  0.9673225805307908  1.0000
  C   C15       1.0  0.31781547267846133  0.987741313305577  0.31353073396606856  1.0000
  C   C16       1.0  0.8178068053572929  0.31352032974688643  0.9877385591915697  1.0000
  C   C17       1.0  0.690805615031316  0.8093456132207354  0.44768798375877594  1.0000
  C   C18       1.0  0.1907895237525707  0.4476789989504937  0.8093415824223696  1.0000
  C   C19       1.0  0.5357907768172724  0.6903564809448782  0.421881564591807  1.0000
  C   C20       1.0  0.0357676083515771  0.4218688322315389  0.6903583810284957  1.0000
  C   C21       1.0  0.7487406911690613  0.1397299819544386  0.300691101248134  1.0000
  C   C22       1.0  0.2487385420139958  0.300675326454467  0.1397331881354944  1.0000
  C   C23       1.0  0.6623843324966856  0.24031276601954937  0.2818244649689561  1.0000
  C   C24       1.0  0.16240498370743955  0.2818215410642609  0.24032187884215972  1.0000
  O   O1        1.0  0.4825400020477986  0.6730176233634069  0.1307708878809919  1.0000
  O   O2        1.0  0.9825429549271334  0.13077167546725119  0.6730152378187101  1.0000
  O   O3        1.0  0.4333758827302531  0.8462805169624517  0.07558279016698319  1.0000
  O   O4        1.0  0.9333669178803844  0.0755738309955802  0.8462693726046524  1.0000
  O   O5        1.0  0.6645407911475587  0.5405283986474175  0.8743892718957725  1.0000
  O   O6        1.0  0.1645436413649011  0.8743948755893033  0.5405180478929311  1.0000
  O   O7        1.0  0.6921773506170011  0.7103753079415611  0.9907403950288157  1.0000
  O   O8        1.0  0.19217841088718773  0.9907402246214762  0.7103571043647108  1.0000
  O   O9        1.0  0.8789905673291328  0.7315367112317332  0.25546580796274293  1.0000
  O   O10       1.0  0.37896285650265327  0.2554642713989424  0.731533690777681  1.0000
  O   O11       1.0  0.755777862142544  0.5267373152148451  0.17892243146292228  1.0000
  O   O12       1.0  0.25577748844696657  0.1789137473903608  0.5267327842645031  1.0000
  O   O13       1.0  0.02962940401469903  0.9892610857969404  0.31255800288735713  1.0000
  O   O14       1.0  0.5296316021875143  0.3125487171647237  0.9892628016308507  1.0000
  O   O15       1.0  0.04559333415310365  0.9235728269861101  0.13398340086664012  1.0000
  O   O16       1.0  0.5455712211934483  0.1339754841204979  0.9235615954207361  1.0000
  O   O17       1.0  0.7190377629767113  0.8686437842818295  0.35696005747478676  1.0000
  O   O18       1.0  0.21901959193782966  0.35695502119232714  0.8686409828598727  1.0000
  O   O19       1.0  0.7939163815191607  0.8539141777177194  0.5591800690922639  1.0000
  O   O20       1.0  0.29391699022091433  0.5591728258183865  0.8538887567233431  1.0000
  O   O21       1.0  0.8534434590509647  0.14192916050998153  0.41076045410822815  1.0000
  O   O22       1.0  0.3534550597666665  0.41075890610943594  0.1419302840455288  1.0000
  O   O23       1.0  0.7150651817781224  0.0607199637531579  0.2068987582472204  1.0000
  O   O24       1.0  0.21506196987475332  0.20689208597764974  0.060719646780981414  1.0000
  O   O25       1.0  0.7292825235913014  0.975536303401526  0.9835597248057795  1.0000
  O   O26       1.0  0.22924561965206885  0.9835674798000936  0.975534438305388  1.0000
