data_image0
_chemical_formula_structural       Cu2H24C36S2N6O8
_chemical_formula_sum              "Cu2 H24 C36 S2 N6 O8"
_cell_length_a       8.309964861362028
_cell_length_b       9.860967494141505
_cell_length_c       10.840408527790348
_cell_angle_alpha    91.73033547844913
_cell_angle_beta     103.00642434709447
_cell_angle_gamma    114.89308196779908

_space_group_name_H-M_alt    "P 1"
_space_group_IT_number       1

loop_
  _space_group_symop_operation_xyz
  'x, y, z'

loop_
  _atom_site_type_symbol
  _atom_site_label
  _atom_site_symmetry_multiplicity
  _atom_site_fract_x
  _atom_site_fract_y
  _atom_site_fract_z
  _atom_site_occupancy
  Cu  Cu1       1.0  0.8449975845539865  0.7913626505589306  0.345746040694486  1.0000
  Cu  Cu2       1.0  0.15500361635127996  0.2086348586160653  0.6542545318614968  1.0000
  H   H1        1.0  0.5987097659638464  0.9565464406178706  0.296384192750942  1.0000
  H   H2        1.0  0.4012846585243394  0.0434522301098283  0.7036133821176234  1.0000
  H   H3        1.0  0.2629823315511785  0.8811384246429198  0.2004018405381202  1.0000
  H   H4        1.0  0.7370152016507489  0.11886373107700617  0.7995936833015377  1.0000
  H   H5        1.0  0.06316180488714437  0.6139597683337356  0.09042341816161326  1.0000
  H   H6        1.0  0.9368313755775973  0.386043496500001  0.9095713827963363  1.0000
  H   H7        1.0  0.20073958204664416  0.4306202364977096  0.09641838188078107  1.0000
  H   H8        1.0  0.7992574759749472  0.5693855451857388  0.9035698451437921  1.0000
  H   H9        1.0  0.36069010118090716  0.3030151764228037  0.08647056937619617  1.0000
  H   H10       1.0  0.63931463534319  0.6969890436108058  0.9135327942043359  1.0000
  H   H11       1.0  0.8957080497494655  0.31538249565412  0.2453507835711334  1.0000
  H   H12       1.0  0.1042906339455313  0.6846172564336398  0.7546494462916796  1.0000
  H   H13       1.0  0.15507326447391273  0.44682072079513085  0.3853765886986621  1.0000
  H   H14       1.0  0.8449230793504509  0.5531745781578719  0.6146211692885897  1.0000
  H   H15       1.0  0.46271635253552285  0.6360715473630805  0.5249538451675375  1.0000
  H   H16       1.0  0.537279393414735  0.36392262272799053  0.4750437532452238  1.0000
  H   H17       1.0  0.5076003155342902  0.8931560870497889  0.5920762781188457  1.0000
  H   H18       1.0  0.49240093699673076  0.10684148443815639  0.4079224608595238  1.0000
  H   H19       1.0  0.24393399424057102  0.9641086351954872  0.5106725391188005  1.0000
  H   H20       1.0  0.7560646441992913  0.03588645553625721  0.4893320776181937  1.0000
  H   H21       1.0  0.2693143593098171  0.09354426558741119  0.011757661018648887  1.0000
  H   H22       1.0  0.7306880051601394  0.9064600691980329  0.9882415941785534  1.0000
  H   H23       1.0  0.8267999209259144  0.14009244109477242  0.12239660157154468  1.0000
  H   H24       1.0  0.17320244354404218  0.8599118936906721  0.8776026536256579  1.0000
  C   C1        1.0  0.5038118201889572  0.8416876494094153  0.2517794554772833  1.0000
  C   C2        1.0  0.49618499579561604  0.15831553676598992  0.748218757689237  1.0000
  C   C3        1.0  0.31821541060112674  0.799152918695512  0.19513256420361805  1.0000
  C   C4        1.0  0.6817832150974893  0.20085137012237908  0.8048669459402473  1.0000
  C   C5        1.0  0.20866618438696347  0.650797748833341  0.13565167754879326  1.0000
  C   C6        1.0  0.791331843437561  0.34920541112261827  0.8643476730205817  1.0000
  C   C7        1.0  0.2846626802697969  0.5490166674667522  0.13621208131541349  1.0000
  C   C8        1.0  0.715335441085102  0.4509843020153354  0.8637853371414221  1.0000
  C   C9        1.0  0.4710330357976106  0.5997529408961173  0.19612908321898456  1.0000
  C   C10       1.0  0.5289626102516461  0.400248018711906  0.8038678940097553  1.0000
  C   C11       1.0  0.5705761164586178  0.5060570116300199  0.20440963213648183  1.0000
  C   C12       1.0  0.42942326836197947  0.49394399394556376  0.795587090145595  1.0000
  C   C13       1.0  0.5028346654000869  0.359670612321807  0.14290234396565174  1.0000
  C   C14       1.0  0.4971646419818823  0.6403302997843525  0.857097128682845  1.0000
  C   C15       1.0  0.6194406641831094  0.28802615076294563  0.1524071302887577  1.0000
  C   C16       1.0  0.380558652919987  0.7119770764429917  0.8475906073170518  1.0000
  C   C17       1.0  0.8001522693772998  0.3663376315280829  0.2312204855542958  1.0000
  C   C18       1.0  0.19984516057312618  0.6336643995659444  0.7687787054405885  1.0000
  C   C19       1.0  0.8585840912230011  0.5117674637748167  0.29233734784600063  1.0000
  C   C20       1.0  0.1414182635258286  0.4882345559108574  0.7076636423938892  1.0000
  C   C21       1.0  0.04226765377849518  0.6091603224010385  0.3760373207774349  1.0000
  C   C22       1.0  0.9577341610926239  0.39083603169258657  0.623964229606919  1.0000
  C   C23       1.0  0.17992467153940334  0.561988507977418  0.41637320588147003  1.0000
  C   C24       1.0  0.8200716367509525  0.43800444471933975  0.5836272039372756  1.0000
  C   C25       1.0  0.34912063670023474  0.6658037384125776  0.49396595939514737  1.0000
  C   C26       1.0  0.6508744500290575  0.3341869254038485  0.506035048063424  1.0000
  C   C27       1.0  0.3754824630203614  0.8120683021449367  0.5304109948052795  1.0000
  C   C28       1.0  0.6245132376747762  0.18792120659011857  0.4695909904816631  1.0000
  C   C29       1.0  0.23174531316067964  0.8514104829942468  0.4870847449477578  1.0000
  C   C30       1.0  0.768252727405091  0.1485834788755653  0.5129197122147457  1.0000
  C   C31       1.0  0.5569464485986585  0.13921252615459423  0.0777027975581248  1.0000
  C   C32       1.0  0.4430541319701361  0.8607907371448461  0.9222942438729259  1.0000
  C   C33       1.0  0.3732536418649984  0.0553995527374553  0.0067450133986852664  1.0000
  C   C34       1.0  0.6267500118835297  0.9446048492979668  0.9932526288349519  1.0000
  C   C35       1.0  0.6825945923705988  0.0803059434312701  0.06947511151064135  1.0000
  C   C36       1.0  0.3174065602594068  0.9196984175736203  0.9305230062837065  1.0000
  S   S1        1.0  0.8771780554569587  0.8742316661433024  0.6690588843986301  1.0000
  S   S2        1.0  0.12282741102573876  0.12576232534868836  0.330946896448168  1.0000
  N   N1        1.0  0.5779219852016482  0.7449090680678339  0.2521885886322507  1.0000
  N   N2        1.0  0.4220716898856836  0.25509520100192873  0.747810039055416  1.0000
  N   N3        1.0  0.7454130301463306  0.5787441668220197  0.2762561281700329  1.0000
  N   N4        1.0  0.25458570517442064  0.42125564757868966  0.7237422681151668  1.0000
  N   N5        1.0  0.06900844951169194  0.752240899145569  0.41139042712300267  1.0000
  N   N6        1.0  0.9309896524009601  0.24775544013697018  0.5886104614192007  1.0000
  O   O1        1.0  0.7747958606385551  0.8112910385869228  0.532315721256907  1.0000
  O   O2        1.0  0.22521640170347007  0.18870642155191322  0.4676895871919341  1.0000
  O   O3        1.0  0.9020576950814884  0.7551416787418006  0.7396623065999532  1.0000
  O   O4        1.0  0.09795637697457946  0.24485688403951397  0.26034429882624005  1.0000
  O   O5        1.0  0.9292586415514988  0.005705923553406901  0.3275415708299504  1.0000
  O   O6        1.0  0.07075792525245807  0.9942972793015201  0.6724620057389642  1.0000
  O   O7        1.0  0.7815947945728964  0.9430879420000269  0.7286998119976571  1.0000
  O   O8        1.0  0.21841735814700058  0.05691399255598381  0.2713066103098497  1.0000
