data_image0
_chemical_formula_structural       Zn2P4H36C36N4O12
_chemical_formula_sum              "Zn2 P4 H36 C36 N4 O12"
_cell_length_a       8.3360963957508
_cell_length_b       10.494602589716981
_cell_length_c       11.44103095987759
_cell_angle_alpha    94.809733949262
_cell_angle_beta     93.5102364062555
_cell_angle_gamma    109.80757959339539

_space_group_name_H-M_alt    "P 1"
_space_group_IT_number       1

loop_
  _space_group_symop_operation_xyz
  'x, y, z'

loop_
  _atom_site_type_symbol
  _atom_site_label
  _atom_site_symmetry_multiplicity
  _atom_site_fract_x
  _atom_site_fract_y
  _atom_site_fract_z
  _atom_site_occupancy
  Zn  Zn1       1.0  0.07017219290960942  0.35414743878571636  0.3798364967321745  1.0000
  Zn  Zn2       1.0  0.9298270482471338  0.6458531385733366  0.6201651004709843  1.0000
  P   P1        1.0  0.7711500597186357  0.5184172912681716  0.37204063707722657  1.0000
  P   P2        1.0  0.22885219976251386  0.48158735956562276  0.6279596717218254  1.0000
  P   P3        1.0  0.8168101564335117  0.465846083916361  0.8496246936208461  1.0000
  P   P4        1.0  0.18318626889101347  0.5341534646712915  0.15037578341820526  1.0000
  H   H1        1.0  0.9127022325790152  0.607948786579563  0.22379349522842765  1.0000
  H   H2        1.0  0.08729882402390389  0.3920558609981555  0.7762067374472466  1.0000
  H   H3        1.0  0.931352424029086  0.5872278379922379  0.023893197782236093  1.0000
  H   H4        1.0  0.06864127119334275  0.41277373907288956  0.9761072413224523  1.0000
  H   H5        1.0  0.24076554513606402  0.2771159374730843  0.16959365016595024  1.0000
  H   H6        1.0  0.7592296773102305  0.7228836078584848  0.8304067507497378  1.0000
  H   H7        1.0  0.2347283881047559  0.06709875767984391  0.048715526805224785  1.0000
  H   H8        1.0  0.765268915752344  0.9329028291535195  0.9512851406695756  1.0000
  H   H9        1.0  0.032545358370185656  0.8389875442712479  0.09577528472143367  1.0000
  H   H10       1.0  0.9674566712696875  0.16101099833755228  0.9042246050171199  1.0000
  H   H11       1.0  0.8613689915039302  0.8343357943558369  0.2649055450750807  1.0000
  H   H12       1.0  0.13863984348808597  0.1656648121882469  0.7350975338145315  1.0000
  H   H13       1.0  0.7482831023613201  0.8415300202860291  0.41995028021499076  1.0000
  H   H14       1.0  0.2517193665448403  0.15846954144563344  0.5800497047414267  1.0000
  H   H15       1.0  0.5967689908703093  0.8722881095741357  0.5937577133403237  1.0000
  H   H16       1.0  0.403216028855617  0.1277012062937359  0.40623524588334436  1.0000
  H   H17       1.0  0.6332364328895252  0.10826996912461338  0.682538550545395  1.0000
  H   H18       1.0  0.36674794323649695  0.8917183495751074  0.3174604223568166  1.0000
  H   H19       1.0  0.8259253458479138  0.3082541067357382  0.5912583339402174  1.0000
  H   H20       1.0  0.17406609975344614  0.6917373138404415  0.4087491595278649  1.0000
  H   H21       1.0  0.5163336979031286  0.33169154877647594  0.3822275120882991  1.0000
  H   H22       1.0  0.4836657183967147  0.6683090097642576  0.6177688489179329  1.0000
  H   H23       1.0  0.4755781591107535  0.4496862815116672  0.2945490119254615  1.0000
  H   H24       1.0  0.524427091345707  0.5503193792752156  0.7054471808407637  1.0000
  H   H25       1.0  0.6299429993589669  0.15705190065548177  0.29922409642692566  1.0000
  H   H26       1.0  0.37006137072349077  0.8429547885437216  0.700775606231758  1.0000
  H   H27       1.0  0.5556946962373814  0.45187404962985783  0.08278985109331669  1.0000
  H   H28       1.0  0.4443107928346137  0.5481265189185011  0.9172051451307934  1.0000
  H   H29       1.0  0.6803000758058745  0.026999310300787692  0.12265757936209097  1.0000
  H   H30       1.0  0.3197036817086313  0.9730033119358409  0.8773435639474412  1.0000
  H   H31       1.0  0.5834574830682798  0.25667610962674553  0.8010292097889785  1.0000
  H   H32       1.0  0.4165465149031887  0.7433183537133131  0.19896703665023094  1.0000
  H   H33       1.0  0.5135141536190062  0.3868752355307237  0.8609556259637401  1.0000
  H   H34       1.0  0.486480604053348  0.613117160498284  0.13903815177715015  1.0000
  H   H35       1.0  0.6684162667029766  0.10988848013633397  0.9258024489831482  1.0000
  H   H36       1.0  0.33158250783839094  0.8901080145782034  0.07419622537342012  1.0000
  C   C1        1.0  0.1599944510564484  0.1772856854038238  0.18870058199455994  1.0000
  C   C2        1.0  0.8400073418093185  0.8227148827854549  0.8112968039579015  1.0000
  C   C3        1.0  0.15348143366035322  0.05895041492626519  0.12062577344338617  1.0000
  C   C4        1.0  0.8465209699319445  0.9410572868836411  0.8793738721864272  1.0000
  C   C5        1.0  0.04251484749640606  0.9341759572688346  0.14696502831795036  1.0000
  C   C6        1.0  0.9574897885506745  0.0658287032135121  0.8530363054273378  1.0000
  C   C7        1.0  0.9449276642298942  0.9318517209054776  0.24195581269165695  1.0000
  C   C8        1.0  0.05507627167767742  0.06814888202345061  0.7580495798029359  1.0000
  C   C9        1.0  0.9606930263051083  0.05437543198483039  0.3080182143008372  1.0000
  C   C10       1.0  0.039310441145659056  0.9456241549576204  0.6919879556753725  1.0000
  C   C11       1.0  0.8658698729254937  0.060413729723947505  0.4123424515040099  1.0000
  C   C12       1.0  0.13412869728225715  0.9395827869453014  0.58766233174898  1.0000
  C   C13       1.0  0.7613622974391917  0.9438149832259911  0.4577601035545341  1.0000
  C   C14       1.0  0.23864105184097179  0.05618355009334411  0.5422363715094392  1.0000
  C   C15       1.0  0.6773708633819167  0.9611135283579768  0.5560573403377161  1.0000
  C   C16       1.0  0.32262512451774944  0.03888193444876719  0.4439393411552642  1.0000
  C   C17       1.0  0.698206015628891  0.09221836963489949  0.6059759887583807  1.0000
  C   C18       1.0  0.30178645629904816  0.9077720068470256  0.3940236313198041  1.0000
  C   C19       1.0  0.8049515900706438  0.20323834938150034  0.55617673835426  1.0000
  C   C20       1.0  0.1950498835408823  0.7967591866499931  0.4438265469643666  1.0000
  C   C21       1.0  0.5647871175362694  0.39508063982579955  0.31155501752522946  1.0000
  C   C22       1.0  0.4352205678671552  0.6049250243368576  0.6884404547882496  1.0000
  C   C23       1.0  0.5862061932145296  0.3126177030363309  0.20334859612017908  1.0000
  C   C24       1.0  0.4137981787093564  0.6873859195048267  0.7966474062103046  1.0000
  C   C25       1.0  0.6226757960603778  0.1925840467682036  0.21295101974065028  1.0000
  C   C26       1.0  0.3773301596269931  0.8074206044246708  0.7870468993300503  1.0000
  C   C27       1.0  0.5809923517932205  0.35772413489203103  0.0918610086636207  1.0000
  C   C28       1.0  0.4190110832170645  0.6422774556761863  0.9081365486300894  1.0000
  C   C29       1.0  0.6529766143308322  0.1205276400983237  0.11390266999293884  1.0000
  C   C30       1.0  0.34702670391738627  0.8794739630154426  0.8860983780987225  1.0000
  C   C31       1.0  0.6112506658693917  0.3392740793630438  0.8732630238368839  1.0000
  C   C32       1.0  0.38874942647083793  0.6607254727200667  0.12673593617330425  1.0000
  C   C33       1.0  0.6108643032613871  0.2862358026900367  0.9912870979657878  1.0000
  C   C34       1.0  0.38913543738410533  0.7137627208610552  0.008709148728065887  1.0000
  C   C35       1.0  0.6471495907382021  0.16703016282390587  0.0036107326802366146  1.0000
  C   C36       1.0  0.35284932791432055  0.8329693828667429  0.9963872785071003  1.0000
  N   N1        1.0  0.06571634739697169  0.17535246946614078  0.27965406135982807  1.0000
  N   N2        1.0  0.934285680401473  0.8246491398007122  0.7203495287069258  1.0000
  N   N3        1.0  0.8870128225157715  0.18676613069239778  0.4622138213262942  1.0000
  N   N4        1.0  0.11298451378181075  0.8132334525152061  0.5377954588310131  1.0000
  O   O1        1.0  0.7479281338142201  0.5960797973515496  0.48505698150797355  1.0000
  O   O2        1.0  0.2520708413779004  0.403922808724367  0.514942984608588  1.0000
  O   O3        1.0  0.789503430331429  0.5154338019919961  0.731804224022852  1.0000
  O   O4        1.0  0.2104958692063406  0.4845667690942861  0.26819562778133127  1.0000
  O   O5        1.0  0.8971851264097097  0.444494540310707  0.38435815057272277  1.0000
  O   O6        1.0  0.10282290884701688  0.5555152190420146  0.6156437353853049  1.0000
  O   O7        1.0  0.8239804082078733  0.6234850549383281  0.27610085142034535  1.0000
  O   O8        1.0  0.17601988478310907  0.3765206085061692  0.723899400349836  1.0000
  O   O9        1.0  0.9554507258532184  0.4006502550636455  0.8623888807634897  1.0000
  O   O10       1.0  0.04454986229289658  0.5993533765276027  0.13761212939380127  1.0000
  O   O11       1.0  0.8518871061311305  0.586974990617982  0.9513694183012118  1.0000
  O   O12       1.0  0.14810688424642388  0.41302455459389614  0.04863177919059319  1.0000
