data_image0
_chemical_formula_structural       Co2P2H20C12N2O12
_chemical_formula_sum              "Co2 P2 H20 C12 N2 O12"
_cell_length_a       6.575478262901598
_cell_length_b       7.407700581495445
_cell_length_c       9.949319530514321
_cell_angle_alpha    87.60157037486643
_cell_angle_beta     77.3646124211803
_cell_angle_gamma    70.12707282034857

_space_group_name_H-M_alt    "P 1"
_space_group_IT_number       1

loop_
  _space_group_symop_operation_xyz
  'x, y, z'

loop_
  _atom_site_type_symbol
  _atom_site_label
  _atom_site_symmetry_multiplicity
  _atom_site_fract_x
  _atom_site_fract_y
  _atom_site_fract_z
  _atom_site_occupancy
  Co  Co1       1.0  0.2664870267702497  0.17357956973105365  0.03692103761130028  1.0000
  Co  Co2       1.0  0.7335154374047406  0.8264199799964022  0.9630772532442219  1.0000
  P   P1        1.0  0.7313577372530914  0.21645787468141728  0.11015194673064599  1.0000
  P   P2        1.0  0.26864740139905047  0.7835387948829226  0.8898470490459328  1.0000
  H   H1        1.0  0.5620453075565945  0.2670808100020353  0.4894732294716987  1.0000
  H   H2        1.0  0.4379487026415064  0.7329245062473931  0.5105230766689954  1.0000
  H   H3        1.0  0.6884755993929302  0.4033205716659439  0.6659192947666595  1.0000
  H   H4        1.0  0.31152128637634036  0.5966731903304067  0.3340839317232421  1.0000
  H   H5        1.0  0.09469094632731158  0.35598125185401136  0.6316017271348355  1.0000
  H   H6        1.0  0.9053035204051836  0.6440067608428138  0.3684019754559955  1.0000
  H   H7        1.0  0.348848799750904  0.19068409311031337  0.4061555366270964  1.0000
  H   H8        1.0  0.6511490476562116  0.8093110797757251  0.5938505374802074  1.0000
  H   H9        1.0  0.6778707452193018  0.0170225137878433  0.29902314559133447  1.0000
  H   H10       1.0  0.3221274647940575  0.9829798968869313  0.7009766701098525  1.0000
  H   H11       1.0  0.9554398873975032  0.9341334701607809  0.20213178606941543  1.0000
  H   H12       1.0  0.0445635275460603  0.0658674815308871  0.7978703592847435  1.0000
  H   H13       1.0  0.3212176732237353  0.4434853788571689  0.14901965747448284  1.0000
  H   H14       1.0  0.6787822278903801  0.5565127229138727  0.8509800292928272  1.0000
  H   H15       1.0  0.1193131863364556  0.5578272252237042  0.07859483811148489  1.0000
  H   H16       1.0  0.8806935428694375  0.4421694724818935  0.9214009210171379  1.0000
  H   H17       1.0  0.37499225023808685  0.3936648577563917  0.8325832237383107  1.0000
  H   H18       1.0  0.6250076617453003  0.606333252940118  0.16741545614776496  1.0000
  H   H19       1.0  0.5051480597817886  0.16972785440570703  0.8009180129000907  1.0000
  H   H20       1.0  0.494852304485569  0.8302731481090719  0.19907852317518854  1.0000
  C   C1        1.0  0.8824154105362112  0.15360792643654977  0.3566009675927972  1.0000
  C   C2        1.0  0.11757461180992114  0.8463916302230391  0.6433970375343134  1.0000
  C   C3        1.0  0.7358153754695279  0.252059564961158  0.4752507796635185  1.0000
  C   C4        1.0  0.2641838070509621  0.747944265528773  0.5247508767738365  1.0000
  C   C5        1.0  0.8068037631547469  0.32604814047917335  0.5749949215205986  1.0000
  C   C6        1.0  0.1931893424754206  0.6739513921337097  0.4250056722416955  1.0000
  C   C7        1.0  0.031647530029253766  0.30223916822893687  0.5549491529132806  1.0000
  C   C8        1.0  0.9683474880073317  0.6977631772378532  0.44505814296505236  1.0000
  C   C9        1.0  0.17348863111659799  0.21073269715513732  0.4352189565858921  1.0000
  C   C10       1.0  0.8265107062972633  0.7892668409171437  0.564780773159377  1.0000
  C   C11       1.0  0.8192118574743004  0.06165235825155692  0.2511404962277267  1.0000
  C   C12       1.0  0.18079255171493708  0.938350031106211  0.7488614761001313  1.0000
  N   N1        1.0  0.0999128214844447  0.1390809303524492  0.33901891769876596  1.0000
  N   N2        1.0  0.9000869356055644  0.860921472761703  0.6609816888793955  1.0000
  O   O1        1.0  0.9395491980353227  0.23713753720828387  0.014540220445930214  1.0000
  O   O2        1.0  0.060453707554359075  0.7628648954119729  0.9854569334800228  1.0000
  O   O3        1.0  0.6154413238384675  0.1093278019998465  0.0388079472260969  1.0000
  O   O4        1.0  0.38456269828244427  0.8906717490924553  0.9611901276251724  1.0000
  O   O5        1.0  0.5651892804544473  0.40897856485619855  0.1756968277183475  1.0000
  O   O6        1.0  0.43481160403607066  0.5910209656554601  0.8243036929038962  1.0000
  O   O7        1.0  0.24559757601544868  0.04856553417616991  0.2269216395068554  1.0000
  O   O8        1.0  0.7544012085674368  0.9514354491228264  0.7730771263351384  1.0000
  O   O9        1.0  0.1756192853756247  0.4419051698048549  0.13296489394318198  1.0000
  O   O10       1.0  0.8243816208534367  0.5580943785577477  0.867033612916593  1.0000
  O   O11       1.0  0.35509628164076906  0.26429019319595437  0.8326437261008548  1.0000
  O   O12       1.0  0.6449073208039949  0.735706492854476  0.1673534719175151  1.0000
