data_image0
_chemical_formula_structural       Cd4H64C92N8O20
_chemical_formula_sum              "Cd4 H64 C92 N8 O20"
_cell_length_a       15.873688480335629
_cell_length_b       16.755938555068163
_cell_length_c       17.07706975660587
_cell_angle_alpha    119.3664653070242
_cell_angle_beta     109.93433691274457
_cell_angle_gamma    89.9993949227394

_space_group_name_H-M_alt    "P 1"
_space_group_IT_number       1

loop_
  _space_group_symop_operation_xyz
  'x, y, z'

loop_
  _atom_site_type_symbol
  _atom_site_label
  _atom_site_symmetry_multiplicity
  _atom_site_fract_x
  _atom_site_fract_y
  _atom_site_fract_z
  _atom_site_occupancy
  Cd  Cd1       1.0  0.8737852531830725  0.9650735746766371  0.4939184276301561  1.0000
  Cd  Cd2       1.0  0.6262473130629828  0.4711995838254949  0.5061692644072907  1.0000
  Cd  Cd3       1.0  0.1262144371800957  0.03492594286801428  0.5060807159960349  1.0000
  Cd  Cd4       1.0  0.3737511889623163  0.5287974296410168  0.49382808604692496  1.0000
  H   H1        1.0  0.9041212936366988  0.17193032919721668  0.6816504141148557  1.0000
  H   H2        1.0  0.5958498744413916  0.49027350888561466  0.31833304175687266  1.0000
  H   H3        1.0  0.09587920532720061  0.8280696735172485  0.3183499098502695  1.0000
  H   H4        1.0  0.4041517170349707  0.5097263469475237  0.6816692298414467  1.0000
  H   H5        1.0  0.33625679391114704  0.31893054379737157  0.318296037093667  1.0000
  H   H6        1.0  0.163671348996111  0.0006045676389945417  0.6815863423231577  1.0000
  H   H7        1.0  0.6637409923428237  0.6810692211206018  0.6817005619958894  1.0000
  H   H8        1.0  0.8363337074820194  0.9993949171888161  0.3184127570471705  1.0000
  H   H9        1.0  0.22983985082162658  0.2201562687838177  0.14487631926098746  1.0000
  H   H10       1.0  0.27000829446710367  0.07514334383549233  0.8550226284270794  1.0000
  H   H11       1.0  0.7701586050732132  0.7798437116677307  0.8551204930848901  1.0000
  H   H12       1.0  0.7299981102807677  0.9248548150740348  0.14497514714944526  1.0000
  H   H13       1.0  0.3145455531174265  0.562516646532103  0.3124249292961354  1.0000
  H   H14       1.0  0.1855310178101135  0.2500528011634202  0.687474678980685  1.0000
  H   H15       1.0  0.6854490208960584  0.437482896016057  0.687572154029894  1.0000
  H   H16       1.0  0.8144713511165308  0.749947578515524  0.31252531767079733  1.0000
  H   H17       1.0  0.9578834056523958  0.9245900753378251  0.6668966428839627  1.0000
  H   H18       1.0  0.5421130499584946  0.2577894606944753  0.3332651579546281  1.0000
  H   H19       1.0  0.0421156180659068  0.07540864101144962  0.3331017040504208  1.0000
  H   H20       1.0  0.45788490340979143  0.7422111208455604  0.6667364469387851  1.0000
  H   H21       1.0  0.209167130682772  0.4738777866362939  0.1367747097920288  1.0000
  H   H22       1.0  0.2908745209010917  0.33695306494767857  0.8631252733750899  1.0000
  H   H23       1.0  0.7908299829343266  0.5261223484099204  0.863222259476686  1.0000
  H   H24       1.0  0.7091285176664217  0.6630475302648406  0.13687493653272062  1.0000
  H   H25       1.0  0.9986392936065585  0.26665978936385665  0.859653864634744  1.0000
  H   H26       1.0  0.5012842257774112  0.4070029892342292  0.1403241465753241  1.0000
  H   H27       1.0  0.001362408675220254  0.7333397891197039  0.1403453353249378  1.0000
  H   H28       1.0  0.49871813416123706  0.5929991474301417  0.8596776003826109  1.0000
  H   H29       1.0  0.05635811262808228  0.008484488937142542  0.845835520990356  1.0000
  H   H30       1.0  0.4435619661324708  0.16276333880652766  0.1543299724023015  1.0000
  H   H31       1.0  0.943642256363958  0.9915134871556647  0.15416208558571073  1.0000
  H   H32       1.0  0.5564369126339628  0.837236279230119  0.8456685743204421  1.0000
  H   H33       1.0  0.12469699579195043  0.1520557261064752  0.001424347359424942  1.0000
  H   H34       1.0  0.3753330485169215  0.15063445681909132  0.9987314402421676  1.0000
  H   H35       1.0  0.8753067154124351  0.847944498977803  0.9985754923692199  1.0000
  H   H36       1.0  0.6246716102480645  0.8493665230712467  0.0012705469080245939  1.0000
  H   H37       1.0  0.6927883210726408  0.7261140090673237  0.4861167228917369  1.0000
  H   H38       1.0  0.8072259110649969  0.24002556685447726  0.5139784060062526  1.0000
  H   H39       1.0  0.30721057267378876  0.273882680660286  0.5138789066535879  1.0000
  H   H40       1.0  0.19277624823482148  0.7599730248763876  0.48602540018056595  1.0000
  H   H41       1.0  0.5531775803547417  0.9354814956278403  0.45541326431611423  1.0000
  H   H42       1.0  0.9467824214299868  0.4799889360792591  0.5444812197763371  1.0000
  H   H43       1.0  0.4468223909241544  0.06451797552747954  0.5445872300398166  1.0000
  H   H44       1.0  0.05321392072882965  0.5200095037975316  0.4555168575682418  1.0000
  H   H45       1.0  0.279551047030502  0.8929969924626847  0.4599940971807901  1.0000
  H   H46       1.0  0.22061174353574836  0.43295200755941476  0.5403403838144671  1.0000
  H   H47       1.0  0.7204504486204543  0.10700021241099471  0.5400083288787414  1.0000
  H   H48       1.0  0.7793823854436964  0.5670461790942128  0.4596497595424866  1.0000
  H   H49       1.0  0.325991842269332  0.811058329205423  0.4913107354799069  1.0000
  H   H50       1.0  0.1740466513483483  0.3196924215062681  0.5088605459735052  1.0000
  H   H51       1.0  0.6740162030328918  0.18894833629525454  0.5087038960072975  1.0000
  H   H52       1.0  0.8259474806270929  0.6803051794855506  0.4911290139479621  1.0000
  H   H53       1.0  0.41798158593951473  0.7245419158223428  0.4747089207088709  1.0000
  H   H54       1.0  0.0819575854082331  0.24976275946756488  0.5251983131664204  1.0000
  H   H55       1.0  0.5820205302258542  0.27545905723174974  0.5252937639341229  1.0000
  H   H56       1.0  0.9180422097683446  0.7502376520511335  0.47479892569210613  1.0000
  H   H57       1.0  0.19179095330321158  0.6463390664077053  0.18010707638925558  1.0000
  H   H58       1.0  0.30809691455510085  0.46575642519469085  0.8200266210487259  1.0000
  H   H59       1.0  0.8082017885119156  0.35365553652712106  0.8199025595482327  1.0000
  H   H60       1.0  0.6918959128535532  0.5342492909835173  0.17996473696795337  1.0000
  H   H61       1.0  0.12205765653789051  0.3305901224682587  0.991185830552567  1.0000
  H   H62       1.0  0.37781469521139843  0.33927332104995855  0.008706464124500752  1.0000
  H   H63       1.0  0.8779420026748284  0.669409433752385  0.008809857787859919  1.0000
  H   H64       1.0  0.6221894017221318  0.6607277516190281  0.9912928215662195  1.0000
  C   C1        1.0  0.9395621780318065  0.13884506325832288  0.7212436734163391  1.0000
  C   C2        1.0  0.5604063068380255  0.41760691403846545  0.2787721782956112  1.0000
  C   C3        1.0  0.06043857369337503  0.8611543460809942  0.2787539625572822  1.0000
  C   C4        1.0  0.4395943280897399  0.5823939439740471  0.7212296961876066  1.0000
  C   C5        1.0  0.30615142939153367  0.3502598851749709  0.27505245905357617  1.0000
  C   C6        1.0  0.19380068473479642  0.0751510348144746  0.7248364015228576  1.0000
  C   C7        1.0  0.6938463598584406  0.6497392940812005  0.7249435566004935  1.0000
  C   C8        1.0  0.8062037021024651  0.9248482344797608  0.27516248459114245  1.0000
  C   C9        1.0  0.20811823091503354  0.3387031310466284  0.12486824435887917  1.0000
  C   C10       1.0  0.29184124397355043  0.2136973216855864  0.875047456374901  1.0000
  C   C11       1.0  0.7918819559826886  0.6612969567331602  0.8751272735907494  1.0000
  C   C12       1.0  0.7081636705487142  0.7863024791677872  0.12495125934830065  1.0000
  C   C13       1.0  0.24656926463843837  0.29566492058778243  0.17803142700363858  1.0000
  C   C14       1.0  0.2533619978136129  0.11751546067798564  0.8218658197853729  1.0000
  C   C15       1.0  0.7534293332122672  0.7043347438381958  0.8219657689893654  1.0000
  C   C16       1.0  0.7466410497419035  0.8824833775491071  0.17813263981598507  1.0000
  C   C17       1.0  0.29531582196258194  0.48631875305831335  0.2719761211986553  1.0000
  C   C18       1.0  0.20472423241155008  0.21427635600741  0.7279127231478526  1.0000
  C   C19       1.0  0.7046807639695133  0.5136808504287557  0.7280210184608579  1.0000
  C   C20       1.0  0.7952782874589558  0.7857219506605373  0.27208590684431055  1.0000
  C   C21       1.0  0.9690940958080246  0.0004415051810439695  0.7131404369202202  1.0000
  C   C22       1.0  0.5308561225637262  0.28737359978474325  0.286977975862392  1.0000
  C   C23       1.0  0.030904924914267457  0.9995577968300325  0.28685849344964987  1.0000
  C   C24       1.0  0.46914302513443584  0.7126283145098072  0.7130242553320233  1.0000
  C   C25       1.0  0.23587856864880755  0.4364366368988115  0.17418242828526345  1.0000
  C   C26       1.0  0.26413340690408654  0.2621275094593258  0.8257159979880343  1.0000
  C   C27       1.0  0.7641190696572975  0.5635646153683495  0.8258149540281253  1.0000
  C   C28       1.0  0.7358684343375544  0.7378723386604805  0.1742841690542536  1.0000
  C   C29       1.0  0.9932797631411175  0.19114714960035423  0.8204990262761528  1.0000
  C   C30       1.0  0.506640671691258  0.37066958737310773  0.1795218859100275  1.0000
  C   C31       1.0  0.006720457903057292  0.8088523138416336  0.17949936352375345  1.0000
  C   C32       1.0  0.49336063886937603  0.629330314849362  0.8204790349585525  1.0000
  C   C33       1.0  0.0238010706472238  0.04765711731455013  0.8123833021390469  1.0000
  C   C34       1.0  0.47613301442511596  0.23535886755514915  0.18774413458965716  1.0000
  C   C35       1.0  0.9762004926746926  0.9523421915327788  0.1876149307380219  1.0000
  C   C36       1.0  0.5238661362690492  0.7646424610775995  0.8122575131692715  1.0000
  C   C37       1.0  0.10421825059090382  0.19566780142300638  0.969879397333358  1.0000
  C   C38       1.0  0.3957331901870162  0.2257658224431935  0.03017081158034077  1.0000
  C   C39       1.0  0.8957825041302738  0.8043310222545088  0.030117655204776425  1.0000
  C   C40       1.0  0.6042685061027627  0.7742349273639845  0.9698295552503072  1.0000
  C   C41       1.0  0.039759000345419813  0.14595304357408165  0.8682859051754904  1.0000
  C   C42       1.0  0.460167025801823  0.27771312810300225  0.13178794830769655  1.0000
  C   C43       1.0  0.9602416124198921  0.8540460961290036  0.1317107637155175  1.0000
  C   C44       1.0  0.5398327975292003  0.7222878304015055  0.8682133292720737  1.0000
  C   C45       1.0  0.2683685202160292  0.7599404289603483  0.34014142836232275  1.0000
  C   C46       1.0  0.23152137453825355  0.41956913536017737  0.6600507146642871  1.0000
  C   C47       1.0  0.73163428119215  0.2400544786690232  0.6598684892425979  1.0000
  C   C48       1.0  0.7684754581631169  0.5804310460753612  0.33994490387468823  1.0000
  C   C49       1.0  0.7156742298248416  0.8775184475048262  0.47232046509841324  1.0000
  C   C50       1.0  0.7843087993732211  0.4051637706871389  0.5276821878547012  1.0000
  C   C51       1.0  0.28432479988545367  0.12247909752083075  0.5276767149650042  1.0000
  C   C52       1.0  0.21568906116565503  0.5948335742316218  0.47231898806444433  1.0000
  C   C53       1.0  0.6313331319482743  0.8345567934196154  0.46994216966024305  1.0000
  C   C54       1.0  0.868656030752554  0.36458237087594375  0.5300427241775197  1.0000
  C   C55       1.0  0.3686657558061626  0.1654410676316117  0.5300546267560478  1.0000
  C   C56       1.0  0.13134169082645297  0.6354147044065782  0.46995748465901255  1.0000
  C   C57       1.0  0.6319968875191577  0.7560749151975584  0.47905619691026424  1.0000
  C   C58       1.0  0.8679894887876856  0.27700673466814146  0.520964053476945  1.0000
  C   C59       1.0  0.3680016175021378  0.24392151260715167  0.520940570108472  1.0000
  C   C60       1.0  0.13201105331067003  0.7229908867230963  0.4790373920320125  1.0000
  C   C61       1.0  0.5533594092385529  0.8735117518629636  0.4612042451453749  1.0000
  C   C62       1.0  0.9466141373011608  0.4122502337735128  0.5387282494233291  1.0000
  C   C63       1.0  0.44663974744760526  0.12648840544616036  0.5387962357425878  1.0000
  C   C64       1.0  0.05338086557591037  0.587747775036135  0.46126940140860045  1.0000
  C   C65       1.0  0.47585972706289675  0.833861664993954  0.4618228240102413  1.0000
  C   C66       1.0  0.024123262380463525  0.37198350775499717  0.5381388630904455  1.0000
  C   C67       1.0  0.5241403861718652  0.16613749013580298  0.5381780539928158  1.0000
  C   C68       1.0  0.9758729036760346  0.6280158724851646  0.46185595875672225  1.0000
  C   C69       1.0  0.5605979715696705  0.6374065262085364  0.49719602843390504  1.0000
  C   C70       1.0  0.9393683801095845  0.14018700767098102  0.5027954799137149  1.0000
  C   C71       1.0  0.4394011941044909  0.3625918741151679  0.5028027021476121  1.0000
  C   C72       1.0  0.060632263806176895  0.8598120933561051  0.49720464426305017  1.0000
  C   C73       1.0  0.3175896409435808  0.8362125080467706  0.44085234297817544  1.0000
  C   C74       1.0  0.1824469323874496  0.3952722074743777  0.5593504224345767  1.0000
  C   C75       1.0  0.6824150831183076  0.16378780882977398  0.5591559713080586  1.0000
  C   C76       1.0  0.8175493564584712  0.6047245527689782  0.44063899403202117  1.0000
  C   C77       1.0  0.47646715562257913  0.7560797571677043  0.4724036282685804  1.0000
  C   C78       1.0  0.0234764917205936  0.2836024325985634  0.527510789229858  1.0000
  C   C79       1.0  0.5235344358537829  0.24392009866543424  0.5275986433297322  1.0000
  C   C80       1.0  0.9765237263275779  0.7163976165052333  0.4724881840055277  1.0000
  C   C81       1.0  0.2278186226563932  0.6990427798746951  0.25527532169314804  1.0000
  C   C82       1.0  0.2720490093455227  0.44338330369754425  0.7448757540498222  1.0000
  C   C83       1.0  0.7721770876259484  0.3009508818196737  0.7447347676929186  1.0000
  C   C84       1.0  0.727940348874931  0.5566175512057187  0.2551100699897263  1.0000
  C   C85       1.0  0.14182166577661093  0.28802003769466467  0.024115547619011676  1.0000
  C   C86       1.0  0.3580935799946872  0.26378785690574347  0.9758262710346061  1.0000
  C   C87       1.0  0.8581774657511045  0.711978986966841  0.9758803111122208  1.0000
  C   C88       1.0  0.6419079743392189  0.7362132089270047  0.02417371214891536  1.0000
  C   C89       1.0  0.5555164245990271  0.7177684413513532  0.4812975492276695  1.0000
  C   C90       1.0  0.9444392014907946  0.23642206673358854  0.5186518068020335  1.0000
  C   C91       1.0  0.4444826021152722  0.28222968933611264  0.5187002142712345  1.0000
  C   C92       1.0  0.05556292066657424  0.763577734996879  0.48134971096999396  1.0000
  N   N1        1.0  0.929170553180846  0.04530570281680465  0.6677495615732526  1.0000
  N   N2        1.0  0.5708011471815765  0.377595618546458  0.33231514041192883  1.0000
  N   N3        1.0  0.07083047646406024  0.9546942457949968  0.3322500085655878  1.0000
  N   N4        1.0  0.4292006850720683  0.6224059865587677  0.6676867769368117  1.0000
  N   N5        1.0  0.32953844306336316  0.4441369432660736  0.3222359243000455  1.0000
  N   N6        1.0  0.17046239653023323  0.12186679083745852  0.6776496872107957  1.0000
  N   N7        1.0  0.670458812509601  0.5558628757545705  0.6777614286157957  1.0000
  N   N8        1.0  0.8295391667916832  0.8781325180098634  0.3223485456662732  1.0000
  O   O1        1.0  0.7144311799216684  0.9490553189301139  0.46385831403961963  1.0000
  O   O2        1.0  0.7855256605347094  0.4851379714072337  0.5360988047760105  1.0000
  O   O3        1.0  0.28556838046963406  0.05094217199287245  0.536138112197513  1.0000
  O   O4        1.0  0.2144713973954282  0.5148577170181027  0.4639000239332349  1.0000
  O   O5        1.0  0.625955523601817  0.5944539774908365  0.48529783564821855  1.0000
  O   O6        1.0  0.8740474329365923  0.1091740581762437  0.5147736242906334  1.0000
  O   O7        1.0  0.374044592628941  0.4055445919771117  0.5147024589193593  1.0000
  O   O8        1.0  0.12595335293504215  0.8908247268252794  0.4852268835332655  1.0000
  O   O9        1.0  0.7868240440255789  0.8414318546413567  0.4842052710737763  1.0000
  O   O10       1.0  0.713191397446721  0.3572460085365918  0.5159000076520501  1.0000
  O   O11       1.0  0.21317593923731687  0.1585652738667348  0.5157928895402222  1.0000
  O   O12       1.0  0.28680850616121484  0.6427513586450786  0.4841046798863433  1.0000
  O   O13       1.0  0.5034394377367519  0.6179927781112156  0.5254561022362838  1.0000
  O   O14       1.0  0.9965003105810765  0.09250031657784762  0.4744980619816062  1.0000
  O   O15       1.0  0.49655825269180537  0.38200433584729865  0.4745406513144844  1.0000
  O   O16       1.0  0.003500055414960534  0.9074982451767611  0.5255001280299471  1.0000
  O   O17       1.0  0.4040965473344969  0.8791414792030922  0.4548014460962409  1.0000
  O   O18       1.0  0.09595212514498999  0.42428379715298087  0.5452550282768557  1.0000
  O   O19       1.0  0.5959046584127206  0.1208575290453381  0.5452013795400035  1.0000
  O   O20       1.0  0.9040424326980486  0.5757128557621272  0.45473568258599795  1.0000
