data_image0
_chemical_formula_structural       Na2P4H22C24O12
_chemical_formula_sum              "Na2 P4 H22 C24 O12"
_cell_length_a       5.657029643859088
_cell_length_b       7.839855354068316
_cell_length_c       14.214240275722771
_cell_angle_alpha    87.8985023910794
_cell_angle_beta     87.6217858565086
_cell_angle_gamma    82.94956192262231

_space_group_name_H-M_alt    "P 1"
_space_group_IT_number       1

loop_
  _space_group_symop_operation_xyz
  'x, y, z'

loop_
  _atom_site_type_symbol
  _atom_site_label
  _atom_site_symmetry_multiplicity
  _atom_site_fract_x
  _atom_site_fract_y
  _atom_site_fract_z
  _atom_site_occupancy
  Na  Na1       1.0  0.3003144299305873  0.6872167280341515  0.9930360468707773  1.0000
  Na  Na2       1.0  0.6996834512769893  0.31277216958994103  0.006964192515326296  1.0000
  P   P1        1.0  0.7756103283886164  0.8923022389544786  0.8671227918009305  1.0000
  P   P2        1.0  0.22438462966821507  0.10769309167332612  0.1328767018079375  1.0000
  P   P3        1.0  0.7761557376587545  0.6533822784929628  0.14313410205597416  1.0000
  P   P4        1.0  0.22385324565304637  0.3466143512007207  0.856866384874557  1.0000
  H   H1        1.0  0.3919458922338849  0.9985600254459968  0.8768717148073645  1.0000
  H   H2        1.0  0.6080512912741157  0.001431478924224901  0.12312497499742386  1.0000
  H   H3        1.0  0.49640392759919655  0.0590522104587308  0.7088200994439973  1.0000
  H   H4        1.0  0.5035925152397452  0.940976545669507  0.2911808245860853  1.0000
  H   H5        1.0  0.9908965023669155  0.10195433433998603  0.8920050740999695  1.0000
  H   H6        1.0  0.009103505343205089  0.8980345177032164  0.10800003379541318  1.0000
  H   H7        1.0  0.6046902900830133  0.11398183198880933  0.544422333599762  1.0000
  H   H8        1.0  0.3953130165012694  0.8860263848283553  0.45557597773458963  1.0000
  H   H9        1.0  0.0686353865947282  0.44849884697836023  0.11510346136721238  1.0000
  H   H10       1.0  0.931367254430988  0.5514926465932464  0.8848951885418256  1.0000
  H   H11       1.0  0.30217393008884835  0.8327957467300138  0.5853005948601221  1.0000
  H   H12       1.0  0.6978116779056762  0.16719311311882024  0.41470139366116837  1.0000
  H   H13       1.0  0.19234450035585848  0.7793932357067348  0.7500293960390606  1.0000
  H   H14       1.0  0.8076317734853476  0.22058789546986904  0.2499722957823564  1.0000
  H   H15       1.0  0.3924582226406911  0.47805498776497773  0.22257674009499334  1.0000
  H   H16       1.0  0.6075427048274378  0.5219570763004453  0.7774222674728432  1.0000
  H   H17       1.0  0.2629593376296953  0.40418247567691173  0.3838306092182222  1.0000
  H   H18       1.0  0.7370443434152065  0.5958244342687423  0.6161698281685586  1.0000
  H   H19       1.0  0.8437389056111115  0.6458055592643605  0.489000457126103  1.0000
  H   H20       1.0  0.1562541180924981  0.3542116277380957  0.510999375659729  1.0000
  H   H21       1.0  0.972185422169922  0.7149722045310228  0.3275935072334305  1.0000
  H   H22       1.0  0.027830802519503064  0.285023159868132  0.6724060990336153  1.0000
  C   C1        1.0  0.8375036183911532  0.9165623304127237  0.7423442737426665  1.0000
  C   C2        1.0  0.1624895733005971  0.08344328726175831  0.2576550720115519  1.0000
  C   C3        1.0  0.6739494063373358  0.009286628318747601  0.682261668533016  1.0000
  C   C4        1.0  0.32605825378648484  0.990728007103975  0.3177385104964401  1.0000
  C   C5        1.0  0.7369118354443955  0.0401535991811173  0.5879843449902891  1.0000
  C   C6        1.0  0.2630819018677785  0.9598597231819426  0.41201624576456897  1.0000
  C   C7        1.0  0.9651788431758844  0.980962190272031  0.5498718176262116  1.0000
  C   C8        1.0  0.03482102994990299  0.01904600575664261  0.45012799706609724  1.0000
  C   C9        1.0  0.12476821028530342  0.8844319375705255  0.6106657927350125  1.0000
  C   C10       1.0  0.8752376787159477  0.11556211356678152  0.38933482947007286  1.0000
  C   C11       1.0  0.06306078422716142  0.852870158415357  0.7049257907746804  1.0000
  C   C12       1.0  0.9369143360000366  0.1471276996063366  0.2950749091039596  1.0000
  C   C13       1.0  0.691305158336675  0.600038688233383  0.2633411225916332  1.0000
  C   C14       1.0  0.3087011738416762  0.39996308158628596  0.7366593395670191  1.0000
  C   C15       1.0  0.49209070277183287  0.5124163537430279  0.2814962162099873  1.0000
  C   C16       1.0  0.5079146278716635  0.4875918314870305  0.718505558586578  1.0000
  C   C17       1.0  0.4186163029360157  0.4727510153752236  0.3734685538757032  1.0000
  C   C18       1.0  0.5813881588481067  0.5272507650408758  0.6265305523913297  1.0000
  C   C19       1.0  0.5404635331660829  0.5199670042039133  0.4510137009984802  1.0000
  C   C20       1.0  0.4595370023466074  0.4800373341822565  0.5489861691393185  1.0000
  C   C21       1.0  0.7421627926884115  0.6070342543777019  0.4316832874647928  1.0000
  C   C22       1.0  0.2578438130930678  0.3929765130082715  0.5683176986891283  1.0000
  C   C23       1.0  0.8163506935470013  0.6466423563795232  0.3397640224805015  1.0000
  C   C24       1.0  0.1836481923670874  0.35336070672224923  0.6602345102475125  1.0000
  O   O1        1.0  0.928784889649911  0.7382854188441288  0.9069877828065172  1.0000
  O   O2        1.0  0.07121064425949439  0.2617048102416959  0.09300756958847235  1.0000
  O   O3        1.0  0.5016722025183284  0.8809201022240603  0.8849587748697372  1.0000
  O   O4        1.0  0.4983265634576171  0.11907394232072484  0.11504134143359578  1.0000
  O   O5        1.0  0.8198938469054654  0.06508357498712061  0.9118287365171296  1.0000
  O   O6        1.0  0.18010986628044628  0.9349040049668462  0.08817558902565276  1.0000
  O   O7        1.0  0.049495554146453485  0.5783817255361187  0.12715753947519903  1.0000
  O   O8        1.0  0.9505125443969787  0.4216097572368724  0.8728430705381027  1.0000
  O   O9        1.0  0.6173619192335238  0.5772443692567109  0.07856244059982488  1.0000
  O   O10       1.0  0.38264767524352544  0.42274840979136047  0.9214373992526672  1.0000
  O   O11       1.0  0.7831804662278187  0.8502703437612811  0.1358111827450941  1.0000
  O   O12       1.0  0.21682328036190773  0.14972501085018314  0.8641873625630081  1.0000
