data_image0
_chemical_formula_structural       Cu4H28C32N12Cl8
_chemical_formula_sum              "Cu4 H28 C32 N12 Cl8"
_cell_length_a       3.8772430763873245
_cell_length_b       15.541010582926406
_cell_length_c       15.436549713148871
_cell_angle_alpha    89.99877990176707
_cell_angle_beta     94.54427473727516
_cell_angle_gamma    90.00029910234187

_space_group_name_H-M_alt    "P 1"
_space_group_IT_number       1

loop_
  _space_group_symop_operation_xyz
  'x, y, z'

loop_
  _atom_site_type_symbol
  _atom_site_label
  _atom_site_symmetry_multiplicity
  _atom_site_fract_x
  _atom_site_fract_y
  _atom_site_fract_z
  _atom_site_occupancy
  Cu  Cu1       1.0  0.9980007010306692  0.7103565072317224  0.7485695489442037  1.0000
  Cu  Cu2       1.0  0.5020154566690636  0.2103571499238157  0.751432365651219  1.0000
  Cu  Cu3       1.0  0.0019939779748341  0.2896432704081064  0.251428298111307  1.0000
  Cu  Cu4       1.0  0.49800508336650046  0.7896439146172581  0.2485685946809966  1.0000
  H   H1        1.0  0.8602613729989698  0.009776119271485601  0.8462129908893486  1.0000
  H   H2        1.0  0.6397285136055544  0.5097821582154863  0.653790148450824  1.0000
  H   H3        1.0  0.13970741837552944  0.9902210844884748  0.15378757268864257  1.0000
  H   H4        1.0  0.3602868459482594  0.490218262851073  0.3462120029412005  1.0000
  H   H5        1.0  0.24548278815328223  0.9566265567117328  0.9774103584333105  1.0000
  H   H6        1.0  0.254501122678036  0.4566387402458929  0.5225936457444221  1.0000
  H   H7        1.0  0.7544756629494672  0.04337064706425759  0.0225880529729849  1.0000
  H   H8        1.0  0.7454987013733572  0.5433642546222756  0.4774107832710257  1.0000
  H   H9        1.0  0.3701876887606658  0.7839528815320732  0.9443866094394764  1.0000
  H   H10       1.0  0.129835085450793  0.2839564959792469  0.5556115559800503  1.0000
  H   H11       1.0  0.6298069784601238  0.21605140029222272  0.05561382858365959  1.0000
  H   H12       1.0  0.8701828584371257  0.7160445685404182  0.4443912953865095  1.0000
  H   H13       1.0  0.5194979867578339  0.011949707117508996  0.7043227682782102  1.0000
  H   H14       1.0  0.9805023050908662  0.5119544911550875  0.795675351509999  1.0000
  H   H15       1.0  0.48049669518302807  0.9880474966939018  0.2956744310508626  1.0000
  H   H16       1.0  0.0195363459222619  0.48804528647593765  0.20432597442825076  1.0000
  H   H17       1.0  0.21884999419937398  0.9913487470700132  0.55812243021753  1.0000
  H   H18       1.0  0.2811422416030638  0.49135090205299287  0.9418712725205367  1.0000
  H   H19       1.0  0.7811395161379336  0.008649743663624998  0.44187401688891  1.0000
  H   H20       1.0  0.7188757140695616  0.5086456582821909  0.0581289878783906  1.0000
  H   H21       1.0  0.23606372271100895  0.8453081725031947  0.4860718469107113  1.0000
  H   H22       1.0  0.26395427557394413  0.34531282771897037  0.013925517529116898  1.0000
  H   H23       1.0  0.7639283837739514  0.15469031825185908  0.5139227091613918  1.0000
  H   H24       1.0  0.7360455632407935  0.6546888802655033  0.9860756727304008  1.0000
  H   H25       1.0  0.5449350005353965  0.7244208824867329  0.5701033837996263  1.0000
  H   H26       1.0  0.9550891232703761  0.2244202891302365  0.9298996824812775  1.0000
  H   H27       1.0  0.4550415792868706  0.27557696479627936  0.42989150666846127  1.0000
  H   H28       1.0  0.0449210469427186  0.77558013190027  0.0701056032254925  1.0000
  C   C1        1.0  0.8922818880517553  0.8820429775030618  0.7960256989861207  1.0000
  C   C2        1.0  0.6077135526654017  0.38204345920370025  0.7039714293300605  1.0000
  C   C3        1.0  0.10768434264460319  0.11795615669323918  0.20396898255833654  1.0000
  C   C4        1.0  0.3922992314277067  0.6179576053477048  0.29602807881186516  1.0000
  C   C5        1.0  0.15793195267560378  0.9165936409962114  0.9227630974644896  1.0000
  C   C6        1.0  0.342077229699008  0.41659192153768737  0.5772429322865449  1.0000
  C   C7        1.0  0.8420549556673649  0.08341321466682669  0.0772365360947944  1.0000
  C   C8        1.0  0.6579407260457372  0.5834142906794852  0.4227573280092614  1.0000
  C   C9        1.0  0.2165150371578548  0.8306502746215968  0.9063921470222807  1.0000
  C   C10       1.0  0.28352911254828683  0.33066422554286123  0.5936099725859875  1.0000
  C   C11       1.0  0.783497758715157  0.1693456422865367  0.0936047701588905  1.0000
  C   C12       1.0  0.7164914334012735  0.6693374824705741  0.4063896922314783  1.0000
  C   C13       1.0  0.6974552767275028  0.8798263708645989  0.7124422880040838  1.0000
  C   C14       1.0  0.8025478661193975  0.3798259912018833  0.7875608741520992  1.0000
  C   C15       1.0  0.3025264599494051  0.12017340675628667  0.2875565934219466  1.0000
  C   C16       1.0  0.19746232180682455  0.6201724994929164  0.2124405250516688  1.0000
  C   C17       1.0  0.5239775615784268  0.9495705382828205  0.6722533429889168  1.0000
  C   C18       1.0  0.9760214607694451  0.44957275258794727  0.8277456334229001  1.0000
  C   C19       1.0  0.4760041750936849  0.05042859587926069  0.32774553844399174  1.0000
  C   C20       1.0  0.0240042449508806  0.5504257380997472  0.1722573746535616  1.0000
  C   C21       1.0  0.35553969856767514  0.9373224106432686  0.5900928255150006  1.0000
  C   C22       1.0  0.14445427285394893  0.437325063050153  0.9099118001523081  1.0000
  C   C23       1.0  0.6444549626910502  0.06267479312068498  0.4099089080916301  1.0000
  C   C24       1.0  0.8555584905281748  0.5626721407010039  0.09009224230842248  1.0000
  C   C25       1.0  0.36289895826292456  0.8565719650864096  0.550743118640078  1.0000
  C   C26       1.0  0.13710159189766102  0.35656863708435793  0.9492582071626713  1.0000
  C   C27       1.0  0.6370853745856808  0.1434310298498858  0.44925387171723935  1.0000
  C   C28       1.0  0.8629085812604131  0.6434304970353323  0.0507464308039047  1.0000
  C   C29       1.0  0.5359318848890028  0.7895064635050986  0.5959837757173503  1.0000
  C   C30       1.0  0.9641009527100124  0.2895070665228089  0.9040225908062922  1.0000
  C   C31       1.0  0.46407314324240906  0.2104920272214414  0.4040142802617837  1.0000
  C   C32       1.0  0.0359092234026477  0.7104920676036668  0.09598139940634812  1.0000
  N   N1        1.0  0.049845045127213404  0.810417433738138  0.8274922186809874  1.0000
  N   N2        1.0  0.4501677754243261  0.3104209341814155  0.6725051723533113  1.0000
  N   N3        1.0  0.9501367092724352  0.18958170046462897  0.1725027762282991  1.0000
  N   N4        1.0  0.5498579391742027  0.689579486903021  0.3274958924407159  1.0000
  N   N5        1.0  0.9569976088894734  0.9477254147448163  0.8524674143902615  1.0000
  N   N6        1.0  0.5429884553754079  0.4477276399230376  0.6475300448015631  1.0000
  N   N7        1.0  0.042971209095576106  0.052274362911361984  0.1475273193747952  1.0000
  N   N8        1.0  0.45702690419283  0.552274711519921  0.3524721065698344  1.0000
  N   N9        1.0  0.7010191756299946  0.8008364095859546  0.6746801811689238  1.0000
  N   N10       1.0  0.7989827779408784  0.3008339481798643  0.8253266120751023  1.0000
  N   N11       1.0  0.2989729101824423  0.19916336803923676  0.3253189091669881  1.0000
  N   N12       1.0  0.20101963039653734  0.6991632555534224  0.1746785169836258  1.0000
  Cl  Cl1       1.0  0.9932988860254002  0.6155916247586077  0.6378589039098586  1.0000
  Cl  Cl2       1.0  0.5067081025331177  0.11558931285237856  0.8621429356444921  1.0000
  Cl  Cl3       1.0  0.0067035518963863  0.384410726712872  0.362139747554501  1.0000
  Cl  Cl4       1.0  0.4932994981188372  0.8844104647589359  0.1378584113180565  1.0000
  Cl  Cl5       1.0  0.45280813469855746  0.641568972021993  0.825403906165981  1.0000
  Cl  Cl6       1.0  0.047194386029879416  0.14157385328805816  0.6746001747799895  1.0000
  Cl  Cl7       1.0  0.5471787676727259  0.358429518663101  0.17459702299055377  1.0000
  Cl  Cl8       1.0  0.9528235667506524  0.8584310720047339  0.3254007332835087  1.0000
