data_image0
_chemical_formula_structural       Hg2H14C28O4F10
_chemical_formula_sum              "Hg2 H14 C28 O4 F10"
_cell_length_a       6.322796008312944
_cell_length_b       7.3645963490907285
_cell_length_c       14.50486015444783
_cell_angle_alpha    84.62181982391989
_cell_angle_beta     81.72376511975517
_cell_angle_gamma    86.8681947772741

_space_group_name_H-M_alt    "P 1"
_space_group_IT_number       1

loop_
  _space_group_symop_operation_xyz
  'x, y, z'

loop_
  _atom_site_type_symbol
  _atom_site_label
  _atom_site_symmetry_multiplicity
  _atom_site_fract_x
  _atom_site_fract_y
  _atom_site_fract_z
  _atom_site_occupancy
  Hg  Hg1       1.0  0.12874179162429294  0.7904142665089823  0.4224147618275395  1.0000
  Hg  Hg2       1.0  0.8712938380918587  0.20958074245583452  0.5775963283540688  1.0000
  H   H1        1.0  0.6082293079365613  0.6437575195625624  0.3867491739815065  1.0000
  H   H2        1.0  0.3918216658638585  0.3562729682838395  0.6132439844215154  1.0000
  H   H3        1.0  0.8822812611378056  0.6318686552735641  0.25023982007205336  1.0000
  H   H4        1.0  0.11773370275122369  0.3681477146179546  0.7497404924231075  1.0000
  H   H5        1.0  0.4455841386514408  0.9038700625953596  0.07482825222488997  1.0000
  H   H6        1.0  0.5543654726939309  0.09611862096451769  0.9251741752331238  1.0000
  H   H7        1.0  0.1666417388635963  0.9164452812586177  0.21139365355156053  1.0000
  H   H8        1.0  0.8333401406970182  0.083539700507508  0.7886193075772493  1.0000
  H   H9        1.0  0.015878925122194684  0.7552804667095857  0.08700219695322889  1.0000
  H   H10       1.0  0.9840888732039657  0.2447750303117786  0.9129708897244411  1.0000
  H   H11       1.0  0.8372639714318524  0.8770404318823779  0.01663909474029881  1.0000
  H   H12       1.0  0.16264811199420143  0.1229586391571758  0.9833431469991962  1.0000
  H   H13       1.0  0.8404935943076239  0.6360709833054302  0.0319004812290871  1.0000
  H   H14       1.0  0.1594920450772435  0.36392882585727204  0.9680894322772813  1.0000
  C   C1        1.0  0.3662725174947212  0.7816507130825415  0.30937835977360345  1.0000
  C   C2        1.0  0.6337434909319625  0.21835089050291864  0.690626758533085  1.0000
  C   C3        1.0  0.5690614161892924  0.702012050378407  0.3190370326058697  1.0000
  C   C4        1.0  0.4309665755378163  0.29800184470856556  0.680957049841943  1.0000
  C   C5        1.0  0.7263030247793053  0.6957516993967802  0.24093035954569325  1.0000
  C   C6        1.0  0.2737027976127564  0.3042578228156286  0.7590563969084198  1.0000
  C   C7        1.0  0.6857409059777454  0.7680442319658597  0.15191510000060043  1.0000
  C   C8        1.0  0.3142366596305379  0.2319568687098936  0.8480745751410834  1.0000
  C   C9        1.0  0.48160354792675264  0.8465302260865288  0.14335473209391839  1.0000
  C   C10       1.0  0.5183666661139057  0.15346135991151044  0.8566462327350519  1.0000
  C   C11       1.0  0.32301121604657373  0.8535365485138159  0.22077115435907757  1.0000
  C   C12       1.0  0.6769736621003518  0.14645113297027731  0.779235963925842  1.0000
  C   C13       1.0  0.8539902103165246  0.7592956513506409  0.06776484977999792  1.0000
  C   C14       1.0  0.14597060353669628  0.2407175374176873  0.9322190833699364  1.0000
  C   C15       1.0  0.8593680658987424  0.6931206009833417  0.6003628192097705  1.0000
  C   C16       1.0  0.1406632773428313  0.306866199691143  0.3996510258647844  1.0000
  C   C17       1.0  0.6656541959050131  0.7148758093623612  0.6730940522787064  1.0000
  C   C18       1.0  0.3343637433876125  0.2851203547488979  0.3269119055077282  1.0000
  C   C19       1.0  0.4715719593833896  0.7970990440756437  0.6509603426853872  1.0000
  C   C20       1.0  0.528458878948598  0.20292181583452165  0.34904423868378837  1.0000
  C   C21       1.0  0.29705987392576827  0.8261463985113265  0.7188850344510626  1.0000
  C   C22       1.0  0.70295722202912  0.1738633797302498  0.2811168456627725  1.0000
  C   C23       1.0  0.31035129642738457  0.770645066018453  0.8121779897907614  1.0000
  C   C24       1.0  0.6896446501208686  0.2293440165777625  0.18782283518881118  1.0000
  C   C25       1.0  0.49870372990852013  0.6854898160584567  0.8366750428233158  1.0000
  C   C26       1.0  0.5012736489998417  0.3144621975572051  0.16332469568285288  1.0000
  C   C27       1.0  0.6724028807783569  0.6587845420474568  0.7678772385362576  1.0000
  C   C28       1.0  0.3275847279950241  0.3411840078114425  0.23212721981327175  1.0000
  O   O1        1.0  0.8670047030371819  0.8199814673809274  0.5306987365386673  1.0000
  O   O2        1.0  0.1330414214778699  0.17999861374728712  0.46931312278630327  1.0000
  O   O3        1.0  0.9957913387406804  0.5673084186475564  0.6091009648634438  1.0000
  O   O4        1.0  0.0042293676723445875  0.4326701915816217  0.3909229344181638  1.0000
  F   F1        1.0  0.44428740702688435  0.8504980880461516  0.5618291269945812  1.0000
  F   F2        1.0  0.5557757859923811  0.14959689129133846  0.438180002089254  1.0000
  F   F3        1.0  0.11492739101149141  0.9103218843543317  0.6952034845179468  1.0000
  F   F4        1.0  0.8851057950060193  0.08971260913479281  0.30479612482622537  1.0000
  F   F5        1.0  0.1436451204691309  0.8008737092066627  0.8784137455850567  1.0000
  F   F6        1.0  0.8563635802203393  0.19914283457125498  0.12158902039968916  1.0000
  F   F7        1.0  0.5131311129140101  0.635109745956406  0.9273924569102829  1.0000
  F   F8        1.0  0.4868280158817199  0.36479971756263313  0.07260438206073867  1.0000
  F   F9        1.0  0.8522813023308943  0.5824457592337994  0.797467620793192  1.0000
  F   F10       1.0  0.14770256667925707  0.4175323755419598  0.2025421102125975  1.0000
