data_image0
_chemical_formula_structural       Cu4H52C60N20O4
_chemical_formula_sum              "Cu4 H52 C60 N20 O4"
_cell_length_a       7.868883838814652
_cell_length_b       12.635559469642976
_cell_length_c       14.542629985712857
_cell_angle_alpha    109.20105019296369
_cell_angle_beta     105.27925856308464
_cell_angle_gamma    90.14922197636494

_space_group_name_H-M_alt    "P 1"
_space_group_IT_number       1

loop_
  _space_group_symop_operation_xyz
  'x, y, z'

loop_
  _atom_site_type_symbol
  _atom_site_label
  _atom_site_symmetry_multiplicity
  _atom_site_fract_x
  _atom_site_fract_y
  _atom_site_fract_z
  _atom_site_occupancy
  Cu  Cu1       1.0  0.5519726316257094  0.1704707509912851  0.8018340681226022  1.0000
  Cu  Cu2       1.0  0.7497664606085125  0.3297513801695544  0.1974696464041585  1.0000
  Cu  Cu3       1.0  0.4480405218854955  0.8295433470588305  0.19816953452974662  1.0000
  Cu  Cu4       1.0  0.250215921500974  0.6702509275010868  0.8025310560115385  1.0000
  H   H1        1.0  0.2780685343822357  0.0876571195176155  0.8846534631245576  1.0000
  H   H2        1.0  0.39434045270995455  0.41194954266158856  0.11649179309133476  1.0000
  H   H3        1.0  0.7219361759442648  0.9123359275099572  0.11535530695068266  1.0000
  H   H4        1.0  0.605680704521177  0.5880569759246297  0.8835011452995545  1.0000
  H   H5        1.0  0.3700324209986975  0.9672004453109365  0.9089781617631728  1.0000
  H   H6        1.0  0.4617324618055037  0.5327459515282839  0.0919961163414982  1.0000
  H   H7        1.0  0.6299987005084022  0.03279344382610819  0.091022199105474  1.0000
  H   H8        1.0  0.5382814936370581  0.4672563569881659  0.9080007907204575  1.0000
  H   H9        1.0  0.4277135903966214  0.8978360287481307  0.7445803229307657  1.0000
  H   H10       1.0  0.682000755784749  0.6022406129299327  0.2557259336978532  1.0000
  H   H11       1.0  0.5722950666669177  0.10217470010754683  0.2554168684295206  1.0000
  H   H12       1.0  0.31800633205835294  0.3977684318388198  0.7442719299912639  1.0000
  H   H13       1.0  0.2036639368411812  0.9268210013254715  0.7236770254789204  1.0000
  H   H14       1.0  0.479250787118481  0.5725525200619543  0.2775965540890226  1.0000
  H   H15       1.0  0.7963493935021261  0.07318551859161458  0.2763292490208471  1.0000
  H   H16       1.0  0.5207478343734098  0.4274615761867082  0.7223974331025503  1.0000
  H   H17       1.0  0.2238284351796977  0.9433503787493648  0.573717327320267  1.0000
  H   H18       1.0  0.649380168201418  0.5564924818611842  0.427184071752542  1.0000
  H   H19       1.0  0.7762046878905339  0.0566393004360819  0.4262848629687355  1.0000
  H   H20       1.0  0.35058566733527396  0.44349635193734116  0.5728138814418314  1.0000
  H   H21       1.0  0.6150311164411519  0.3065030950305854  0.5674526854903874  1.0000
  H   H22       1.0  0.04522289257454301  0.193355227598687  0.43008722504529817  1.0000
  H   H23       1.0  0.3849577238308725  0.6935067922774109  0.43255522119540757  1.0000
  H   H24       1.0  0.9547408597863837  0.8066369751752231  0.5699175860489943  1.0000
  H   H25       1.0  0.4721367191619806  0.23876129068830926  0.3821361002207269  1.0000
  H   H26       1.0  0.08912261281916051  0.2614382103907005  0.6159496683889003  1.0000
  H   H27       1.0  0.527874253280615  0.761238492344198  0.6178672278124466  1.0000
  H   H28       1.0  0.9108594997713555  0.7385708341797181  0.3840549849545596  1.0000
  H   H29       1.0  0.256971533748299  0.1135813545627968  0.2342585419650263  1.0000
  H   H30       1.0  0.023671855517811518  0.38695352357959206  0.7651239623757462  1.0000
  H   H31       1.0  0.7430398451970889  0.8864125338313967  0.7657424705454828  1.0000
  H   H32       1.0  0.9763181319489151  0.6130555207738553  0.2348763012208295  1.0000
  H   H33       1.0  0.031747678187997584  0.9470326366147931  0.1500905102782113  1.0000
  H   H34       1.0  0.8842902147294325  0.5537964076202542  0.8511089545537017  1.0000
  H   H35       1.0  0.9682736067280331  0.052957042296313296  0.8499134473592845  1.0000
  H   H36       1.0  0.11568369733743114  0.4462109514446126  0.1488871831827652  1.0000
  H   H37       1.0  0.9503110692998507  0.8448194166755981  0.25629346438773126  1.0000
  H   H38       1.0  0.6969954292877959  0.6561405049218507  0.7461792834253416  1.0000
  H   H39       1.0  0.049709812047503014  0.155167735622463  0.7437069633978268  1.0000
  H   H40       1.0  0.3029536208472622  0.3438508530179832  0.25380808316784004  1.0000
  H   H41       1.0  0.09060298513858808  0.9039316122719894  0.4374252733985529  1.0000
  H   H42       1.0  0.6547850102472382  0.596754840671224  0.5645800327508255  1.0000
  H   H43       1.0  0.9094006197575836  0.09607153908083892  0.5625814160033329  1.0000
  H   H44       1.0  0.3451785349930034  0.40323651821321954  0.43541006748621663  1.0000
  H   H45       1.0  0.6508332288166728  0.0427639098367223  0.9083682978658416  1.0000
  H   H46       1.0  0.7422663907172834  0.45764893809245416  0.09068406189187073  1.0000
  H   H47       1.0  0.3491748736859962  0.95725187113873  0.09162750906692445  1.0000
  H   H48       1.0  0.2577496161928964  0.5423668433515016  0.9093128607475335  1.0000
  H   H49       1.0  0.5696612774970762  0.14904477867528237  0.9792560827893624  1.0000
  H   H50       1.0  0.5913860047304453  0.351091559107509  0.020630901115183092  1.0000
  H   H51       1.0  0.43034294218140456  0.8509625823568924  0.02074570818593456  1.0000
  H   H52       1.0  0.4086344543304465  0.6489275905026942  0.9793641746359896  1.0000
  C   C1        1.0  0.37612358369676724  0.027637891127255898  0.8700254789318791  1.0000
  C   C2        1.0  0.5065001410119834  0.47224947060652056  0.1306741573953474  1.0000
  C   C3        1.0  0.6238840948640532  0.9723576810415225  0.12997411744537862  1.0000
  C   C4        1.0  0.4935055998985618  0.5277595733986757  0.8693180148891316  1.0000
  C   C5        1.0  0.3404798215474329  0.9660957972969795  0.7573002175408234  1.0000
  C   C6        1.0  0.5825465158394966  0.5336876393263309  0.24333580138194583  1.0000
  C   C7        1.0  0.659528350334803  0.0339115639694469  0.2427021312877926  1.0000
  C   C8        1.0  0.4174545211011562  0.4663163525037959  0.7566590760707044  1.0000
  C   C9        1.0  0.3126097635480605  0.021391469795567296  0.6129562087676063  1.0000
  C   C10       1.0  0.6989954864809889  0.4785660729655987  0.3874276808931967  1.0000
  C   C11       1.0  0.6873920018514214  0.9786083130330923  0.387048570334585  1.0000
  C   C12       1.0  0.3009904184236873  0.5214337077264658  0.612565232252038  1.0000
  C   C13       1.0  0.347303384532296  0.08330154579071798  0.5526758402088205  1.0000
  C   C14       1.0  0.7941156424258653  0.4168617690081504  0.44727828493128646  1.0000
  C   C15       1.0  0.6526654392103525  0.9167066562514989  0.4473294473086185  1.0000
  C   C16       1.0  0.205878703747409  0.5831413809412493  0.552720220995944  1.0000
  C   C17       1.0  0.4731159593511265  0.1804489576212447  0.5970242194389356  1.0000
  C   C18       1.0  0.8748944997108837  0.3196268716990147  0.4020264989530773  1.0000
  C   C19       1.0  0.5268760473785082  0.8195474558719908  0.4029747809301583  1.0000
  C   C20       1.0  0.12507580274217392  0.6803653306084809  0.5979723600798292  1.0000
  C   C21       1.0  0.5150075340659656  0.23466236670397922  0.5318563472606712  1.0000
  C   C22       1.0  0.981633966082747  0.2653480035310523  0.46649598543300647  1.0000
  C   C23       1.0  0.48498539832777254  0.7653399418483886  0.4681479073089534  1.0000
  C   C24       1.0  0.018346343167927208  0.7346492520350053  0.5335071058713794  1.0000
  C   C25       1.0  0.43609973551473064  0.1963633118958654  0.429773434957113  1.0000
  C   C26       1.0  0.005598399990191209  0.3038371619554283  0.5688557198612187  1.0000
  C   C27       1.0  0.5638983154918195  0.8036465757016628  0.57023370884135  1.0000
  C   C28       1.0  0.9943964867355891  0.6961693568684737  0.4311479513230623  1.0000
  C   C29       1.0  0.30661441898597996  0.10153951303373528  0.3830219564351297  1.0000
  C   C30       1.0  0.9237903841010678  0.39882619804193814  0.6165992969086318  1.0000
  C   C31       1.0  0.6933734816135699  0.8984729002094197  0.6169844768796651  1.0000
  C   C32       1.0  0.07621907271698801  0.6011895838684467  0.3834035777921585  1.0000
  C   C33       1.0  0.2219581528193899  0.0656497900594886  0.2778611051634812  1.0000
  C   C34       1.0  0.9450905767389911  0.43489941143590716  0.7220866757033804  1.0000
  C   C35       1.0  0.7780446670879188  0.934348308581363  0.7221426536246723  1.0000
  C   C36       1.0  0.05490654197790691  0.5651130022681555  0.2779203710874611  1.0000
  C   C37       1.0  0.09630126309489383  0.9737393416747863  0.23139660999049733  1.0000
  C   C38       1.0  0.8670293571259934  0.527045334342027  0.7695711812469311  1.0000
  C   C39       1.0  0.9037081652098709  0.0262503365335576  0.7686056740870485  1.0000
  C   C40       1.0  0.13295484233169935  0.4729603413386839  0.23042730237830966  1.0000
  C   C41       1.0  0.05155056660923663  0.9162226143673139  0.291181508801415  1.0000
  C   C42       1.0  0.7626102003373489  0.5845736046685345  0.7104667866090182  1.0000
  C   C43       1.0  0.9484607048836297  0.0837704324508906  0.7088233737575108  1.0000
  C   C44       1.0  0.23736291197499784  0.41542870134161786  0.2895236677869448  1.0000
  C   C45       1.0  0.1308881770065612  0.950650092234909  0.39457198958292133  1.0000
  C   C46       1.0  0.7377843575954162  0.5499563774103178  0.6067856452421694  1.0000
  C   C47       1.0  0.8691010623854325  0.049353900263412194  0.6054322252168305  1.0000
  C   C48       1.0  0.2622015259180657  0.45005182410466926  0.39320967236920973  1.0000
  C   C49       1.0  0.2615200009637704  0.04382509588759119  0.4444711139114403  1.0000
  C   C50       1.0  0.8174319748356141  0.45656721977518805  0.5558297469953217  1.0000
  C   C51       1.0  0.7384635586290074  0.9561847908510187  0.555533984424855  1.0000
  C   C52       1.0  0.1825702831280012  0.5434359308140768  0.4441712510019329  1.0000
  C   C53       1.0  0.9053735927605759  0.31538714123375666  0.9135150014072977  1.0000
  C   C54       1.0  0.9916384619206156  0.1841835864432539  0.08518303402222926  1.0000
  C   C55       1.0  0.0946745467529837  0.6845974860053515  0.08648511331786315  1.0000
  C   C56       1.0  0.008367886248599654  0.8157943036251754  0.914825072063728  1.0000
  C   C57       1.0  0.19945469934670976  0.32418081714305896  0.9143750451342925  1.0000
  C   C58       1.0  0.28518296336014265  0.17510624969015956  0.0851571838398186  1.0000
  C   C59       1.0  0.8005658497276614  0.6758130705981528  0.08561763449028353  1.0000
  C   C60       1.0  0.7148070169844875  0.8248682701383248  0.9148400846673612  1.0000
  N   N1        1.0  0.550330692154809  0.09398830409671179  0.9067447318660484  1.0000
  N   N2        1.0  0.6439108894731761  0.4062395023861214  0.09301294216631824  1.0000
  N   N3        1.0  0.4496636724755377  0.9060148462811027  0.09325721496963973  1.0000
  N   N4        1.0  0.3561048619264044  0.5937745949633281  0.9069841505713326  1.0000
  N   N5        1.0  0.3794619690418843  0.046091131994686  0.7103422100150922  1.0000
  N   N6        1.0  0.6682865730460321  0.4537618006802686  0.2898833095681113  1.0000
  N   N7        1.0  0.6205336738987344  0.9539288601927539  0.2896654198856865  1.0000
  N   N8        1.0  0.33171839101576944  0.546250612121355  0.7101138420223164  1.0000
  N   N9        1.0  0.06572638267541461  0.3624472626820107  0.9474283729969529  1.0000
  N   N10       1.0  0.11899313110691884  0.13663529447250505  0.05205136468738661  1.0000
  N   N11       1.0  0.9343358907555058  0.6375171581516667  0.05258996390531223  1.0000
  N   N12       1.0  0.8809904120648255  0.8633223858045511  0.947960122401021  1.0000
  N   N13       1.0  0.7550494676887711  0.28126985556205136  0.89070959437894  1.0000
  N   N14       1.0  0.8636576018503205  0.21888788710115384  0.10741682262137434  1.0000
  N   N15       1.0  0.24499304410689868  0.7187215062080768  0.10927721110897443  1.0000
  N   N16       1.0  0.13634047423883547  0.7811135797591363  0.8925886048926374  1.0000
  N   N17       1.0  0.3302952063138776  0.2991305444564318  0.8903449814008297  1.0000
  N   N18       1.0  0.4395832454728821  0.20040760375065494  0.1094748605970111  1.0000
  N   N19       1.0  0.6697445023888521  0.7008776558901103  0.10962286293965917  1.0000
  N   N20       1.0  0.5603888735710925  0.799579545229868  0.8905152460891514  1.0000
  O   O1        1.0  0.5567632012718562  0.22494577687667322  0.6928170267149767  1.0000
  O   O2        1.0  0.8622962503434624  0.2750496136805224  0.3059090679387992  1.0000
  O   O3        1.0  0.4432626498729492  0.7750396906110029  0.3071760567929546  1.0000
  O   O4        1.0  0.13764263639425425  0.7249265878826704  0.6940862838305151  1.0000
