data_image0
_chemical_formula_structural       Hg4H32C40N32
_chemical_formula_sum              "Hg4 H32 C40 N32"
_cell_length_a       6.16624877405337
_cell_length_b       10.371843434094457
_cell_length_c       17.890920436275536
_cell_angle_alpha    90.00033617401344
_cell_angle_beta     89.9994285609922
_cell_angle_gamma    96.1052171567068

_space_group_name_H-M_alt    "P 1"
_space_group_IT_number       1

loop_
  _space_group_symop_operation_xyz
  'x, y, z'

loop_
  _atom_site_type_symbol
  _atom_site_label
  _atom_site_symmetry_multiplicity
  _atom_site_fract_x
  _atom_site_fract_y
  _atom_site_fract_z
  _atom_site_occupancy
  Hg  Hg1       1.0  0.6315245664769905  0.014372585714177395  0.8670694763054244  1.0000
  Hg  Hg2       1.0  0.36848230775876806  0.4856290307487112  0.3670651472217443  1.0000
  Hg  Hg3       1.0  0.3684800691998902  0.9856288061393099  0.1329327052983444  1.0000
  Hg  Hg4       1.0  0.6315301109994921  0.5143704470802176  0.632934239651739  1.0000
  H   H1        1.0  0.5577413288842054  0.09658301669607279  0.6112634509577362  1.0000
  H   H2        1.0  0.44225600375182245  0.40341444686249167  0.1112585905016061  1.0000
  H   H3        1.0  0.4422332472043067  0.9034037447511732  0.3887381717302533  1.0000
  H   H4        1.0  0.557755452270449  0.5965889045076763  0.8887530931202506  1.0000
  H   H5        1.0  0.572949883976662  0.9024632557599542  0.5318462896612814  1.0000
  H   H6        1.0  0.42705690778215216  0.5975370617095876  0.031843242851977  1.0000
  H   H7        1.0  0.42702760729234523  0.09752157652705762  0.4681570098466494  1.0000
  H   H8        1.0  0.5729632939578623  0.40246050212551415  0.9681606155467791  1.0000
  H   H9        1.0  0.21961568151481  0.863515528134485  0.6125592800438613  1.0000
  H   H10       1.0  0.7804041604488818  0.6364893958860163  0.11256353423203791  1.0000
  H   H11       1.0  0.7804022928523935  0.1364975346216681  0.38742389750370176  1.0000
  H   H12       1.0  0.2196082583323715  0.36351008193582857  0.8874341758132402  1.0000
  H   H13       1.0  0.20006667164260253  0.0507323065267826  0.6954351747853238  1.0000
  H   H14       1.0  0.7999308005069353  0.4492707220388893  0.1954342700923135  1.0000
  H   H15       1.0  0.7999332613211152  0.9492700397718608  0.3045586226871179  1.0000
  H   H16       1.0  0.2000611843409672  0.5507325686562083  0.8045639989372689  1.0000
  H   H17       1.0  0.9936461930761739  0.2043104869293941  0.7527720926846089  1.0000
  H   H18       1.0  0.006350669385128111  0.2956891529925372  0.2527711615845264  1.0000
  H   H19       1.0  0.0063441417108550235  0.7956831073972382  0.24722226373228298  1.0000
  H   H20       1.0  0.9936560838779941  0.704315152836962  0.7472354915624067  1.0000
  H   H21       1.0  0.9664330968947894  0.2963220065628036  0.6723292564607348  1.0000
  H   H22       1.0  0.03357133434353442  0.20367987717228436  0.17232456730302917  1.0000
  H   H23       1.0  0.03354750211345703  0.7036715574853787  0.32767236622839857  1.0000
  H   H24       1.0  0.9664268108422719  0.7963214944869109  0.8276804090255399  1.0000
  H   H25       1.0  0.7531879608618013  0.7135890818177087  0.4972364856070897  1.0000
  H   H26       1.0  0.24682133272293066  0.7864190950670034  0.9972413794422721  1.0000
  H   H27       1.0  0.24683353361410101  0.2864065477536357  0.5027567528742126  1.0000
  H   H28       1.0  0.7531730997341056  0.21358904887449628  0.002761361133174501  1.0000
  H   H29       1.0  0.9935022484296852  0.7956628344396748  0.45923481249314346  1.0000
  H   H30       1.0  0.006513587657927592  0.7043392234758413  0.9592352247169201  1.0000
  H   H31       1.0  0.0065120954940027925  0.20432889640132854  0.5407623385930052  1.0000
  H   H32       1.0  0.9934796897342794  0.2956621330145807  0.0407663979635799  1.0000
  C   C1        1.0  0.880990376757133  0.0904374395061112  0.657733942868802  1.0000
  C   C2        1.0  0.11900196874347561  0.40956718933086467  0.1577358038982979  1.0000
  C   C3        1.0  0.11899509021331062  0.9095561396588463  0.3422587367282262  1.0000
  C   C4        1.0  0.880987265766784  0.5904390002116598  0.8422730850528738  1.0000
  C   C5        1.0  0.7042597749587002  0.04599650218567319  0.6118505624722844  1.0000
  C   C6        1.0  0.2957490648418357  0.454001971345761  0.11184861236887403  1.0000
  C   C7        1.0  0.2957273420342972  0.9540067733595661  0.3881488244511075  1.0000
  C   C8        1.0  0.7042524905741417  0.5460003800540464  0.8881569228982187  1.0000
  C   C9        1.0  0.7131693704016017  0.9371128307837251  0.5663502011368566  1.0000
  C   C10       1.0  0.28683064480124193  0.5628916367898781  0.06634751934248581  1.0000
  C   C11       1.0  0.2868240170607237  0.06287011272219441  0.4336469499704734  1.0000
  C   C12       1.0  0.7131691229977477  0.43710973992084234  0.9336574569832978  1.0000
  C   C13       1.0  0.9005868588192953  0.871926863824967  0.564686355295251  1.0000
  C   C14       1.0  0.09943250828214191  0.6280766806847283  0.0646890095324864  1.0000
  C   C15       1.0  0.09940982890270791  0.12807547237534317  0.4353085600682221  1.0000
  C   C16       1.0  0.9005680570881154  0.3719198528968305  0.9353148488982796  1.0000
  C   C17       1.0  0.07518887590705245  0.9152240101751371  0.6112701347539586  1.0000
  C   C18       1.0  0.9248214307252597  0.5847818422745235  0.1112753945888585  1.0000
  C   C19       1.0  0.9248050342365488  0.0847715334918604  0.3887163964617883  1.0000
  C   C20       1.0  0.07518515757239902  0.4152214939056051  0.8887279049003072  1.0000
  C   C21       1.0  0.0645408144725579  0.021820962044309097  0.6578542851782532  1.0000
  C   C22       1.0  0.9354758669153045  0.47818374358651977  0.15785692480866237  1.0000
  C   C23       1.0  0.9354626937404408  0.9781833336277758  0.34213951229133244  1.0000
  C   C24       1.0  0.0645260185312324  0.5218205470813045  0.8421480515184072  1.0000
  C   C25       1.0  0.8875619492485783  0.21309945014036202  0.7041157658565496  1.0000
  C   C26       1.0  0.11243770503462258  0.2868988137567782  0.20411499930083474  1.0000
  C   C27       1.0  0.11242335262611651  0.7868931594153991  0.2958830621092119  1.0000
  C   C28       1.0  0.8875635203507886  0.7131015983750046  0.7958910949062884  1.0000
  C   C29       1.0  0.6728913906551314  0.24465066483113418  0.7312064656880752  1.0000
  C   C30       1.0  0.3271110960482276  0.25534977750992743  0.2312031777135104  1.0000
  C   C31       1.0  0.3270960288594439  0.75534485868409  0.2687929212217028  1.0000
  C   C32       1.0  0.6728951622725035  0.7446516193856424  0.7687967681165446  1.0000
  C   C33       1.0  0.9171570863517219  0.7590571583692521  0.5116469421526304  1.0000
  C   C34       1.0  0.0828551270559714  0.7409430034735179  0.011650034664199902  1.0000
  C   C35       1.0  0.08285742262939523  0.24093554209275683  0.48834685527846483  1.0000
  C   C36       1.0  0.9171468959160265  0.2590525655243781  0.988353823762431  1.0000
  C   C37       1.0  0.047609285487041596  0.6586879617728554  0.5426902699698459  1.0000
  C   C38       1.0  0.9524050194806505  0.8413202246753998  0.04268568171869452  1.0000
  C   C39       1.0  0.9524122362985992  0.3413173591579621  0.4573169420961563  1.0000
  C   C40       1.0  0.04759491339110159  0.15868212165160853  0.9573148230665682  1.0000
  N   N1        1.0  0.5560197907706979  0.18097822140426698  0.7854335063504936  1.0000
  N   N2        1.0  0.4439748834843229  0.31902362892277136  0.2854322674790312  1.0000
  N   N3        1.0  0.4439726615949056  0.8190182869007432  0.21456588055229286  1.0000
  N   N4        1.0  0.5560282946138102  0.6809787275072948  0.7145682373006681  1.0000
  N   N5        1.0  0.3713216773807133  0.23907290079794305  0.7942171480979638  1.0000
  N   N6        1.0  0.6286716009461912  0.26092223635441053  0.2942150779979187  1.0000
  N   N7        1.0  0.6286711049848038  0.7609255467845414  0.20578391563574172  1.0000
  N   N8        1.0  0.37133108211759247  0.7390772111700699  0.705785426777723  1.0000
  N   N9        1.0  0.37339686577323056  0.335267375314551  0.7473851720787011  1.0000
  N   N10       1.0  0.6265952766081285  0.16473220388730428  0.24738110732508287  1.0000
  N   N11       1.0  0.626601609496781  0.6647359355961129  0.2526153327106897  1.0000
  N   N12       1.0  0.3734027036505196  0.8352681981106965  0.7526177206320455  1.0000
  N   N13       1.0  0.5597306754165672  0.34041476701619905  0.7067961158941928  1.0000
  N   N14       1.0  0.4402711880711366  0.15958740312481717  0.2067921153808783  1.0000
  N   N15       1.0  0.4402682673864717  0.6595817614996519  0.2932043888829483  1.0000
  N   N16       1.0  0.5597289098273919  0.8404159128326539  0.7932072715202665  1.0000
  N   N17       1.0  0.9626077377934126  0.5605659029011035  0.5874240721611272  1.0000
  N   N18       1.0  0.037393487107785006  0.9394397175776702  0.08742519679194771  1.0000
  N   N19       1.0  0.03739689790646141  0.4394354889452998  0.4125764326144435  1.0000
  N   N20       1.0  0.9626062807448508  0.060561659116508786  0.9125758669346951  1.0000
  N   N21       1.0  0.1241872464548166  0.49160200530773307  0.6078877314326547  1.0000
  N   N22       1.0  0.8758142489401168  0.008400288012723  0.10788954804455393  1.0000
  N   N23       1.0  0.8758172242259477  0.5083984169058339  0.3921133322842891  1.0000
  N   N24       1.0  0.12418568391630913  0.9916020583190104  0.8921120746261764  1.0000
  N   N25       1.0  0.30172618417440594  0.5469710005257014  0.5755269711981583  1.0000
  N   N26       1.0  0.6982800697817454  0.9530335648720155  0.07552866445866613  1.0000
  N   N27       1.0  0.6982813667212824  0.4530284621557356  0.42447409251187207  1.0000
  N   N28       1.0  0.30171840544994677  0.0469697460504648  0.9244746350444045  1.0000
  N   N29       1.0  0.2619460122582923  0.6514500773994812  0.5345304432718053  1.0000
  N   N30       1.0  0.7380604033481859  0.8485580148060092  0.034529411053029  1.0000
  N   N31       1.0  0.7380651138943505  0.34855133465303817  0.4654700614926456  1.0000
  N   N32       1.0  0.2619348266724515  0.15144528600868765  0.9654727705701375  1.0000
