data_image0
_chemical_formula_structural       Zn2H26C50N2O20
_chemical_formula_sum              "Zn2 H26 C50 N2 O20"
_cell_length_a       16.595395285291666
_cell_length_b       17.49660992066961
_cell_length_c       17.844231632660144
_cell_angle_alpha    90.79724130426371
_cell_angle_beta     92.79614951282736
_cell_angle_gamma    100.73014443848652

_space_group_name_H-M_alt    "P 1"
_space_group_IT_number       1

loop_
  _space_group_symop_operation_xyz
  'x, y, z'

loop_
  _atom_site_type_symbol
  _atom_site_label
  _atom_site_symmetry_multiplicity
  _atom_site_fract_x
  _atom_site_fract_y
  _atom_site_fract_z
  _atom_site_occupancy
  Zn  Zn1       1.0  0.5873978766307812  0.5046148407849242  0.5055651664274947  1.0000
  Zn  Zn2       1.0  0.4135305298689644  0.4903048196488129  0.4989408342863371  1.0000
  H   H1        1.0  0.6871935023987773  0.4144273574186457  0.43751680356552203  1.0000
  H   H2        1.0  0.3145148698309583  0.5631039081030381  0.5869395610761643  1.0000
  H   H3        1.0  0.8343745740897645  0.4002556249312689  0.42905092718541477  1.0000
  H   H4        1.0  0.16730196646660284  0.5722091144742831  0.6049349300135488  1.0000
  H   H5        1.0  0.4120889699722098  0.2583114144521589  0.3768524368657182  1.0000
  H   H6        1.0  0.604410898088112  0.7385100416934236  0.4050296776058744  1.0000
  H   H7        1.0  0.6095021459454131  0.8787325916786555  0.38074220763121497  1.0000
  H   H8        1.0  0.415161288252861  0.11930184108423701  0.35187120721816  1.0000
  H   H9        1.0  0.6170097866404305  0.4632420406115473  0.1231153805479437  1.0000
  H   H10       1.0  0.39284235680587887  0.5666864048827377  0.8711362639239439  1.0000
  H   H11       1.0  0.6201714709857313  0.45840731759420805  0.2634137818513054  1.0000
  H   H12       1.0  0.3942013472159971  0.5553870490202755  0.7311853737998959  1.0000
  H   H13       1.0  0.4023683619860846  0.5690280525122516  0.12732285340022287  1.0000
  H   H14       1.0  0.6132327634627402  0.4697103965805167  0.8889058008330721  1.0000
  H   H15       1.0  0.37976468612533404  0.7743158184618295  0.6190018153673194  1.0000
  H   H16       1.0  0.5552966159726792  0.21502158816954162  0.6599070848787818  1.0000
  H   H17       1.0  0.963608245917172  0.582275625798232  0.5987392384947936  1.0000
  H   H18       1.0  0.0360328542994566  0.42641688276992795  0.4086946316250319  1.0000
  H   H19       1.0  0.6735641458810092  0.61145334311432  0.5995636882191206  1.0000
  H   H20       1.0  0.3304007379201082  0.4173677573050441  0.3821800432254321  1.0000
  H   H21       1.0  0.3421555467403081  0.012797972424074499  0.4044766656094509  1.0000
  H   H22       1.0  0.6668672683023189  0.9843110781626689  0.45567508724086286  1.0000
  H   H23       1.0  0.5491926782145313  0.12015625894743917  0.6275177209806628  1.0000
  H   H24       1.0  0.41077962454535566  0.8736537288227028  0.60476272010618  1.0000
  H   H25       1.0  0.3591314330472954  0.5908558024865515  0.23956601147528286  1.0000
  H   H26       1.0  0.6635974242695892  0.44064063089605543  0.783376665793149  1.0000
  C   C1        1.0  0.49938211814112776  0.5018816847188178  0.6472181275750727  1.0000
  C   C2        1.0  0.517226173226902  0.5006925006336401  0.3575040632305573  1.0000
  C   C3        1.0  0.571057639060406  0.4848238322017123  0.15475442555871413  1.0000
  C   C4        1.0  0.4408359357043635  0.5431624104264327  0.8443060013346864  1.0000
  C   C5        1.0  0.5723917559467607  0.4818565538734418  0.23238692148298407  1.0000
  C   C6        1.0  0.441542020400341  0.5364570417807499  0.7668304622360367  1.0000
  C   C7        1.0  0.5128780823289388  0.5078834035607186  0.2742402018822716  1.0000
  C   C8        1.0  0.5030855135233308  0.5069458542753863  0.7308601664893571  1.0000
  C   C9        1.0  0.4509406062232629  0.5396586998698751  0.2354245486234063  1.0000
  C   C10       1.0  0.5666049522593963  0.4839496222165136  0.7758330822827942  1.0000
  C   C11       1.0  0.4499028432137634  0.5440366262121897  0.1572972023723977  1.0000
  C   C12       1.0  0.5652992871990037  0.488999779663061  0.8539469055870939  1.0000
  C   C13       1.0  0.5090534510437692  0.5164543753439332  0.11600673676381487  1.0000
  C   C14       1.0  0.50306754025776  0.5182739789841334  0.8891162476157389  1.0000
  C   C15       1.0  0.5060309801803413  0.519868480240717  0.03683777359260889  1.0000
  C   C16       1.0  0.5037821883007467  0.5207392487359641  0.9683848007811023  1.0000
  C   C17       1.0  0.8533294576182866  0.544679909787348  0.5640818325223975  1.0000
  C   C18       1.0  0.14628130883622245  0.45531473098350256  0.4468185131581492  1.0000
  C   C19       1.0  0.7692042645134194  0.5488927320326341  0.5649678305159469  1.0000
  C   C20       1.0  0.23034274333394933  0.452880749759359  0.4411874441134742  1.0000
  C   C21       1.0  0.7362732579745525  0.45040750050773676  0.4719327066264185  1.0000
  C   C22       1.0  0.26496118932061563  0.5335015840946083  0.5486260473104636  1.0000
  C   C23       1.0  0.5132347527408143  0.648860491701697  0.4992959842671  1.0000
  C   C24       1.0  0.4735619307530356  0.34566190576430234  0.4974045326875327  1.0000
  C   C25       1.0  0.8177098299931129  0.44283333890046345  0.46763513349452523  1.0000
  C   C26       1.0  0.18347304621058663  0.5383458388520095  0.558183494522403  1.0000
  C   C27       1.0  0.878113251986228  0.4914147195432292  0.5129721022004574  1.0000
  C   C28       1.0  0.12240464916828842  0.49846329363781205  0.5074298319464461  1.0000
  C   C29       1.0  0.9628709022945898  0.4911530615655906  0.5101397447043466  1.0000
  C   C30       1.0  0.03779667627510009  0.4980761934105046  0.5127856431573576  1.0000
  C   C31       1.0  0.5223946688936607  0.7358620754268231  0.4946157398736659  1.0000
  C   C32       1.0  0.4670427233247381  0.25898259860250755  0.48864673621677207  1.0000
  C   C33       1.0  0.47745254653364105  0.7789570332397489  0.5392656792969319  1.0000
  C   C34       1.0  0.4979108151904938  0.21483529690664227  0.5454291271545912  1.0000
  C   C35       1.0  0.4793285331006274  0.8583164451596232  0.5240445694176046  1.0000
  C   C36       1.0  0.5021646365038066  0.13630010320058264  0.5297400315202623  1.0000
  C   C37       1.0  0.5268751360949723  0.8955830548049661  0.4662529302832112  1.0000
  C   C38       1.0  0.4725514057901563  0.10065274938558129  0.4592313688159421  1.0000
  C   C39       1.0  0.5730069047147524  0.8513665979913013  0.4257338068725928  1.0000
  C   C40       1.0  0.4381814629532882  0.14565691528177638  0.4063743677030942  1.0000
  C   C41       1.0  0.5704918230063711  0.7725440563409477  0.4390285693287552  1.0000
  C   C42       1.0  0.43630578863757563  0.22397971057172572  0.4200305994883138  1.0000
  C   C43       1.0  0.5345497784056332  0.9797722814116122  0.45689015772644836  1.0000
  C   C44       1.0  0.46876173387634873  0.017084547415080895  0.44665463405002004  1.0000
  C   C45       1.0  0.4305835599357478  0.7439973041635568  0.6019229878739552  1.0000
  C   C46       1.0  0.5211441936804917  0.24925708116789025  0.6206062549508858  1.0000
  C   C47       1.0  0.7371029420279384  0.6043932173862387  0.6153692690103512  1.0000
  C   C48       1.0  0.2625007123801026  0.4095783794952226  0.3798314433931509  1.0000
  C   C49       1.0  0.38650421254909856  0.973726337984814  0.4189859650804308  1.0000
  C   C50       1.0  0.6206512149637574  0.023304749471314796  0.45684821597576086  1.0000
  N   N1        1.0  0.7136100207408447  0.5029591668786821  0.5180776696297613  1.0000
  N   N2        1.0  0.2869205744682475  0.49143160600043245  0.49222329714346097  1.0000
  O   O1        1.0  0.5668394682808254  0.5039021575458236  0.6156521000098465  1.0000
  O   O2        1.0  0.4496981946768058  0.4894720098224992  0.39009318190668546  1.0000
  O   O3        1.0  0.4291291542891358  0.4970465438615361  0.6131243649243102  1.0000
  O   O4        1.0  0.5882101615845412  0.5051690834149837  0.3901324723782338  1.0000
  O   O5        1.0  0.5794584340200472  0.6220490570000905  0.5029194511616311  1.0000
  O   O6        1.0  0.40701798399765465  0.371441383409909  0.49829746714194567  1.0000
  O   O7        1.0  0.4404460794334142  0.610478269119838  0.4942768254531771  1.0000
  O   O8        1.0  0.5461474802215703  0.3846322844046242  0.49696642607000296  1.0000
  O   O9        1.0  0.4413785382243631  0.6865077416271033  0.6365987603164385  1.0000
  O   O10       1.0  0.5054388481050225  0.31064281935402244  0.6440297263167807  1.0000
  O   O11       1.0  0.9087811131854477  0.5916914913993238  0.6095021090775531  1.0000
  O   O12       1.0  0.0903708181309923  0.4173610469399591  0.3957095825081254  1.0000
  O   O13       1.0  0.7768486214216921  0.6389772329769697  0.6690517492463357  1.0000
  O   O14       1.0  0.21935881475869218  0.3702198589313284  0.3306591868993252  1.0000
  O   O15       1.0  0.36586675867845725  0.903117530694949  0.4104228740295284  1.0000
  O   O16       1.0  0.6429224212549014  0.0940947718294254  0.4564983038557955  1.0000
  O   O17       1.0  0.5309974184688286  0.09021916733097157  0.5812748188544958  1.0000
  O   O18       1.0  0.43963814299120674  0.9040255732966995  0.5655351409272953  1.0000
  O   O19       1.0  0.3937039870527456  0.5677375677116598  0.2749489238429419  1.0000
  O   O20       1.0  0.6281314435265272  0.4556358120576576  0.7432546121955426  1.0000
