data_image0
_chemical_formula_structural       H16Pb2C24S4N8
_chemical_formula_sum              "H16 Pb2 C24 S4 N8"
_cell_length_a       6.722162782425253
_cell_length_b       10.852315617916974
_cell_length_c       10.852395953855972
_cell_angle_alpha    68.31631425816126
_cell_angle_beta     70.00977461998345
_cell_angle_gamma    70.00929971409222

_space_group_name_H-M_alt    "P 1"
_space_group_IT_number       1

loop_
  _space_group_symop_operation_xyz
  'x, y, z'

loop_
  _atom_site_type_symbol
  _atom_site_label
  _atom_site_symmetry_multiplicity
  _atom_site_fract_x
  _atom_site_fract_y
  _atom_site_fract_z
  _atom_site_occupancy
  H   H1        1.0  0.7009611456528544  0.4258857928099573  0.935810917968432  1.0000
  H   H2        1.0  0.2009553173956035  0.9358289421509767  0.4258737074929043  1.0000
  H   H3        1.0  0.29903556348054383  0.5741126307909282  0.06418332637738207  1.0000
  H   H4        1.0  0.799040790358141  0.0641664600694369  0.5741217548526052  1.0000
  H   H5        1.0  0.6343552756769026  0.34782218145816307  0.19203938635784823  1.0000
  H   H6        1.0  0.13436401151863456  0.1920566375720156  0.3477943318974042  1.0000
  H   H7        1.0  0.3656290083930286  0.6521806384531104  0.8079545892780899  1.0000
  H   H8        1.0  0.8656211610979977  0.8079370880798038  0.6522083535980627  1.0000
  H   H9        1.0  0.654849209638428  0.09812291888059832  0.3127373012979148  1.0000
  H   H10       1.0  0.15485988275946025  0.3127470358220066  0.09809868659790061  1.0000
  H   H11       1.0  0.34514322283668225  0.901877690383266  0.6872615348122507  1.0000
  H   H12       1.0  0.8451351402651492  0.6872494795079332  0.901904869343859  1.0000
  H   H13       1.0  0.7216505205866994  0.9414910675730112  0.1783093274973881  1.0000
  H   H14       1.0  0.22165507610087323  0.17830919918979046  0.9414777930461682  1.0000
  H   H15       1.0  0.2783477206665238  0.058511394688437704  0.8216868465835602  1.0000
  H   H16       1.0  0.7783392830000009  0.8216893606257544  0.058525134056878994  1.0000
  Pb  Pb1       1.0  0.7500221394524897  0.3339602625880218  0.6660270569566862  1.0000
  Pb  Pb2       1.0  0.24999823554390582  0.6660273995433171  0.33397143106110166  1.0000
  C   C1        1.0  0.6984948457527904  0.3197997701470712  0.9939882555619447  1.0000
  C   C2        1.0  0.19850296648137786  0.9939958123987934  0.3197814533954713  1.0000
  C   C3        1.0  0.30149337781083546  0.6801999226288586  0.006008916520627856  1.0000
  C   C4        1.0  0.80149734758249  0.005999524451958397  0.6802197242928045  1.0000
  C   C5        1.0  0.6641573580190678  0.27591470587577754  0.1356434329878695  1.0000
  C   C6        1.0  0.1641614281775503  0.13566151138326885  0.2758936714063225  1.0000
  C   C7        1.0  0.3358304710386121  0.724091075009035  0.8643515778369562  1.0000
  C   C8        1.0  0.8358270226104093  0.8643321134763934  0.7241075303819074  1.0000
  C   C9        1.0  0.6746817104262701  0.13752303241312802  0.20225495948471922  1.0000
  C   C10       1.0  0.17469073434553192  0.20226349554050668  0.13750328942835213  1.0000
  C   C11       1.0  0.3253074490802417  0.8624796413580569  0.7977372577023373  1.0000
  C   C12       1.0  0.8252987519201224  0.7977361922727083  0.8624973448084035  1.0000
  C   C13       1.0  0.7121605226879592  0.04954919314673131  0.1261670105674924  1.0000
  C   C14       1.0  0.21216311702663393  0.1261700657865106  0.04953973839370462  1.0000
  C   C15       1.0  0.2878366205434801  0.9504522720272348  0.8738278842265429  1.0000
  C   C16       1.0  0.7878379031544251  0.8738333381181818  0.950456506008564  1.0000
  C   C17       1.0  0.7359981956433826  0.10207952150599196  0.9842875398387676  1.0000
  C   C18       1.0  0.23599015978281546  0.9842872501940008  0.1020684567624813  1.0000
  C   C19       1.0  0.2640091088611738  0.8979186553335271  0.015711320883255563  1.0000
  C   C20       1.0  0.7640124391681337  0.015712034450579903  0.8979262426453332  1.0000
  C   C21       1.0  0.181658303529005  0.4512125665669516  0.7487478762940611  1.0000
  C   C22       1.0  0.6816079439826195  0.7487587780279908  0.45121162567512146  1.0000
  C   C23       1.0  0.8183515756310483  0.548778424284052  0.251250382691559  1.0000
  C   C24       1.0  0.3183935543451921  0.251238527671525  0.5487858457609462  1.0000
  S   S1        1.0  0.9722059311945512  0.5382436659908478  0.6834689573832406  1.0000
  S   S2        1.0  0.4721696558583727  0.6834780173945704  0.5382362626900986  1.0000
  S   S3        1.0  0.02780296797390494  0.4617534836431573  0.3165336799123111  1.0000
  S   S4        1.0  0.5278358030598651  0.31652121693937124  0.46176162413026134  1.0000
  N   N1        1.0  0.7344254350948983  0.23533947189822152  0.9202431987836943  1.0000
  N   N2        1.0  0.23441473389291181  0.9202456122661145  0.2353369400376622  1.0000
  N   N3        1.0  0.265579856541727  0.7646597826283285  0.07975655648456835  1.0000
  N   N4        1.0  0.7655913704536911  0.0797475036700348  0.7646603053685794  1.0000
  N   N5        1.0  0.3356972163827263  0.39021229488088954  0.7958752112783786  1.0000
  N   N6        1.0  0.8356477981600033  0.7958781378602496  0.3902174695882153  1.0000
  N   N7        1.0  0.664327165854175  0.6097691379642001  0.20412021739410594  1.0000
  N   N8        1.0  0.1643669801347229  0.20411874447802356  0.6097721985710008  1.0000
