data_image0
_chemical_formula_structural       Cu4H24C20Br4N8
_chemical_formula_sum              "Cu4 H24 C20 Br4 N8"
_cell_length_a       3.942256801738264
_cell_length_b       10.73554749599673
_cell_length_c       15.449342860796241
_cell_angle_alpha    89.99617547160508
_cell_angle_beta     89.99972418791559
_cell_angle_gamma    90.00192688442009

_space_group_name_H-M_alt    "P 1"
_space_group_IT_number       1

loop_
  _space_group_symop_operation_xyz
  'x, y, z'

loop_
  _atom_site_type_symbol
  _atom_site_label
  _atom_site_symmetry_multiplicity
  _atom_site_fract_x
  _atom_site_fract_y
  _atom_site_fract_z
  _atom_site_occupancy
  Cu  Cu1       1.0  0.8183333305114362  0.5131626549037448  0.8056121045330471  1.0000
  Cu  Cu2       1.0  0.3181956082638067  0.4869199598118426  0.6943669608555749  1.0000
  Cu  Cu3       1.0  0.18167677717940486  0.986827596236182  0.305612198228026  1.0000
  Cu  Cu4       1.0  0.681804194136717  0.013100409702396095  0.19438993351932507  1.0000
  H   H1        1.0  0.6838383617374362  0.7025913686730404  0.9379766019526982  1.0000
  H   H2        1.0  0.18359344198656657  0.29742601795920354  0.5620266344582345  1.0000
  H   H3        1.0  0.3161624700093952  0.7974139849037908  0.4379955307932875  1.0000
  H   H4        1.0  0.8164105625575575  0.20257179513141915  0.0620251503707223  1.0000
  H   H5        1.0  0.8018408256018787  0.7352033899279744  0.09490818240225  1.0000
  H   H6        1.0  0.3016930012748631  0.2647402706479197  0.4050943997524854  1.0000
  H   H7        1.0  0.1981668613908383  0.7647821506877861  0.5949396216519176  1.0000
  H   H8        1.0  0.6983117575542152  0.23527083456070125  0.9050920703393429  1.0000
  H   H9        1.0  0.30319567784246  0.5174375895461834  0.224671860825282  1.0000
  H   H10       1.0  0.803260333029165  0.4825032973690283  0.2753242462337937  1.0000
  H   H11       1.0  0.6967723277639452  0.9825847326108174  0.7246633548203009  1.0000
  H   H12       1.0  0.1967435224108343  0.01749617701580059  0.775356040697396  1.0000
  H   H13       1.0  0.11562101696639361  0.6607715679426176  0.2192089440162022  1.0000
  H   H14       1.0  0.615575318740845  0.3391294289655987  0.2808004166849116  1.0000
  H   H15       1.0  0.8843724223514187  0.8392224073428164  0.7192209540453476  1.0000
  H   H16       1.0  0.3843802724293965  0.1608769668485834  0.7808084903029666  1.0000
  H   H17       1.0  0.29776503447953223  0.37534205947153493  0.0958230455255276  1.0000
  H   H18       1.0  0.7978266424573095  0.6246313544022538  0.4041497677183301  1.0000
  H   H19       1.0  0.7022004960928357  0.1246729683938383  0.595799250514176  1.0000
  H   H20       1.0  0.2022405667795866  0.8753642397396317  0.904184536843779  1.0000
  H   H21       1.0  0.1702382737969614  0.36053343398079096  0.9390502941479751  1.0000
  H   H22       1.0  0.6701125945706538  0.6394688606055965  0.5609218954955891  1.0000
  H   H23       1.0  0.8297584468608433  0.13945295432624494  0.4390173809191253  1.0000
  H   H24       1.0  0.3299411797061039  0.8605237031417943  0.060958616154401596  1.0000
  C   C1        1.0  0.8220049509971545  0.632813923631005  0.975366089087558  1.0000
  C   C2        1.0  0.32183451809870434  0.3671960849619892  0.5246446885431411  1.0000
  C   C3        1.0  0.17797258035233915  0.8671859406491718  0.47536197427022125  1.0000
  C   C4        1.0  0.6781826403376955  0.1328072171030001  0.0246563438961189  1.0000
  C   C5        1.0  0.8875424042510358  0.6508139742225437  0.0623164306385533  1.0000
  C   C6        1.0  0.38740085563485854  0.3491495172375706  0.43768859985009106  1.0000
  C   C7        1.0  0.11244793775405533  0.8491924275381562  0.5623227741352467  1.0000
  C   C8        1.0  0.6126237853283173  0.15085190532161616  0.9376928764521819  1.0000
  C   C9        1.0  0.060365017006184005  0.557888412076444  0.1094591106326561  1.0000
  C   C10       1.0  0.5603666752829924  0.4420639741763351  0.3905425719953541  1.0000
  C   C11       1.0  0.9395917549109214  0.9421031703872698  0.609450123593767  1.0000
  C   C12       1.0  0.43964080351232593  0.0579541305451983  0.8905636966392761  1.0000
  C   C13       1.0  0.16033931205294044  0.4503402323618386  0.0635877024449485  1.0000
  C   C14       1.0  0.6603108645234459  0.5496387054441242  0.4364066958739982  1.0000
  C   C15       1.0  0.8396545271954777  0.04967605967941317  0.563570362957428  1.0000
  C   C16       1.0  0.33975340174013263  0.9503491026101469  0.9364267923974197  1.0000
  C   C17       1.0  0.08781130676218399  0.44153950114173296  0.9761458723513101  1.0000
  C   C18       1.0  0.58773040874366  0.5584420762343143  0.5238465182609033  1.0000
  C   C19       1.0  0.9121418239479412  0.05843769907119878  0.4761152499576085  1.0000
  C   C20       1.0  0.41229339342574184  0.9415624676937848  0.0238787354699781  1.0000
  Br  Br1       1.0  0.41954321957140195  0.6795426947078267  0.7656250329205676  1.0000
  Br  Br2       1.0  0.9194560393275071  0.3205171205276612  0.7343512781402737  1.0000
  Br  Br3       1.0  0.5802898278620675  0.8204328057555159  0.2656049293454359  1.0000
  Br  Br4       1.0  0.08063965053170818  0.17948167441841884  0.23433328812785703  1.0000
  N   N1        1.0  0.9186057206102162  0.5299985115790091  0.9312118001322671  1.0000
  N   N2        1.0  0.41841243715904153  0.4700081929683007  0.5688091758636772  1.0000
  N   N3        1.0  0.08140534252298438  0.9699925969319806  0.4311824091327239  1.0000
  N   N4        1.0  0.5816346041553261  0.029984304002546498  0.0688283001724912  1.0000
  N   N5        1.0  0.11916128183484889  0.5715392454911451  0.19636017993379798  1.0000
  N   N6        1.0  0.6191933909132672  0.42837856881577335  0.3036388180937095  1.0000
  N   N7        1.0  0.8808096164954549  0.9284755764824624  0.6963616246589837  1.0000
  N   N8        1.0  0.3808126447230861  0.0716190913475145  0.8036464655026165  1.0000
