data_image0
_chemical_formula_structural       Co2H26C40N10O8
_chemical_formula_sum              "Co2 H26 C40 N10 O8"
_cell_length_a       8.674299867464455
_cell_length_b       10.020668765854476
_cell_length_c       11.64222275467797
_cell_angle_alpha    89.59974441027231
_cell_angle_beta     84.92226062172296
_cell_angle_gamma    68.28087097810601

_space_group_name_H-M_alt    "P 1"
_space_group_IT_number       1

loop_
  _space_group_symop_operation_xyz
  'x, y, z'

loop_
  _atom_site_type_symbol
  _atom_site_label
  _atom_site_symmetry_multiplicity
  _atom_site_fract_x
  _atom_site_fract_y
  _atom_site_fract_z
  _atom_site_occupancy
  Co  Co1       1.0  0.4615786730155376  0.8359378336127393  0.40059050061090307  1.0000
  Co  Co2       1.0  0.5384260101123954  0.1640614442504287  0.5994070044983103  1.0000
  H   H1        1.0  0.16338117492128387  0.0937021848742745  0.5180141838249667  1.0000
  H   H2        1.0  0.8366219024457491  0.9062981612485785  0.48198685984003475  1.0000
  H   H3        1.0  0.39590842634019185  0.4052814856897982  0.4206293389706132  1.0000
  H   H4        1.0  0.604090460903265  0.5947178132603952  0.5793685543518093  1.0000
  H   H5        1.0  0.38376146167570363  0.5674293776281729  0.0771373118852807  1.0000
  H   H6        1.0  0.616239289005506  0.43257098484829726  0.9228613107496882  1.0000
  H   H7        1.0  0.37576002910842726  0.14403435232553358  0.13489316268881169  1.0000
  H   H8        1.0  0.624243944203968  0.8559638630731569  0.8651018179216762  1.0000
  H   H9        1.0  0.5932415561025974  0.9439856826912064  0.17556472815029875  1.0000
  H   H10       1.0  0.4067596661587203  0.056013591986562986  0.8244381625174808  1.0000
  H   H11       1.0  0.7878181059632468  0.5981346557063034  0.38528838676762683  1.0000
  H   H12       1.0  0.21218332464664505  0.40186140466600756  0.6147127865210819  1.0000
  H   H13       1.0  0.7514011491374927  0.12899320198301467  0.8412190980067746  1.0000
  H   H14       1.0  0.2485963789125237  0.8710093075712348  0.15878316665267525  1.0000
  H   H15       1.0  0.3751819695593213  0.3377875708623606  0.0007365484918012074  1.0000
  H   H16       1.0  0.6248194853827441  0.6622138593577916  0.9992628810983459  1.0000
  H   H17       1.0  0.9698797110014681  0.1359575459914311  0.6958985928093497  1.0000
  H   H18       1.0  0.030120127070311857  0.8640449630468224  0.3041009402494979  1.0000
  H   H19       1.0  0.3304916220132411  0.6518257261537883  0.5511437551644248  1.0000
  H   H20       1.0  0.6695086820839576  0.348175700364962  0.44885832838368594  1.0000
  H   H21       1.0  0.0446864926328131  0.48810486126975416  0.24742198564369028  1.0000
  H   H22       1.0  0.9553149296450409  0.5118912070213638  0.7525766113297008  1.0000
  H   H23       1.0  0.15177690908134167  0.6758382806731404  0.735366848213246  1.0000
  H   H24       1.0  0.8482217698135414  0.32416423258251825  0.26463276248824025  1.0000
  H   H25       1.0  0.07072720235003524  0.6186477893368333  0.06520483422691829  1.0000
  H   H26       1.0  0.9292714438806442  0.3813493619897842  0.9347939438578121  1.0000
  C   C1        1.0  0.6964867402467759  0.8441374537249687  0.18861753627979272  1.0000
  C   C2        1.0  0.303513777753686  0.15586075320911869  0.8113845474328014  1.0000
  C   C3        1.0  0.805904011626964  0.6498324748682691  0.30538522334200013  1.0000
  C   C4        1.0  0.1940974162055865  0.35016358814364423  0.6946150911749384  1.0000
  C   C5        1.0  0.9477010899895502  0.5897443487635244  0.22874308951698905  1.0000
  C   C6        1.0  0.05230033784300046  0.410251714248389  0.7712572249999494  1.0000
  C   C7        1.0  0.38937575927884177  0.3908466404029197  0.32886831833829416  1.0000
  C   C8        1.0  0.6106249858476784  0.6091537273527621  0.6711285867531342  1.0000
  C   C9        1.0  0.41025131844079965  0.6288664009670768  0.301668174167105  1.0000
  C   C10       1.0  0.5897464096257606  0.3711329022005287  0.6983297967979638  1.0000
  C   C11       1.0  0.38774640241085473  0.14657293679640304  0.36902015616310274  1.0000
  C   C12       1.0  0.6122506241721981  0.8534252959879182  0.6309778666185507  1.0000
  C   C13       1.0  0.3815424816584354  0.2633221101950127  0.28696070918064714  1.0000
  C   C14       1.0  0.6184554929755919  0.736679335316964  0.7130380945656609  1.0000
  C   C15       1.0  0.39182731234112106  0.49930403921789696  0.2535458774150142  1.0000
  C   C16       1.0  0.6081722763858436  0.5006963301155878  0.7464519640908164  1.0000
  C   C17       1.0  0.3834522109382588  0.48163689461559045  0.1352242300539501  1.0000
  C   C18       1.0  0.6165480820495617  0.5183645424615692  0.8647744184070728  1.0000
  C   C19       1.0  0.04658540005149788  0.9080378284084604  0.7320803228808044  1.0000
  C   C20       1.0  0.9534125856919073  0.09196360654510022  0.26792191595259135  1.0000
  C   C21       1.0  0.852518444805703  0.8721759287887139  0.004693724582260506  1.0000
  C   C22       1.0  0.14748115503064696  0.12782442998635452  0.995307552010672  1.0000
  C   C23       1.0  0.15523794976040506  0.0034946654000975997  0.5673503209340182  1.0000
  C   C24       1.0  0.8447628148075236  0.996505683878361  0.4326525955598085  1.0000
  C   C25       1.0  0.048588556581684386  0.026534596916846502  0.6679387479571942  1.0000
  C   C26       1.0  0.9514094208296906  0.973466845955521  0.3320609145608841  1.0000
  C   C27       1.0  0.9473551423796208  0.919314481620418  0.8418170639175242  1.0000
  C   C28       1.0  0.052641681409546885  0.08068696019015678  0.1581843937867404  1.0000
  C   C29       1.0  0.8364888009201079  0.7930114050545428  0.10792979660177339  1.0000
  C   C30       1.0  0.16350939317187135  0.2069868155935666  0.8920707248525587  1.0000
  C   C31       1.0  0.37744672487048797  0.24464987870582175  0.16809490426733478  1.0000
  C   C32       1.0  0.6225567990805556  0.7553494033747511  0.8319026784845247  1.0000
  C   C33       1.0  0.3779103993856623  0.35365516427274457  0.09293753679204998  1.0000
  C   C34       1.0  0.6220961444026756  0.6463451797563025  0.9070598388579326  1.0000
  C   C35       1.0  0.2493990079172547  0.7573919624864304  0.5861989149433879  1.0000
  C   C36       1.0  0.750600835709214  0.24261054127261875  0.4138023356590068  1.0000
  C   C37       1.0  0.962792326622882  0.6615558815275548  0.12817381850824458  1.0000
  C   C38       1.0  0.03720864073893179  0.33844125872465003  0.871825663062978  1.0000
  C   C39       1.0  0.14922367734700964  0.77076448311351  0.688251587283858  1.0000
  C   C40       1.0  0.8507766211955001  0.22923694868444502  0.3117487787207054  1.0000
  N   N1        1.0  0.6809944749002029  0.7738944089114383  0.28482341211201145  1.0000
  N   N2        1.0  0.31900811488658576  0.22610164724346754  0.7151776835340583  1.0000
  N   N3        1.0  0.25659296013789407  0.8716234649899306  0.5264180965825033  1.0000
  N   N4        1.0  0.7434092046197093  0.12837902769469878  0.4735838575063766  1.0000
  N   N5        1.0  0.7489840215259348  0.007313182901540902  0.9862266417985236  1.0000
  N   N6        1.0  0.2510148796042484  0.992686102850641  0.013775545382763713  1.0000
  N   N7        1.0  0.8127758383925892  0.03504009099592051  0.8831960277250983  1.0000
  N   N8        1.0  0.18722098539657855  0.9649613508146543  0.11680542997916629  1.0000
  N   N9        1.0  0.9756775434818931  0.8141738189058003  0.9179978209985435  1.0000
  N   N10       1.0  0.024320436706830185  0.18582762132697184  0.0820027002913051  1.0000
  O   O1        1.0  0.38089861122114843  0.0308221295032851  0.3295463012090565  1.0000
  O   O2        1.0  0.6190924437930502  0.9691847006025611  0.6704546597816332  1.0000
  O   O3        1.0  0.39748310727415503  0.16875978776109696  0.47563446049457525  1.0000
  O   O4        1.0  0.6025190547061072  0.8312427075631347  0.5243666348225344  1.0000
  O   O5        1.0  0.4932469222013935  0.614584196282685  0.38936592063297576  1.0000
  O   O6        1.0  0.506735785893788  0.3854205078026212  0.6106390449338335  1.0000
  O   O7        1.0  0.346058346406963  0.7524077061694355  0.25823767980244833  1.0000
  O   O8        1.0  0.6539541988370842  0.2475894051067229  0.7417567314834841  1.0000
