data_image0
_chemical_formula_structural       Zn2H28C30N2O10
_chemical_formula_sum              "Zn2 H28 C30 N2 O10"
_cell_length_a       9.60113850537522
_cell_length_b       11.233650853161045
_cell_length_c       13.647416386159424
_cell_angle_alpha    84.46447888242211
_cell_angle_beta     62.65388036721653
_cell_angle_gamma    81.86929599708047

_space_group_name_H-M_alt    "P 1"
_space_group_IT_number       1

loop_
  _space_group_symop_operation_xyz
  'x, y, z'

loop_
  _atom_site_type_symbol
  _atom_site_label
  _atom_site_symmetry_multiplicity
  _atom_site_fract_x
  _atom_site_fract_y
  _atom_site_fract_z
  _atom_site_occupancy
  Zn  Zn1       1.0  0.6592944088446088  0.4828611736133011  0.4782817940006582  1.0000
  Zn  Zn2       1.0  0.3411752422867662  0.5101124383238158  0.5310234815432723  1.0000
  H   H1        1.0  0.15278472890622646  0.3994877740000574  0.8822865527791706  1.0000
  H   H2        1.0  0.8585021127311164  0.5587280095255308  0.13155838757718646  1.0000
  H   H3        1.0  0.7260732541898846  0.5802600335801599  0.8689963591564763  1.0000
  H   H4        1.0  0.9164771805485827  0.6108936274453569  0.9348893253192404  1.0000
  H   H5        1.0  0.37029302582870116  0.3858361060253515  0.29006166976652287  1.0000
  H   H6        1.0  0.30609227416067586  0.13392125892241322  0.509173720621128  1.0000
  H   H7        1.0  0.8257727064404818  0.01098886035131129  0.5541640617626628  1.0000
  H   H8        1.0  0.7556020678262738  0.1676790035524007  0.5728065494341551  1.0000
  H   H9        1.0  0.9008251308357342  0.04043247838689722  0.3527236234760452  1.0000
  H   H10       1.0  0.8397451385121427  0.1967002415350194  0.37041790974528516  1.0000
  H   H11       1.0  0.04397237007290038  0.21460874276306902  0.4348958588759545  1.0000
  H   H12       1.0  0.28390690985979455  0.9184028166034891  0.520862484340782  1.0000
  H   H13       1.0  0.13497268137963658  0.15177422656636  0.3025115708190498  1.0000
  H   H14       1.0  0.10303560541456847  0.0577950568818792  0.4210714284621133  1.0000
  H   H15       1.0  0.03509396603427458  0.17983360203918156  0.683363660888631  1.0000
  H   H16       1.0  0.8796719096107707  0.25757358494471566  0.6574817068573396  1.0000
  H   H17       1.0  0.927774499125469  0.2807699719418509  0.8624420334818981  1.0000
  H   H18       1.0  0.779721139486945  0.36634536904380605  0.8360080539895806  1.0000
  H   H19       1.0  0.6575102569815453  0.1800401223929882  0.8432974078487379  1.0000
  H   H20       1.0  0.6701844897778954  0.19464151529712126  0.967047886738989  1.0000
  H   H21       1.0  0.806505210089263  0.0898370390046495  0.8687902483288499  1.0000
  H   H22       1.0  0.6251734838014896  0.8756908842460335  0.48880081383779855  1.0000
  H   H23       1.0  0.7651222574852098  0.4452781577432886  0.6459205241815625  1.0000
  H   H24       1.0  0.9852737907528208  0.4596251088466162  0.410950153243384  1.0000
  H   H25       1.0  0.09493181062031648  0.5828727947526317  0.4891480082469642  1.0000
  H   H26       1.0  0.18534631897142614  0.3413955601453011  0.22253497818930873  1.0000
  H   H27       1.0  0.09935827324411407  0.3545985214317113  0.078941234215165  1.0000
  H   H28       1.0  0.5821751661276195  0.537296750393047  0.8136119979110108  1.0000
  C   C1        1.0  0.49970296120014257  0.7269890842415236  0.4961316984231346  1.0000
  C   C2        1.0  0.6371407982705433  0.4959280586252461  0.17342021118948747  1.0000
  C   C3        1.0  0.40078675934679336  0.07212518657606638  0.5143423467849219  1.0000
  C   C4        1.0  0.598015736981253  0.48644860999188216  0.2934527779158103  1.0000
  C   C5        1.0  0.5143464701278546  0.1270952626967059  0.5213883001710329  1.0000
  C   C6        1.0  0.39392729074938854  0.9451386233586021  0.5132792300995207  1.0000
  C   C7        1.0  0.5111292396624164  0.8555369231651612  0.5004915199996349  1.0000
  C   C8        1.0  0.8797926059876247  0.44631365244164567  0.5721390722620185  1.0000
  C   C9        1.0  0.02537707797125681  0.44197417923227517  0.586070760309113  1.0000
  C   C10       1.0  0.5023592746989962  0.2625156576881906  0.5188310259740376  1.0000
  C   C11       1.0  0.4119239047787389  0.4894354544302217  0.7178749762727181  1.0000
  C   C12       1.0  0.5617490734573279  0.4997738037589484  0.02329410429847204  1.0000
  C   C13       1.0  0.2059724671797625  0.394150943721833  0.020395687368733168  1.0000
  C   C14       1.0  0.3736744806566819  0.46888565049759007  0.8372867706100993  1.0000
  C   C15       1.0  0.7767496150895993  0.5422179534380049  0.1007379558448136  1.0000
  C   C16       1.0  0.8083430885779846  0.571851909633466  0.9907564750329458  1.0000
  C   C17       1.0  0.7011664406214918  0.553207418356621  0.9537983587673011  1.0000
  C   C18       1.0  0.7770177844531219  0.09082033914363306  0.5219408597537836  1.0000
  C   C19       1.0  0.8896586592111716  0.1167611075363908  0.40168059766629943  1.0000
  C   C20       1.0  0.05138215533103359  0.1362555238033138  0.3893829271826733  1.0000
  C   C21       1.0  0.9510103665621658  0.26158395127514916  0.7011491601301573  1.0000
  C   C22       1.0  0.8499799940837246  0.2780164917552455  0.8236916742791608  1.0000
  C   C23       1.0  0.5289132618751111  0.47018413411831256  0.13557092345529748  1.0000
  C   C24       1.0  0.7403547877350718  0.17974891388752215  0.8783597675086698  1.0000
  C   C25       1.0  0.4523179568617265  0.4731187701290196  0.9839154772402171  1.0000
  C   C26       1.0  0.3136934449792577  0.41879254367918156  0.05805626701960159  1.0000
  C   C27       1.0  0.2882350801446094  0.3878556259092106  0.16864008364643723  1.0000
  C   C28       1.0  0.39100650067617687  0.4117463819141278  0.20590586761719015  1.0000
  C   C29       1.0  0.4785158653354742  0.49610377428431457  0.8737903591741587  1.0000
  C   C30       1.0  0.23447771429977135  0.4188606343854175  0.9121198437892419  1.0000
  N   N1        1.0  0.8769228322105602  0.45875181748024835  0.47897917323968653  1.0000
  N   N2        1.0  0.12466685659442327  0.5200921649276823  0.5375284111061163  1.0000
  O   O1        1.0  0.6333787234207832  0.6612722706343985  0.45515894272962504  1.0000
  O   O2        1.0  0.04973783219228511  0.36009452515806833  0.6545698180464046  1.0000
  O   O3        1.0  0.36503399323768787  0.6885108404839856  0.5328126201176175  1.0000
  O   O4        1.0  0.7087659029511357  0.4486676949103553  0.31975888065652935  1.0000
  O   O5        1.0  0.4569308735043689  0.5232877565408671  0.35989735664392714  1.0000
  O   O6        1.0  0.6079241749152189  0.3094249804832642  0.5299745305757781  1.0000
  O   O7        1.0  0.3892392873194694  0.3210733619640109  0.5052646297562404  1.0000
  O   O8        1.0  0.5504626210682844  0.5152081056809409  0.6514421093911622  1.0000
  O   O9        1.0  0.3046471449285376  0.47734083414455597  0.6904167441553498  1.0000
  O   O10       1.0  0.6294526565771008  0.05561618573077  0.5368183067655821  1.0000
