data_image0
_chemical_formula_structural       Zn2H8C4N20
_chemical_formula_sum              "Zn2 H8 C4 N20"
_cell_length_a       9.17705860307019
_cell_length_b       10.338071135060066
_cell_length_c       10.046204674076291
_cell_angle_alpha    121.36930397862703
_cell_angle_beta     117.6300227519013
_cell_angle_gamma    89.23719453392494

_space_group_name_H-M_alt    "P 1"
_space_group_IT_number       1

loop_
  _space_group_symop_operation_xyz
  'x, y, z'

loop_
  _atom_site_type_symbol
  _atom_site_label
  _atom_site_symmetry_multiplicity
  _atom_site_fract_x
  _atom_site_fract_y
  _atom_site_fract_z
  _atom_site_occupancy
  Zn  Zn1       1.0  0.9032972905488562  0.5587146818137965  0.721355239084481  1.0000
  Zn  Zn2       1.0  0.6819495069532806  0.8373595594699168  0.27861431454422814  1.0000
  H   H1        1.0  0.7214291798763027  0.41019630737920215  0.2867866505128874  1.0000
  H   H2        1.0  0.9341184082306596  0.12331990238678972  0.713187397965207  1.0000
  H   H3        1.0  0.7124624109356147  0.5027687484702028  0.17592589638810815  1.0000
  H   H4        1.0  0.036014485019094926  0.32682139459056003  0.8242030563020323  1.0000
  H   H5        1.0  0.77042999036469  0.9684959518759086  0.08498788752610417  1.0000
  H   H6        1.0  0.18545177524472936  0.8832087046520058  0.9149817953550754  1.0000
  H   H7        1.0  0.8428416505560608  0.8909868537518405  0.9340165251461132  1.0000
  H   H8        1.0  0.4088440361253093  0.9566356615207212  0.06597642025295893  1.0000
  C   C1        1.0  0.7941844516503096  0.6524437163102803  0.44845583888711366  1.0000
  C   C2        1.0  0.8452468653801548  0.2040003164067699  0.5515946963568724  1.0000
  C   C3        1.0  0.7853885770792247  0.7437433868070473  0.9927881084062806  1.0000
  C   C4        1.0  0.2925614166067662  0.7506018023138739  0.007159224390669369  1.0000
  N   N1        1.0  0.7452953076729614  0.510371394318945  0.2929778621847278  1.0000
  N   N2        1.0  0.9516075681987886  0.21744417172687497  0.7071673054944654  1.0000
  N   N3        1.0  0.795752756869611  0.7927162415727338  0.4672401636281408  1.0000
  N   N4        1.0  0.8280775780547245  0.32546859880653756  0.532775776250169  1.0000
  N   N5        1.0  0.8610541725367681  0.9083241188268261  0.648476342394197  1.0000
  N   N6        1.0  0.7124080514877419  0.259840406533158  0.3514706752034442  1.0000
  N   N7        1.0  0.8962090588476884  0.8449695477573799  0.737572501533677  1.0000
  N   N8        1.0  0.6585099381605275  0.10738897629095591  0.2623595155120172  1.0000
  N   N9        1.0  0.8560685012790686  0.6842378167989194  0.6173358645274334  1.0000
  N   N10       1.0  0.7383689888714997  0.0669088082161835  0.382669776318899  1.0000
  N   N11       1.0  0.8209120482619597  0.8863229543365136  0.02260377803867201  1.0000
  N   N12       1.0  0.29830550688966895  0.8633677642938907  0.977350732664462  1.0000
  N   N13       1.0  0.7955406169826279  0.6071293560111429  0.8687630179048258  1.0000
  N   N14       1.0  0.426791686074715  0.7380168637801957  0.13119898306076996  1.0000
  N   N15       1.0  0.755463802077678  0.49417667289756656  0.8889440889472696  1.0000
  N   N16       1.0  0.3665343293266546  0.6049158229000469  0.1110722999869438  1.0000
  N   N17       1.0  0.7208814586209228  0.5576610748723781  0.01616428994796581  1.0000
  N   N18       1.0  0.20467564537840838  0.541189027101275  0.9838577833041385  1.0000
  N   N19       1.0  0.7391208178245491  0.7149763063510832  0.08625474718063227  1.0000
  N   N20       1.0  0.15280232344836972  0.6283879153146898  0.9137216030134994  1.0000
