data_image0
_chemical_formula_structural       AlH15C33O18
_chemical_formula_sum              "Al1 H15 C33 O18"
_cell_length_a       4.221874912599711
_cell_length_b       16.137650041658016
_cell_length_c       16.138716497040534
_cell_angle_alpha    119.69510821297669
_cell_angle_beta     90.31813608557897
_cell_angle_gamma    90.3211117538172

_space_group_name_H-M_alt    "P 1"
_space_group_IT_number       1

loop_
  _space_group_symop_operation_xyz
  'x, y, z'

loop_
  _atom_site_type_symbol
  _atom_site_label
  _atom_site_symmetry_multiplicity
  _atom_site_fract_x
  _atom_site_fract_y
  _atom_site_fract_z
  _atom_site_occupancy
  Al  Al1       1.0  0.9999808316164547  0.5017518502585006  0.4981794206501676  1.0000
  H   H1        1.0  0.4998275836114133  0.920764701991722  0.07917714633035201  1.0000
  H   H2        1.0  0.44420714086348306  0.6555078244812904  0.08101128471826516  1.0000
  H   H3        1.0  0.5558017934184248  0.9188533960040673  0.34437073326386536  1.0000
  H   H4        1.0  0.6873275084597098  0.055028636893922615  0.15130077825013902  1.0000
  H   H5        1.0  0.3833145310324256  0.055116091784618994  0.4069075558738647  1.0000
  H   H6        1.0  0.3127810494648386  0.8486670430218128  0.9448420064971687  1.0000
  H   H7        1.0  0.6165928333863704  0.5930367708368468  0.9447689413640888  1.0000
  H   H8        1.0  0.7353611308988589  0.6040875654510176  0.16106936475837613  1.0000
  H   H9        1.0  0.26466026001581616  0.8387751637605165  0.3957314164581548  1.0000
  H   H10       1.0  0.065361538926517  0.3190136896442298  0.5150087615234824  1.0000
  H   H11       1.0  0.0289725638713065  0.3164655901007337  0.31058164880316513  1.0000
  H   H12       1.0  0.9712481131919191  0.6893586358237089  0.6834087414623015  1.0000
  H   H13       1.0  0.9346094228229589  0.48488118070643094  0.6808991924386805  1.0000
  H   H14       1.0  0.34919232814728224  0.4285111390521337  0.19554124616622207  1.0000
  H   H15       1.0  0.6507012304659909  0.8043676995747477  0.5712798617342971  1.0000
  C   C1        1.0  0.47938775659687144  0.5749805193041271  0.6501880567217315  1.0000
  C   C2        1.0  0.4999964339892243  0.5736826715202812  0.4262146065462036  1.0000
  C   C3        1.0  0.5205920025360768  0.3497274316573639  0.42493116477883325  1.0000
  C   C4        1.0  0.4814483515420775  0.7818453589589325  0.06723414659970944  1.0000
  C   C5        1.0  0.49989356321022876  0.8817341864028381  0.11816872052622085  1.0000
  C   C6        1.0  0.5183779813151261  0.9326438380556397  0.21806406163487688  1.0000
  C   C7        1.0  0.5241942529018147  0.8812642822314987  0.26715464361451796  1.0000
  C   C8        1.0  0.5000244951546905  0.781476901432356  0.2183884053276799  1.0000
  C   C9        1.0  0.4758218453425087  0.7327288136923331  0.11859836821125941  1.0000
  C   C10       1.0  0.6199854876238647  0.1902275067868473  0.27380484457939513  1.0000
  C   C11       1.0  0.6163107363685469  0.09048880762428983  0.22577684375129084  1.0000
  C   C12       1.0  0.5294168851360794  0.03829121042701901  0.27034134907531643  1.0000
  C   C13       1.0  0.4500809222335604  0.09040749726982258  0.3668882732880619  1.0000
  C   C14       1.0  0.4498803897716641  0.18992809722422527  0.4167519576466106  1.0000
  C   C15       1.0  0.5304969318532572  0.2419215592593745  0.3705619095455007  1.0000
  C   C16       1.0  0.38367321478995114  0.7741723319255273  0.9094064447605278  1.0000
  C   C17       1.0  0.380029801239992  0.7261444775879514  0.8096709485960008  1.0000
  C   C18       1.0  0.4694814239680412  0.6293751756415632  0.7579728349677171  1.0000
  C   C19       1.0  0.5500861498537191  0.5831788840760552  0.8099576119675336  1.0000
  C   C20       1.0  0.5497823775939139  0.6330510349817972  0.9094772236384473  1.0000
  C   C21       1.0  0.4704407845083551  0.7296018349033135  0.9616054194049328  1.0000
  C   C22       1.0  0.6282950941310619  0.6369996123139006  0.23148043568501478  1.0000
  C   C23       1.0  0.624628050824228  0.5861015952763111  0.28036331855959423  1.0000
  C   C24       1.0  0.49992571479074843  0.6267773939942246  0.37305840725827744  1.0000
  C   C25       1.0  0.37528306585819143  0.7194794407781304  0.41370918516853566  1.0000
  C   C26       1.0  0.3716675758969216  0.7683688621750376  0.362821259430703  1.0000
  C   C27       1.0  0.5000231845183264  0.728553259840659  0.27127140544282485  1.0000
  C   C28       1.0  0.3860805770363173  0.23518777451374012  0.5217325340249347  1.0000
  C   C29       1.0  0.7173455597797941  0.2327261544194813  0.2129064303700262  1.0000
  C   C30       1.0  0.28280133992351625  0.787035910952639  0.7671598895712322  1.0000
  C   C31       1.0  0.6138378915340041  0.4781921955335164  0.7647254736555311  1.0000
  C   C32       1.0  0.764360376753494  0.48798398584067115  0.22712718482785027  1.0000
  C   C33       1.0  0.23557142513150356  0.7727423471514074  0.5118173699130468  1.0000
  O   O1        1.0  0.28055209004842396  0.39046588992395215  0.4130655003109852  1.0000
  O   O2        1.0  0.24469620507213105  0.5193900745364388  0.6061344751633941  1.0000
  O   O3        1.0  0.2674323269665848  0.5858983725388285  0.48185142995254193  1.0000
  O   O4        1.0  0.7553084493529101  0.3937835939734883  0.4805134093974034  1.0000
  O   O5        1.0  0.7326190168578819  0.5180779323471968  0.41402732533732245  1.0000
  O   O6        1.0  0.7194244843619516  0.5868361568247878  0.6094435541761456  1.0000
  O   O7        1.0  0.2037140785525722  0.3138991439824252  0.5614089546373576  1.0000
  O   O8        1.0  0.5035224832937644  0.20361722666675056  0.5690177131457831  1.0000
  O   O9        1.0  0.9287957325741945  0.3057887855191268  0.2506946408406564  1.0000
  O   O10       1.0  0.6139434193701733  0.20062263986728376  0.13239904054336904  1.0000
  O   O11       1.0  0.0714261990848399  0.7492461213012974  0.6940834718533754  1.0000
  O   O12       1.0  0.3861727208073304  0.86755229375126  0.7992748518056916  1.0000
  O   O13       1.0  0.7962701177389774  0.4384925250975798  0.6860416424453889  1.0000
  O   O14       1.0  0.4964559447364252  0.4309336937023148  0.7963404272737266  1.0000
  O   O15       1.0  0.5848321181685634  0.41184972251350166  0.1891255066277183  1.0000
  O   O16       1.0  0.054519901405555495  0.48466390100814055  0.21653593619342376  1.0000
  O   O17       1.0  0.41508991236695175  0.8107986212665426  0.5879485143800454  1.0000
  O   O18       1.0  0.9454108496954703  0.7833381179468973  0.5151243881685945  1.0000
