data_image0
_chemical_formula_structural       Zn8H16C80Br16Cl8O26
_chemical_formula_sum              "Zn8 H16 C80 Br16 Cl8 O26"
_cell_length_a       23.98774535326045
_cell_length_b       23.989142447444316
_cell_length_c       23.98756571169888
_cell_angle_alpha    66.54025331361045
_cell_angle_beta     72.491502318574
_cell_angle_gamma    107.5183619015614

_space_group_name_H-M_alt    "P 1"
_space_group_IT_number       1

loop_
  _space_group_symop_operation_xyz
  'x, y, z'

loop_
  _atom_site_type_symbol
  _atom_site_label
  _atom_site_symmetry_multiplicity
  _atom_site_fract_x
  _atom_site_fract_y
  _atom_site_fract_z
  _atom_site_occupancy
  Zn  Zn1       1.0  0.056912848862751234  0.9575925673966593  0.4855075255390132  1.0000
  Zn  Zn2       1.0  0.05691126304680688  0.09932009488897359  0.4575955073398105  1.0000
  Zn  Zn3       1.0  0.9430817302660797  0.9855034883895186  0.45758478595447366  1.0000
  Zn  Zn4       1.0  0.9431003432902544  0.9575876871069725  0.5993238794158485  1.0000
  Zn  Zn5       1.0  0.9430889387711049  0.5424079451300159  0.014493433124172759  1.0000
  Zn  Zn6       1.0  0.05692025404641041  0.5144977409524643  0.0424149952217903  1.0000
  Zn  Zn7       1.0  0.9430881200991336  0.40067842446794805  0.04241075451400179  1.0000
  Zn  Zn8       1.0  0.056898112272122575  0.5424055625236833  0.9006788925460822  1.0000
  H   H1        1.0  0.923949079644487  0.7149131429816721  0.17534087209239166  1.0000
  H   H2        1.0  0.07603769977448849  0.6753288724987172  0.2149571715982361  1.0000
  H   H3        1.0  0.9239510903446443  0.8246612140216312  0.2850560117276543  1.0000
  H   H4        1.0  0.0759866683872515  0.7850072148071375  0.32473598181569946  1.0000
  H   H5        1.0  0.07605366680098055  0.40068097595607816  0.7090460146064288  1.0000
  H   H6        1.0  0.9239648762750862  0.20900724600157622  0.9007200673080786  1.0000
  H   H7        1.0  0.07599148678727369  0.29097902835003  0.599298199380854  1.0000
  H   H8        1.0  0.9239526691344577  0.09928891896431206  0.7909828599877428  1.0000
  H   H9        1.0  0.6097289223594585  0.40069967569978365  0.17530985656511422  1.0000
  H   H10       1.0  0.6097240953452284  0.20901133151984638  0.2149602121711354  1.0000
  H   H11       1.0  0.39027635842154496  0.29098880626684587  0.2850275756185211  1.0000
  H   H12       1.0  0.3902691744883313  0.09931271745605127  0.3246145817862213  1.0000
  H   H13       1.0  0.3902850727500252  0.6752889123104994  0.9006984241338784  1.0000
  H   H14       1.0  0.39025980807761584  0.7149437648103004  0.70900749157569  1.0000
  H   H15       1.0  0.6097411369344525  0.7850447243098556  0.7909918329346367  1.0000
  H   H16       1.0  0.6097190969702737  0.824636446299877  0.5993128874191667  1.0000
  C   C1        1.0  0.18110609635901648  0.09055830374654758  0.4094534208157725  1.0000
  C   C2        1.0  0.9999967408977354  0.13693504421933506  0.3630624298838045  1.0000
  C   C3        1.0  0.9999926560069381  0.9094510379382683  0.4094470904851378  1.0000
  C   C4        1.0  0.8188970064173087  0.909443557587579  0.590563930100032  1.0000
  C   C5        1.0  3.925967760811932e-06  0.8630597185650475  0.6369385891656518  1.0000
  C   C6        1.0  0.9999963802741049  0.0905492129006619  0.5905588823150366  1.0000
  C   C7        1.0  2.8294215608629684e-06  0.5905421007368474  0.0905604892277907  1.0000
  C   C8        1.0  7.1095042315756775e-06  0.3630653358764846  0.136938122238341  1.0000
  C   C9        1.0  0.8188934399740687  0.4094419387187429  0.09054335660807321  1.0000
  C   C10       1.0  0.9999899171826669  0.4094359296335526  0.909456933439536  1.0000
  C   C11       1.0  0.9999968783146826  0.6369368955913757  0.8630618502342601  1.0000
  C   C12       1.0  0.18110428835218062  0.5905473506688139  0.9094376641503243  1.0000
  C   C13       1.0  2.4630526596362595e-06  0.805157901198399  0.6948402324322059  1.0000
  C   C14       1.0  7.224038681942713e-07  0.6948416147415912  0.8051587545106995  1.0000
  C   C15       1.0  0.9572992347372205  0.7769506719036129  0.7657460782585513  1.0000
  C   C16       1.0  0.04270306580954718  0.7230484993840064  0.734254435419075  1.0000
  C   C17       1.0  0.9572997424317152  0.7230446340085664  0.8196533458124546  1.0000
  C   C18       1.0  0.042704633058157505  0.776954020338927  0.6803475811089397  1.0000
  C   C19       1.0  0.999999864298289  0.1948405976041271  0.30515922045326255  1.0000
  C   C20       1.0  3.3089729498782123e-06  0.3051596231738928  0.1948415990507043  1.0000
  C   C21       1.0  0.9572986044307328  0.18034868804988238  0.2769455313602692  1.0000
  C   C22       1.0  0.04270315992074808  0.3196527391256582  0.22305552368452905  1.0000
  C   C23       1.0  0.9573020723838538  0.23425766493307526  0.22303840023914734  1.0000
  C   C24       1.0  0.04270065288580577  0.2657426499296919  0.27696280641495  1.0000
  C   C25       1.0  5.846628852446737e-07  0.6280437336863899  0.12806552504501653  1.0000
  C   C26       1.0  0.95749676214249  0.6581735464094222  0.13593439323196327  1.0000
  C   C27       1.0  0.9573514920102113  0.6928329136066651  0.17064033205294038  1.0000
  C   C28       1.0  0.9999917472738459  0.6995557688067962  0.19958324991258533  1.0000
  C   C29       1.0  0.04263744330550865  0.6706237387297944  0.1928667978568369  1.0000
  C   C30       1.0  0.042499545252205374  0.6359215970699169  0.15820484799725407  1.0000
  C   C31       1.0  0.9999862459766646  0.734781106137099  0.23481414084224642  1.0000
  C   C32       1.0  0.9999775636310203  0.765180875444038  0.2652234349520413  1.0000
  C   C33       1.0  0.9999732634780614  0.8004048217128102  0.3004549325435517  1.0000
  C   C34       1.0  0.9573442903827003  0.8293556506411836  0.30715442506924945  1.0000
  C   C35       1.0  0.9574865138969672  0.8640631611544406  0.34181210669807194  1.0000
  C   C36       1.0  0.9999820439210934  0.8719308425465683  0.37196025599482146  1.0000
  C   C37       1.0  0.0424622077270128  0.8417737042504355  0.3641156168582995  1.0000
  C   C38       1.0  0.04259948295373296  0.8071094425708408  0.3294152813363098  1.0000
  C   C39       1.0  1.7610287343633253e-06  0.37192831055921965  0.8719602605237708  1.0000
  C   C40       1.0  0.04251001768671612  0.40655312149477413  0.7993275144764665  1.0000
  C   C41       1.0  0.04265003627586593  0.37198763893817244  0.764527543854001  1.0000
  C   C42       1.0  3.029326990136344e-06  0.30041235251543713  0.8004462469361258  1.0000
  C   C43       1.0  0.9573646917646457  0.2644925877589514  0.8720239817816023  1.0000
  C   C44       1.0  0.9575066438874416  0.29929482140033775  0.9065849635380372  1.0000
  C   C45       1.0  0.9999941255712912  0.26518817989562377  0.7652166084840176  1.0000
  C   C46       1.0  0.9999829533816751  0.23478876685184957  0.7348077400502789  1.0000
  C   C47       1.0  0.9999768788016394  0.19956740193084946  0.6995762619910338  1.0000
  C   C48       1.0  0.042603640497247935  0.23549114110833363  0.6279966885653037  1.0000
  C   C49       1.0  0.04246522715933307  0.20069141643528346  0.5934315598733447  1.0000
  C   C50       1.0  0.9999836737050815  0.1280554216789155  0.62805858683447  1.0000
  C   C51       1.0  0.9574884342875976  0.09342496718263493  0.7006938160262024  1.0000
  C   C52       1.0  0.9573455976196855  0.1279871098891263  0.7354959615400531  1.0000
  C   C53       1.0  0.7438867101775484  0.37193586767811837  0.1280543145371879  1.0000
  C   C54       1.0  0.705881119990771  0.4065655251734412  0.13591443413337595  1.0000
  C   C55       1.0  0.6365167765372348  0.3720027017188343  0.1706175649892644  1.0000
  C   C56       1.0  0.6008578942071239  0.3004231512856705  0.19956588351585935  1.0000
  C   C57       1.0  0.6365139652100993  0.2644993192472143  0.19286349139095182  1.0000
  C   C58       1.0  0.7058785781287116  0.29930021646895016  0.15820588895240204  1.0000
  C   C59       1.0  0.5304037998033451  0.26519884752766393  0.23478460144113464  1.0000
  C   C60       1.0  0.46959516924149364  0.2348039931848618  0.26517713168215806  1.0000
  C   C61       1.0  0.3991411843725814  0.19958238798241726  0.3003972471446942  1.0000
  C   C62       1.0  0.36348616127424555  0.23550309579254505  0.30711598761475756  1.0000
  C   C63       1.0  0.294122225433938  0.20070234783017338  0.3417795799248323  1.0000
  C   C64       1.0  0.25611265207425055  0.12806837783084293  0.3719230010718562  1.0000
  C   C65       1.0  0.29411719443329076  0.0934418593162221  0.3640373558255872  1.0000
  C   C66       1.0  0.3634826084097824  0.12800628242485598  0.3293274311117925  1.0000
  C   C67       1.0  0.2561125677351655  0.6280440782055197  0.871932864494816  1.0000
  C   C68       1.0  0.294126800789364  0.6358983210876871  0.9065641642781371  1.0000
  C   C69       1.0  0.3634913353595052  0.6706020793978594  0.8719989062208385  1.0000
  C   C70       1.0  0.39914330557339633  0.6995545760074791  0.8004178443827427  1.0000
  C   C71       1.0  0.36347837812188266  0.6928488784352635  0.7644957319227997  1.0000
  C   C72       1.0  0.294113716030914  0.6581891827477264  0.7992982608114049  1.0000
  C   C73       1.0  0.46959735644723827  0.7347798786823604  0.7651954081668819  1.0000
  C   C74       1.0  0.5304059658387955  0.7651804062027879  0.7348068865487177  1.0000
  C   C75       1.0  0.6008616771876022  0.8004094428841242  0.6995841356195313  1.0000
  C   C76       1.0  0.636524072950202  0.8071312667684084  0.7355056154203224  1.0000
  C   C77       1.0  0.7058880803399956  0.8417954908101491  0.7007027378225317  1.0000
  C   C78       1.0  0.7438907346992565  0.8719322521064399  0.62806973982169  1.0000
  C   C79       1.0  0.7058782242073603  0.8640543313317862  0.5934423129851111  1.0000
  C   C80       1.0  0.6365127934227741  0.8293450139104551  0.6280067119506184  1.0000
  Br  Br1       1.0  0.8952404325597741  0.6565906609293111  0.10146927035655988  1.0000
  Br  Br2       1.0  0.10475702300897882  0.6014702013102067  0.15663286319566788  1.0000
  Br  Br3       1.0  0.8952437165978895  0.8985334119751233  0.34336634738016836  1.0000
  Br  Br4       1.0  0.10468775614542378  0.8433148668533903  0.39861699773854303  1.0000
  Br  Br5       1.0  0.10478431442420084  0.5032569018020396  0.7386573813424278  1.0000
  Br  Br6       1.0  0.8952601721746092  0.23861986514741335  0.0032972951627953445  1.0000
  Br  Br7       1.0  0.10468934492584475  0.2613769742866623  0.49671549737140447  1.0000
  Br  Br8       1.0  0.8952421395793949  0.9967114481515013  0.7613685061950763  1.0000
  Br  Br9       1.0  0.7419159288473338  0.503278394830076  0.10143813573136391  1.0000
  Br  Br10      1.0  0.7419112801355111  0.23861686260322293  0.15666375482893363  1.0000
  Br  Br11      1.0  0.258089937755443  0.261381423926835  0.34333912801432115  1.0000
  Br  Br12      1.0  0.258080575852233  0.9967387605542298  0.39846317980781976  1.0000
  Br  Br13      1.0  0.2581044434025799  0.601407965238252  0.003280226183619588  1.0000
  Br  Br14      1.0  0.25806800337274177  0.6566315990175156  0.7386168535267641  1.0000
  Br  Br15      1.0  0.7419327686984403  0.8433712311968264  0.7613805848081865  1.0000
  Br  Br16      1.0  0.7419038200368179  0.8985020913589994  0.49673257625791206  1.0000
  Cl  Cl1       1.0  0.9027891540562009  0.8054956276802444  0.7916995428599305  1.0000
  Cl  Cl2       1.0  0.09721080888837018  0.694499650953681  0.7083011357626173  1.0000
  Cl  Cl3       1.0  0.9027932636794915  0.6944937767564098  0.9027089547159901  1.0000
  Cl  Cl4       1.0  0.09721476011964109  0.8055100831033074  0.5972904742578036  1.0000
  Cl  Cl5       1.0  0.9027906721385649  0.09729464345739551  0.30548660630152813  1.0000
  Cl  Cl6       1.0  0.09720726964059877  0.4027055463803819  0.19451817668766574  1.0000
  Cl  Cl7       1.0  0.9027959776243007  0.2083053929014795  0.19447624433351507  1.0000
  Cl  Cl8       1.0  0.09720718455702837  0.2916953613689586  0.3055234055857666  1.0000
  O   O1        1.0  0.9999974714823097  7.112363390550091e-07  0.5000020258681842  1.0000
  O   O2        1.0  0.15183221014817858  0.02568929374702118  0.43452138151968  1.0000
  O   O3        1.0  0.0396360341967466  0.15417557716354932  0.38545236140196687  1.0000
  O   O4        1.0  0.9601568893991794  0.9344763178724237  0.4136910202669738  1.0000
  O   O5        1.0  0.1518337855759171  0.12614927285139294  0.41368187609218404  1.0000
  O   O6        1.0  0.0398397169072949  0.9137123956548692  0.43446423415721097  1.0000
  O   O7        1.0  0.9603546964428418  0.0749132739318767  0.3854526343591259  1.0000
  O   O8        1.0  0.8481656177298827  0.9345019072170471  0.5256947926158732  1.0000
  O   O9        1.0  0.9603832443092201  0.8854615698927333  0.654181918005264  1.0000
  O   O10       1.0  0.8481738712352609  0.9136640495592658  0.6261573954080645  1.0000
  O   O11       1.0  0.03962443138682663  0.8854388147967145  0.5749167007782885  1.0000
  O   O12       1.0  0.039823790582566715  0.12613901854214762  0.5256967613963752  1.0000
  O   O13       1.0  0.9601801965409535  0.025684425805877594  0.6261485143625477  1.0000
  O   O14       1.0  9.943278271415686e-07  0.4999979315749171  1.5454135677963993e-06  1.0000
  O   O15       1.0  0.9601843752180275  0.5863151311855078  0.06550844156675589  1.0000
  O   O16       1.0  0.03965779250042806  0.425088010478433  0.11453857353695435  1.0000
  O   O17       1.0  0.8481658604213819  0.3738536929802549  0.08630086431066532  1.0000
  O   O18       1.0  0.039822397078552264  0.5654964662074989  0.08633773022146579  1.0000
  O   O19       1.0  0.8481680241992962  0.4743053798723267  0.0655053262177887  1.0000
  O   O20       1.0  0.9603598761517702  0.3458241273446632  0.11455781238515773  1.0000
  O   O21       1.0  0.9601801444250525  0.37384403879724437  0.9743221950494669  1.0000
  O   O22       1.0  0.03962318498142276  0.6145422460567715  0.8458200935809754  1.0000
  O   O23       1.0  0.039788661144001446  0.474308142365878  0.8738584851002782  1.0000
  O   O24       1.0  0.9603656359826331  0.6145481201322269  0.9250856864520143  1.0000
  O   O25       1.0  0.15183742855495544  0.5655218586535469  0.974299906384928  1.0000
  O   O26       1.0  0.1518251057347086  0.5863069112287533  0.873849894289428  1.0000
