data_image0
_chemical_formula_structural       Ag4H32C20N16O12
_chemical_formula_sum              "Ag4 H32 C20 N16 O12"
_cell_length_a       5.332600439087302
_cell_length_b       12.296750406432478
_cell_length_c       13.225096125595039
_cell_angle_alpha    89.99894332055565
_cell_angle_beta     89.99985222923425
_cell_angle_gamma    100.39814496133195

_space_group_name_H-M_alt    "P 1"
_space_group_IT_number       1

loop_
  _space_group_symop_operation_xyz
  'x, y, z'

loop_
  _atom_site_type_symbol
  _atom_site_label
  _atom_site_symmetry_multiplicity
  _atom_site_fract_x
  _atom_site_fract_y
  _atom_site_fract_z
  _atom_site_occupancy
  Ag  Ag1       1.0  0.9172741543567826  0.8031567349202646  0.3034836626363884  1.0000
  Ag  Ag2       1.0  0.08270230429626926  0.6968395049649703  0.8034965059174936  1.0000
  Ag  Ag3       1.0  0.0826983844563642  0.1968443007393503  0.696500539751632  1.0000
  Ag  Ag4       1.0  0.9173012283050144  0.30316465158897904  0.19649903850005046  1.0000
  H   H1        1.0  0.2964343092353303  0.7306099486285048  0.1213914185282761  1.0000
  H   H2        1.0  0.7035372236228952  0.7693956112652812  0.6214053856457582  1.0000
  H   H3        1.0  0.7035369671240306  0.26938695783384503  0.878601101416528  1.0000
  H   H4        1.0  0.2964345652246082  0.23061525361785581  0.37859847624878995  1.0000
  H   H5        1.0  0.27795119856774875  0.5080067596178283  0.0694965952212101  1.0000
  H   H6        1.0  0.7220401399385495  0.9919945280337646  0.5695005853689068  1.0000
  H   H7        1.0  0.7220345686190017  0.49199455749896964  0.9304966808157146  1.0000
  H   H8        1.0  0.2779675471547236  0.008004794289256299  0.4304911783981353  1.0000
  H   H9        1.0  0.5076688396129114  0.4711832774276347  0.2609540121727392  1.0000
  H   H10       1.0  0.4923399888164895  0.028802415759322696  0.7609512455935812  1.0000
  H   H11       1.0  0.492349421001478  0.5288015017403751  0.7390498499274045  1.0000
  H   H12       1.0  0.5076380891838995  0.9711921740752559  0.23904581119715826  1.0000
  H   H13       1.0  0.6052647359200805  0.6006016779861411  0.3246990550696437  1.0000
  H   H14       1.0  0.39473306164581595  0.8993789988372853  0.8246876106744307  1.0000
  H   H15       1.0  0.3947696527179971  0.39938672609564213  0.6753191736157901  1.0000
  H   H16       1.0  0.6052322851480483  0.10060465405931748  0.1753230567058495  1.0000
  H   H17       1.0  0.5783190482161659  0.44397106893254795  0.44334759674303104  1.0000
  H   H18       1.0  0.42170617018921774  0.05601210578158341  0.943339886769344  1.0000
  H   H19       1.0  0.4217270465034063  0.5560003550437145  0.5566539970458209  1.0000
  H   H20       1.0  0.578258059639964  0.9439985983398884  0.05665187691968039  1.0000
  H   H21       1.0  0.7875444880954134  0.38177082835417764  0.3704033879306791  1.0000
  H   H22       1.0  0.21248675374625492  0.11822379479602323  0.8703963089725377  1.0000
  H   H23       1.0  0.21251232556000588  0.6182172327882468  0.6295929127394827  1.0000
  H   H24       1.0  0.7874772236562537  0.8817860835729691  0.1295886494803256  1.0000
  H   H25       1.0  0.9367930178038933  0.6121885442648249  0.4676709037407106  1.0000
  H   H26       1.0  0.06319809418850036  0.8878112514924581  0.9676736077596216  1.0000
  H   H27       1.0  0.06322814254641429  0.3877995784762618  0.5323269092232437  1.0000
  H   H28       1.0  0.936756434338122  0.1121984257846549  0.032309838423437  1.0000
  H   H29       1.0  0.1436782892656865  0.539646254312082  0.4025684444036628  1.0000
  H   H30       1.0  0.8563408923320066  0.9603513530447784  0.9025600003356969  1.0000
  H   H31       1.0  0.8563495502781961  0.4603452923130362  0.5974361737703973  1.0000
  H   H32       1.0  0.14363291645528165  0.03966611857261881  0.0974287387363901  1.0000
  C   C1        1.0  0.17287568113609095  0.6567657624843973  0.14843919167708458  1.0000
  C   C2        1.0  0.8271271862073776  0.8432325335820394  0.6484358584223101  1.0000
  C   C3        1.0  0.8271292285256565  0.3432244755596018  0.8515752563162592  1.0000
  C   C4        1.0  0.17286601751592204  0.1567746847616291  0.3515763210133328  1.0000
  C   C5        1.0  0.16377087468826798  0.5465623867827746  0.1215745747095269  1.0000
  C   C6        1.0  0.8362462626410192  0.953444960630037  0.6215745898136475  1.0000
  C   C7        1.0  0.8362296357468252  0.45344416673318483  0.8784270187938714  1.0000
  C   C8        1.0  0.1637539876868388  0.04654846015547069  0.37842851608153427  1.0000
  C   C9        1.0  0.6638226922075674  0.5230876263782703  0.3018560158536232  1.0000
  C   C10       1.0  0.3361797355192806  0.9768952516814551  0.8018515867988397  1.0000
  C   C11       1.0  0.3362050172769813  0.47689735387385923  0.6981501146545029  1.0000
  C   C12       1.0  0.6638001098225743  0.023105118901931097  0.19814622607841406  1.0000
  C   C13       1.0  0.7458616443451193  0.4629520912819131  0.3935314505205411  1.0000
  C   C14       1.0  0.25416067846443735  0.037038592626643704  0.8935234867782851  1.0000
  C   C15       1.0  0.2541785361528994  0.5370306930612543  0.6064739238624026  1.0000
  C   C16       1.0  0.74581791214424  0.9629699557918201  0.1064690330605913  1.0000
  C   C17       1.0  0.972211092670378  0.5284601191290649  0.4509329903644356  1.0000
  C   C18       1.0  0.027797028217911017  0.9715395567063678  0.9509266983479137  1.0000
  C   C19       1.0  0.02780767288318483  0.4715263116603835  0.5490731401354622  1.0000
  C   C20       1.0  0.9721809350442003  0.0284730806568092  0.04906052848817669  1.0000
  N   N1        1.0  0.8705729896955817  0.5558311731905902  0.2293986837350913  1.0000
  N   N2        1.0  0.12942826985089065  0.9441580676418864  0.7294010874265737  1.0000
  N   N3        1.0  0.12944237890349092  0.44416256943667787  0.7705976169060946  1.0000
  N   N4        1.0  0.8705534652798691  0.0558423431785116  0.27059521317303137  1.0000
  N   N5        1.0  0.9867859320340604  0.6604325606597355  0.21635356701796124  1.0000
  N   N6        1.0  0.013189198106523551  0.8395629514011914  0.7163549003609192  1.0000
  N   N7        1.0  0.013189498720016964  0.339559511439667  0.7836480266252508  1.0000
  N   N8        1.0  0.9868071578365805  0.16044843634569617  0.28365047379297437  1.0000
  N   N9        1.0  0.9731547899177148  0.4847055016298967  0.17410816499859993  1.0000
  N   N10       1.0  0.0268825747421815  0.0152973229019722  0.6741076178127798  1.0000
  N   N11       1.0  0.026892712533054863  0.5153012316784215  0.8258858670977886  1.0000
  N   N12       1.0  0.9731091143123508  0.9847049407793022  0.3258780968311328  1.0000
  N   N13       1.0  0.4411332047289846  0.7908316205999029  0.4309938593935314  1.0000
  N   N14       1.0  0.5588578350870677  0.7091730176318906  0.9309772723301818  1.0000
  N   N15       1.0  0.5588788966373671  0.20917599977997983  0.5690357112069862  1.0000
  N   N16       1.0  0.44113360139202484  0.2908284200949964  0.06902129667002299  1.0000
  O   O1        1.0  0.6185784640218658  0.7363332923577134  0.4500338075363075  1.0000
  O   O2        1.0  0.38140648816365536  0.7636642676115599  0.9500308091875098  1.0000
  O   O3        1.0  0.3814208988407515  0.2636510846265381  0.5499670300242201  1.0000
  O   O4        1.0  0.6185717198617412  0.23633688854941687  0.04996927209818838  1.0000
  O   O5        1.0  0.4133828645350732  0.8213410198317845  0.339815440247733  1.0000
  O   O6        1.0  0.5866173742588715  0.6786787847588444  0.8398129713150269  1.0000
  O   O7        1.0  0.5866331541890447  0.17868555442745296  0.6601959828682666  1.0000
  O   O8        1.0  0.41338515599586145  0.32133437532829134  0.1601893782675106  1.0000
  O   O9        1.0  0.29815768696007433  0.8140832534544272  0.5000185564899766  1.0000
  O   O10       1.0  0.7018486890308538  0.6859222205567761  4.208850924699999e-06  1.0000
  O   O11       1.0  0.7019169071505829  0.18593226064620447  0.5000057210424912  1.0000
  O   O12       1.0  0.29812032261970955  0.314079560365748  0.9999913356049034  1.0000
