data_image0
_chemical_formula_structural       Mn2H26C30N2O16
_chemical_formula_sum              "Mn2 H26 C30 N2 O16"
_cell_length_a       7.735998417100507
_cell_length_b       10.081669079203818
_cell_length_c       11.602201603965792
_cell_angle_alpha    66.71060988310794
_cell_angle_beta     76.15712381240412
_cell_angle_gamma    71.41220417097061

_space_group_name_H-M_alt    "P 1"
_space_group_IT_number       1

loop_
  _space_group_symop_operation_xyz
  'x, y, z'

loop_
  _atom_site_type_symbol
  _atom_site_label
  _atom_site_symmetry_multiplicity
  _atom_site_fract_x
  _atom_site_fract_y
  _atom_site_fract_z
  _atom_site_occupancy
  Mn  Mn1       1.0  0.8554975476628427  0.9087684152192422  0.9396343953865769  1.0000
  Mn  Mn2       1.0  0.14449957621548035  0.0912349957966256  0.060365999870178745  1.0000
  H   H1        1.0  0.1416655597035614  0.5430098739946417  0.06643430082655045  1.0000
  H   H2        1.0  0.8583353055963482  0.45699462646577166  0.9335608432110195  1.0000
  H   H3        1.0  0.6146169196883661  0.2036503261331006  0.21699777388050742  1.0000
  H   H4        1.0  0.3853815347141704  0.7963530870867358  0.783002419731304  1.0000
  H   H5        1.0  0.5543034758053973  0.6650043508099373  0.165153479337704  1.0000
  H   H6        1.0  0.44569158183343655  0.33500130251135113  0.8348481772466843  1.0000
  H   H7        1.0  0.8571892879693548  0.2680971014432458  0.25961367868227836  1.0000
  H   H8        1.0  0.14280267433620245  0.7319018029636766  0.7403847427461587  1.0000
  H   H9        1.0  0.8827245976330288  0.44940441785867336  0.16089571007697862  1.0000
  H   H10       1.0  0.11727563720440773  0.5505934037987146  0.8391044223909535  1.0000
  H   H11       1.0  0.8579605152234605  0.6230121477009547  0.24030722541905913  1.0000
  H   H12       1.0  0.1420438324751884  0.37698119591593837  0.7596912470812145  1.0000
  H   H13       1.0  0.7327631247577243  0.5314769600168532  0.6414798896644317  1.0000
  H   H14       1.0  0.26724269836338976  0.46852422628376894  0.3585190987276052  1.0000
  H   H15       1.0  0.6720578700814884  0.28814143965544753  0.6657093597943844  1.0000
  H   H16       1.0  0.32793995027657996  0.7118597399917164  0.33429170115491075  1.0000
  H   H17       1.0  0.704771355829891  0.23097416913886804  0.4667796886844544  1.0000
  H   H18       1.0  0.2952261198702929  0.7690236809622986  0.5332251605114565  1.0000
  H   H19       1.0  0.7562300111606676  0.8680024505684258  0.19521648525003607  1.0000
  H   H20       1.0  0.24377214900992064  0.13199762000628107  0.80478430361071  1.0000
  H   H21       1.0  0.5782581808199578  0.9708903847643953  0.1292747951182351  1.0000
  H   H22       1.0  0.4217425275378445  0.029114168258750798  0.870727250420288  1.0000
  H   H23       1.0  0.04899061031682087  0.03927308543955381  0.7060689645058958  1.0000
  H   H24       1.0  0.9510139054798403  0.9607236468564012  0.2939334839363427  1.0000
  H   H25       1.0  0.8998733268727506  0.9746679113066956  0.6832804756078378  1.0000
  H   H26       1.0  0.10012238801029841  0.0253355237865733  0.3167235720443316  1.0000
  C   C1        1.0  0.2251900471949781  0.7773676430724308  0.08127144962439563  1.0000
  C   C2        1.0  0.7748094875807111  0.22263685518402093  0.9187238960581116  1.0000
  C   C3        1.0  0.3327466017715892  0.617969790421057  0.11939804607207107  1.0000
  C   C4        1.0  0.6672479591471187  0.38203358333517906  0.8805984390364688  1.0000
  C   C5        1.0  0.26840196724145926  0.5100315380865439  0.10727256445945701  1.0000
  C   C6        1.0  0.7315939242014622  0.4899718378736536  0.8927237190041457  1.0000
  C   C7        1.0  0.36893127383987695  0.36102115381174116  0.14301995343790005  1.0000
  C   C8        1.0  0.6310672197981829  0.6389822462674102  0.8569785147986767  1.0000
  C   C9        1.0  0.30438348365493084  0.2503077379003145  0.11923148115556614  1.0000
  C   C10       1.0  0.6956226680883048  0.7496923392862911  0.8807687027703611  1.0000
  C   C11       1.0  0.5355169737735039  0.31981499185387463  0.1911746067510833  1.0000
  C   C12       1.0  0.46448148062903255  0.6801884213659619  0.8088255868607352  1.0000
  C   C13       1.0  0.6042227740820182  0.4285969419808779  0.19817552857926307  1.0000
  C   C14       1.0  0.39577205660550874  0.5714053423723654  0.8018247401260229  1.0000
  C   C15       1.0  0.5022426288259539  0.5773942463716537  0.16290526583936332  1.0000
  C   C16       1.0  0.4977528555238066  0.42261026498392334  0.837093272840818  1.0000
  C   C17       1.0  0.7920991114760695  0.3878533664100203  0.23695382569373893  1.0000
  C   C18       1.0  0.20790012145926073  0.6121433439293894  0.7630477039530207  1.0000
  C   C19       1.0  0.8148726186626902  0.5553592153215021  0.3362301143742102  1.0000
  C   C20       1.0  0.18512702136580125  0.44463635962253517  0.6637691600559638  1.0000
  C   C21       1.0  0.7963012385975003  0.5964201415180028  0.44054101143403585  1.0000
  C   C22       1.0  0.20370073743929845  0.4035721017176215  0.5594607852652519  1.0000
  C   C23       1.0  0.7427554984149933  0.5001810843835982  0.5599706039008016  1.0000
  C   C24       1.0  0.25724739747087  0.4998167416817196  0.44002912527724924  1.0000
  C   C25       1.0  0.7081537623887256  0.3670255260793808  0.5729048167519583  1.0000
  C   C26       1.0  0.2918471689284559  0.632970064209303  0.4270959814085131  1.0000
  C   C27       1.0  0.7281388916422027  0.33244040604756003  0.46559511267095405  1.0000
  C   C28       1.0  0.2718580088668008  0.6675551907699101  0.534408015799578  1.0000
  C   C29       1.0  0.8423033979965098  0.7383877382199273  0.42740647951857363  1.0000
  C   C30       1.0  0.15770378243057334  0.2616045532536049  0.5725996867266689  1.0000
  N   N1        1.0  0.7800609399613021  0.42636978419948685  0.3501652116230007  1.0000
  N   N2        1.0  0.21993966631576006  0.5736224699728538  0.6498385120964658  1.0000
  O   O1        1.0  0.1055206676730336  0.8193329502790546  0.007330410828188963  1.0000
  O   O2        1.0  0.8944855357595073  0.18067599765724648  0.9926589428491187  1.0000
  O   O3        1.0  0.2631966265338903  0.8613022983276579  0.12468567295766071  1.0000
  O   O4        1.0  0.7367961182963825  0.13870223490134487  0.8753167197628787  1.0000
  O   O5        1.0  0.3852882965479266  0.1119704350049346  0.15812761923941576  1.0000
  O   O6        1.0  0.6147168889467384  0.8880329629533674  0.8418681153972261  1.0000
  O   O7        1.0  0.16662245882588414  0.3005703541790367  0.057101081902594344  1.0000
  O   O8        1.0  0.8333760972474592  0.6994285809587453  0.9428989193640054  1.0000
  O   O9        1.0  0.8683815558176347  0.8284121004178927  0.31300892771781735  1.0000
  O   O10       1.0  0.1316290570266858  0.1715823830438623  0.6869899290867355  1.0000
  O   O11       1.0  0.8565755232315342  0.753427153240949  0.5259772991650425  1.0000
  O   O12       1.0  0.1434228879435508  0.24656394141706528  0.47402198456484984  1.0000
  O   O13       1.0  0.6881473398986059  0.8884698552341206  0.12391583162109768  1.0000
  O   O14       1.0  0.3118537363168271  0.111533575534331  0.8760856840760812  1.0000
  O   O15       1.0  0.9956400305483583  0.9487305327790451  0.7353364380365836  1.0000
  O   O16       1.0  0.004356380814435605  0.05127067094551309  0.2646682753081323  1.0000
