data_image0
_chemical_formula_structural       Zn3H14C12O16
_chemical_formula_sum              "Zn3 H14 C12 O16"
_cell_length_a       6.683471559581822
_cell_length_b       6.961958828124711
_cell_length_c       9.72267956799775
_cell_angle_alpha    85.21981302741649
_cell_angle_beta     77.29998667852325
_cell_angle_gamma    80.70748202277551

_space_group_name_H-M_alt    "P 1"
_space_group_IT_number       1

loop_
  _space_group_symop_operation_xyz
  'x, y, z'

loop_
  _atom_site_type_symbol
  _atom_site_label
  _atom_site_symmetry_multiplicity
  _atom_site_fract_x
  _atom_site_fract_y
  _atom_site_fract_z
  _atom_site_occupancy
  Zn  Zn1       1.0  1.183736074497795e-06  0.9999992492524685  0.9999996056394022  1.0000
  Zn  Zn2       1.0  0.5550455906562988  0.2264385567679952  0.6694423718099286  1.0000
  Zn  Zn3       1.0  0.4449595433969833  0.7735636108260099  0.3305588540617349  1.0000
  H   H1        1.0  0.10439727471778332  0.4082853072435099  0.3707674584602286  1.0000
  H   H2        1.0  0.8956037645180573  0.5917139135521977  0.6292273561737785  1.0000
  H   H3        1.0  0.933374856978773  0.5440459638561136  0.2747869329116313  1.0000
  H   H4        1.0  0.0666210952964974  0.4559561707694471  0.7252125762436135  1.0000
  H   H5        1.0  0.18237944672437578  0.5195153633685622  0.056376292889361  1.0000
  H   H6        1.0  0.817616499940442  0.4804867741252893  0.9436242454578404  1.0000
  H   H7        1.0  0.37924626857606825  0.370249266305791  0.12298070345857329  1.0000
  H   H8        1.0  0.620749428650349  0.6297543370621669  0.8770228686263406  1.0000
  H   H9        1.0  0.2900385017625808  0.0441804157822574  0.6086779428290896  1.0000
  H   H10       1.0  0.7099640088597994  0.9558188406252768  0.39132796443984563  1.0000
  H   H11       1.0  0.3493315547092237  0.18576032797366793  0.47760873235124984  1.0000
  H   H12       1.0  0.6506727272321984  0.8142374723569361  0.5223959710873058  1.0000
  H   H13       1.0  0.796326812412289  0.22646322717839243  0.19382997265218188  1.0000
  H   H14       1.0  0.20367339154307737  0.773531617749036  0.806165231972855  1.0000
  C   C1        1.0  0.8047413724765704  0.31628801950519403  0.4080476357767536  1.0000
  C   C2        1.0  0.19525941732087668  0.6837126671646274  0.591950212594959  1.0000
  C   C3        1.0  0.9874830688341946  0.3941797251049266  0.31051805075215805  1.0000
  C   C4        1.0  0.012512059381513991  0.605818027915767  0.6894797900102033  1.0000
  C   C5        1.0  0.07900813945511231  0.26975348247383124  0.18203956460111204  1.0000
  C   C6        1.0  0.9209852118310878  0.7302457294920756  0.817960509183585  1.0000
  C   C7        1.0  0.24410193172791136  0.3662124249023294  0.07654138133455039  1.0000
  C   C8        1.0  0.7558955592593859  0.6337897109155293  0.9234568701521652  1.0000
  C   C9        1.0  0.32179305506080164  0.27581478861804243  0.9342462264384749  1.0000
  C   C10       1.0  0.6782046404812332  0.7241859042720551  0.06575722484616622  1.0000
  C   C11       1.0  0.17395688555765076  0.0621618371374879  0.227938639362975  1.0000
  C   C12       1.0  0.8260454317309038  0.9378388564612196  0.7720600097241215  1.0000
  O   O1        1.0  0.7091476937171349  0.20069261069016872  0.3600665215969272  1.0000
  O   O2        1.0  0.29085072208781076  0.7993036989190685  0.6399329744343518  1.0000
  O   O3        1.0  0.752430628506488  0.37199022044819696  0.5344486216784219  1.0000
  O   O4        1.0  0.2475688495755151  0.6280090106283893  0.46555156739193365  1.0000
  O   O5        1.0  0.273020922955638  0.1171307462248024  0.9060245457599618  1.0000
  O   O6        1.0  0.7269793904068393  0.8828728607200561  0.09397525331935701  1.0000
  O   O7        1.0  0.4434223632769872  0.37095512790281765  0.842320350844936  1.0000
  O   O8        1.0  0.5565847522605338  0.6290441378182124  0.15768384180231723  1.0000
  O   O9        1.0  0.29706740156200334  0.049821419406960395  0.3137206957484436  1.0000
  O   O10       1.0  0.7029423654587036  0.9501807431590735  0.6862736695417623  1.0000
  O   O11       1.0  0.1327959238710932  0.9156050179713732  0.17747281944843243  1.0000
  O   O12       1.0  0.8671987110782736  0.08439566392924289  0.8225300595974043  1.0000
  O   O13       1.0  0.9128412999534844  0.2539996645507614  0.11149460876241334  1.0000
  O   O14       1.0  0.08715712707237343  0.7459966393218878  0.8885028288849522  1.0000
  O   O15       1.0  0.3179276260766244  0.18014443386007878  0.5814253753172735  1.0000
  O   O16       1.0  0.6820731300580788  0.8198562700194997  0.4185786482061714  1.0000
