data_image0
_chemical_formula_structural       Al4H32C59N2O25
_chemical_formula_sum              "Al4 H32 C59 N2 O25"
_cell_length_a       6.675505822605208
_cell_length_b       22.53981133605735
_cell_length_c       25.13742233157696
_cell_angle_alpha    107.8251774723311
_cell_angle_beta     89.37996984783919
_cell_angle_gamma    89.96746753463161

_space_group_name_H-M_alt    "P 1"
_space_group_IT_number       1

loop_
  _space_group_symop_operation_xyz
  'x, y, z'

loop_
  _atom_site_type_symbol
  _atom_site_label
  _atom_site_symmetry_multiplicity
  _atom_site_fract_x
  _atom_site_fract_y
  _atom_site_fract_z
  _atom_site_occupancy
  Al  Al1       1.0  0.14819444390978734  0.500662859808081  0.5004414335840865  1.0000
  Al  Al2       1.0  0.6500962834897378  0.501097472257598  0.4999078232008928  1.0000
  Al  Al3       1.0  0.6705772415861375  0.0009672868900381002  0.9989020670860004  1.0000
  Al  Al4       1.0  0.16878167979060518  0.0005174152305542991  0.9989646894798271  1.0000
  H   H1        1.0  0.6100904235029816  0.08611009319913168  0.8818213287846817  1.0000
  H   H2        1.0  0.5856634459451301  0.1464749416081688  0.8157537828920596  1.0000
  H   H3        1.0  0.2177279654168132  0.18717246339490154  0.8368032169240038  1.0000
  H   H4        1.0  0.18990108620935334  0.184658751410872  0.7483745617771831  1.0000
  H   H5        1.0  0.1855319659946275  0.25121204520958423  0.6873036502661948  1.0000
  H   H6        1.0  0.5889943151723004  0.3135008784595002  0.7460358263870221  1.0000
  H   H7        1.0  0.5928998241836895  0.24637549331365696  0.8068983882162328  1.0000
  H   H8        1.0  0.5713943034962838  0.31928221238391075  0.6579569099867939  1.0000
  H   H9        1.0  0.5779571623160109  0.3860481311569188  0.5953139902201557  1.0000
  H   H10       1.0  0.21083062518250983  0.4125568304092015  0.6199567571523802  1.0000
  H   H11       1.0  0.20543322674583211  0.3485194087767028  0.6848523069207675  1.0000
  H   H12       1.0  0.13904123650807781  0.8763816719933575  0.20952184884767902  1.0000
  H   H13       1.0  0.6932383712462311  0.7904210935265468  0.133437739052539  1.0000
  H   H14       1.0  0.692959139274855  0.8584529093805955  0.07231957202505157  1.0000
  H   H15       1.0  0.7322173526987471  0.7890056771752256  0.22427788345959954  1.0000
  H   H16       1.0  0.7256387429160824  0.723165753424013  0.2866682977115859  1.0000
  H   H17       1.0  0.08396744748623061  0.7092920170154997  0.27218619888174095  1.0000
  H   H18       1.0  0.09043380470404828  0.7750805830478669  0.20992520705159026  1.0000
  H   H19       1.0  0.1229323669600646  0.7138826603194772  0.36442369327261304  1.0000
  H   H20       1.0  0.6711356691567616  0.5637947354735503  0.36043885445865703  1.0000
  H   H21       1.0  0.6764577037313944  0.6235652383716542  0.2924244059057984  1.0000
  H   H22       1.0  0.4574322590106448  0.13750039633609393  0.9703710436244608  1.0000
  H   H23       1.0  0.201977568302361  0.1580784280747949  0.9866813347171118  1.0000
  H   H24       1.0  0.49681249816682543  0.22870556159667635  0.9336624275929923  1.0000
  H   H25       1.0  0.2438293376691547  0.2503561066092033  0.9514304925571865  1.0000
  H   H26       1.0  0.3185598729686063  0.26499964076549526  0.0535248357130698  1.0000
  H   H27       1.0  0.47335444502159874  0.31334183914646735  0.026439120684223407  1.0000
  H   H28       1.0  0.5718408470519663  0.24382760429323722  0.035320517527189614  1.0000
  H   H29       1.0  0.4002801519838216  0.4201005070219637  0.47144539306663813  1.0000
  H   H30       1.0  0.9012883679821329  0.5829423897966564  0.5113928095795047  1.0000
  H   H31       1.0  0.4168166195865338  0.0770525869600789  0.038273368120584905  1.0000
  H   H32       1.0  0.9205466783533963  0.9191022208111121  0.9720366633371855  1.0000
  C   C1        1.0  0.3999803801533517  0.5874362470934501  0.5845956900147088  1.0000
  C   C2        1.0  0.39440058006761797  0.5637221896874254  0.4377117083002845  1.0000
  C   C3        1.0  0.8984452395463834  0.41370359297617654  0.41459471624475713  1.0000
  C   C4        1.0  0.9003980302481195  0.43994858009093457  0.5637954796107537  1.0000
  C   C5        1.0  0.7430707727177079  0.10878740685311776  0.8719673360687497  1.0000
  C   C6        1.0  0.7295110612271146  0.14310672330838511  0.8347303664720872  1.0000
  C   C7        1.0  0.9001056341146593  0.17213425055794573  0.8208249523024096  1.0000
  C   C8        1.0  0.08219896466312798  0.16450165487212592  0.8452194672149178  1.0000
  C   C9        1.0  0.09753081985686411  0.1301150326313945  0.8827050437899332  1.0000
  C   C10       1.0  0.9248083642116357  0.1016352617947121  0.8972011534321214  1.0000
  C   C11       1.0  0.058532264855756494  0.21362319122774662  0.7487802002827452  1.0000
  C   C12       1.0  0.05628441773941261  0.2514233601310281  0.7142981496570826  1.0000
  C   C13       1.0  0.8877074426816095  0.2881289375878423  0.7121861546235381  1.0000
  C   C14       1.0  0.7204930056322069  0.2845625793343487  0.7456406580083765  1.0000
  C   C15       1.0  0.7225727279618255  0.2465476547808478  0.7801106441163841  1.0000
  C   C16       1.0  0.8923043758104043  0.21057212241662168  0.7827528953002061  1.0000
  C   C17       1.0  0.7115569337994713  0.34060706509539784  0.6507322495206509  1.0000
  C   C18       1.0  0.7143185889418576  0.3773687071476246  0.6152692515407311  1.0000
  C   C19       1.0  0.8949387629655805  0.4028658043650992  0.6035724928071745  1.0000
  C   C20       1.0  0.07171900726507369  0.39187983543197913  0.6287858081286332  1.0000
  C   C21       1.0  0.06782730934066447  0.35554948570214157  0.6645449706143723  1.0000
  C   C22       1.0  0.8883442331562748  0.3285416189878632  0.6757883307860413  1.0000
  C   C23       1.0  0.9142040861460929  0.13585167335638462  0.13773617715664702  1.0000
  C   C24       1.0  0.9139865563013174  0.17935245754313203  0.18130800537035444  1.0000
  C   C25       1.0  0.9130352923942127  0.22707196888098474  0.22882525268860832  1.0000
  C   C26       1.0  0.910951209164864  0.27127441399616004  0.2723588744696174  1.0000
  C   C27       1.0  0.9079366025324447  0.3192146948678598  0.31974543436454184  1.0000
  C   C28       1.0  0.9038714199096916  0.3629674164337687  0.363172006056061  1.0000
  C   C29       1.0  0.3975902258862973  0.6384177318417275  0.6358685596618445  1.0000
  C   C30       1.0  0.4022614062625962  0.6821185579290159  0.6792530167930836  1.0000
  C   C31       1.0  0.4085583134829634  0.7298658371438407  0.7267095550039147  1.0000
  C   C32       1.0  0.4153411470839928  0.773881149278303  0.7702877029091724  1.0000
  C   C33       1.0  0.4210733674680469  0.8216287345859355  0.8177389705255892  1.0000
  C   C34       1.0  0.4255657431716529  0.8652329529455969  0.8612306949656701  1.0000
  C   C35       1.0  0.264276985304015  0.9082173819768613  0.1444962409764017  1.0000
  C   C36       1.0  0.25995473117576035  0.8702996776225547  0.17884902978482844  1.0000
  C   C37       1.0  0.4148524518760652  0.8271246875694515  0.17567476736837762  1.0000
  C   C38       1.0  0.5716676086250561  0.8238057927265318  0.13711673317119732  1.0000
  C   C39       1.0  0.5720729011459512  0.8615321905385257  0.10248849791198471  1.0000
  C   C40       1.0  0.41741478818918404  0.9042521018831592  0.10493524875129613  1.0000
  C   C41       1.0  0.5897886051353538  0.770564118116006  0.23380508546792805  1.0000
  C   C42       1.0  0.5861281411964326  0.7334162955696827  0.26897033887519944  1.0000
  C   C43       1.0  0.4043546944862656  0.7112060802145875  0.2841445554381822  1.0000
  C   C44       1.0  0.22655652647686253  0.7273351159402992  0.2623691381435905  1.0000
  C   C45       1.0  0.23014521189921314  0.76449385727436  0.22728496046487842  1.0000
  C   C46       1.0  0.4117633086969406  0.7870745629872786  0.21238979051479834  1.0000
  C   C47       1.0  0.24274082911834682  0.6801995132602344  0.3615922611917811  1.0000
  C   C48       1.0  0.24296699702782118  0.6462259913374099  0.3993129147198006  1.0000
  C   C49       1.0  0.3958709668984072  0.6037543860106142  0.3998955285382025  1.0000
  C   C50       1.0  0.5514634979003291  0.5967605357882633  0.3606868920931562  1.0000
  C   C51       1.0  0.5539745286232147  0.6306695717549148  0.3228021445496624  1.0000
  C   C52       1.0  0.40030290881713876  0.6733007319209392  0.3227278352287116  1.0000
  C   C53       1.0  0.4156645574474993  0.939143755114756  0.06295304321440658  1.0000
  C   C54       1.0  0.4253322356053175  0.9157214880478793  0.9127126886756688  1.0000
  C   C55       1.0  0.9252122576705873  0.0640909350450158  0.9367512116434968  1.0000
  C   C56       1.0  0.9144702387766442  0.08566758765081771  0.08604666846721903  1.0000
  C   C57       1.0  0.328091706573339  0.1609899706536524  0.9589755011492971  1.0000
  C   C58       1.0  0.3756853302907431  0.22836382928326063  0.9636428177403717  1.0000
  C   C59       1.0  0.43808663795381614  0.2647251079857186  0.02296408164260551  1.0000
  N   N1        1.0  0.1063783528730369  0.9565945033809625  0.1551166091046666  1.0000
  N   N2        1.0  0.07984251482618991  0.6604447221254618  0.44149051673887413  1.0000
  O   O1        1.0  0.5636167658354979  0.5534400406136869  0.4558702013034762  1.0000
  O   O2        1.0  0.23204551922874833  0.5704239306856351  0.5616576538957008  1.0000
  O   O3        1.0  0.07136024103089511  0.45842229038139953  0.5523016591516737  1.0000
  O   O4        1.0  0.225511216042122  0.542715989021531  0.4469523245559374  1.0000
  O   O5        1.0  0.0656834274780635  0.4298848394547932  0.4384703432654007  1.0000
  O   O6        1.0  0.5715110668412963  0.5646703291751578  0.5671151293397472  1.0000
  O   O7        1.0  0.3998423664693007  0.4635266757631911  0.4940004675477496  1.0000
  O   O8        1.0  0.7266236596792055  0.43699955986968325  0.43130603003325524  1.0000
  O   O9        1.0  0.734379691722836  0.44947633523016606  0.5430133517534941  1.0000
  O   O10       1.0  0.8992400684732332  0.5380946036117678  0.5041030114410604  1.0000
  O   O11       1.0  0.25463597154807627  0.9337891499100623  0.9347818647217354  1.0000
  O   O12       1.0  0.5854029945935723  0.9493025446592539  0.044190629269046135  1.0000
  O   O13       1.0  0.7443254605937142  0.06471480959445591  0.06685733765117871  1.0000
  O   O14       1.0  0.5951959538521264  0.9371772566603911  0.9317809862258531  1.0000
  O   O15       1.0  0.7543490920954313  0.05227571439230161  0.9547818770486389  1.0000
  O   O16       1.0  0.2447298211992006  0.9525716895110818  0.047825620375270717  1.0000
  O   O17       1.0  0.41916581614133713  0.0384113289685146  0.0075580669632416015  1.0000
  O   O18       1.0  0.09311892107108832  0.046786672014150106  0.9506353226020111  1.0000
  O   O19       1.0  0.08495190658661039  0.0676831491482943  0.06376221488797282  1.0000
  O   O20       1.0  0.9194461659801263  0.9629071323381452  0.9933709860848625  1.0000
  O   O21       1.0  0.1603759135587879  0.0110829282622902  0.1636688563621291  1.0000
  O   O22       1.0  0.9312869311393328  0.9390417765178396  0.15727577845456858  1.0000
  O   O23       1.0  0.9092670069568526  0.6663316344648395  0.4245931003497391  1.0000
  O   O24       1.0  0.1235888399265761  0.6672518143748434  0.490722921952866  1.0000
  O   O25       1.0  0.28545359269346443  0.12467719547476011  0.902087069850822  1.0000
