data_image0
_chemical_formula_structural       Co4H48C60N20O24
_chemical_formula_sum              "Co4 H48 C60 N20 O24"
_cell_length_a       10.758113715837652
_cell_length_b       15.811254194300922
_cell_length_c       15.811178642843883
_cell_angle_alpha    95.90389411077653
_cell_angle_beta     103.06424216220036
_cell_angle_gamma    103.0638877138861

_space_group_name_H-M_alt    "P 1"
_space_group_IT_number       1

loop_
  _space_group_symop_operation_xyz
  'x, y, z'

loop_
  _atom_site_type_symbol
  _atom_site_label
  _atom_site_symmetry_multiplicity
  _atom_site_fract_x
  _atom_site_fract_y
  _atom_site_fract_z
  _atom_site_occupancy
  Co  Co1       1.0  0.04602231822691039  0.7717183437340366  0.9343254421119409  1.0000
  Co  Co2       1.0  0.5460243883520447  0.9343240618491249  0.7717172154950588  1.0000
  Co  Co3       1.0  0.2776968710731181  0.25975480498046  0.4220994148474944  1.0000
  Co  Co4       1.0  0.7776957288368607  0.4220985679663443  0.259753383254008  1.0000
  H   H1        1.0  0.8268082417093509  0.9372960766380131  0.7705555247477419  1.0000
  H   H2        1.0  0.3268005677250941  0.7705569208093834  0.937297424337828  1.0000
  H   H3        1.0  0.7477957578026704  0.7153636074239884  0.8693381313275238  1.0000
  H   H4        1.0  0.24779458433229704  0.8693336831179365  0.7153668890661818  1.0000
  H   H5        1.0  0.17185608204130176  0.07819689444053067  0.31713613141457836  1.0000
  H   H6        1.0  0.6718594571110116  0.3171330560568179  0.0781990518956732  1.0000
  H   H7        1.0  0.2773049780036274  0.13936617173206398  0.557741298719641  1.0000
  H   H8        1.0  0.7773044626868854  0.557743703589729  0.13936686908606077  1.0000
  H   H9        1.0  0.12119600567351088  0.060887198502648184  0.6322708753868156  1.0000
  H   H10       1.0  0.6211932875051005  0.6322735871951792  0.06088781469646414  1.0000
  H   H11       1.0  0.0011145868794812963  0.26117914459248226  0.4292537830764401  1.0000
  H   H12       1.0  0.5011159104700553  0.4292535698837412  0.26117764973758983  1.0000
  H   H13       1.0  0.44521011297109686  0.45396029550065015  0.7297084115730427  1.0000
  H   H14       1.0  0.9452104850027608  0.7297058913848884  0.45395979795578967  1.0000
  H   H15       1.0  0.5753510639784948  0.5985005478114472  0.7661248186367544  1.0000
  H   H16       1.0  0.07535076888129312  0.7661215172931151  0.5985031619170369  1.0000
  H   H17       1.0  0.7472751230316417  0.43001404115177166  0.5945842110070386  1.0000
  H   H18       1.0  0.24727922455461032  0.5945833039418105  0.4300153807017963  1.0000
  H   H19       1.0  0.28427942629634373  0.3460651201776486  0.6059521094530351  1.0000
  H   H20       1.0  0.7842817495824832  0.6059526808711697  0.3460637943950785  1.0000
  H   H21       1.0  0.03976530909874038  0.5896193005839689  0.8444542924553814  1.0000
  H   H22       1.0  0.5397632177485576  0.844457888106703  0.5896200297850027  1.0000
  H   H23       1.0  0.8779971432741005  0.46543058130988146  0.7376642046121729  1.0000
  H   H24       1.0  0.3779985551321232  0.7376691240858974  0.4654313008977765  1.0000
  H   H25       1.0  0.5757738517782088  0.3258888570789509  0.4781872936996406  1.0000
  H   H26       1.0  0.07577478637897171  0.4781841679037129  0.32589046704988067  1.0000
  H   H27       1.0  0.9940254747552045  0.008000860046053  0.7000716037479505  1.0000
  H   H28       1.0  0.49401882785862483  0.70006873910755  0.007996482323562759  1.0000
  H   H29       1.0  0.8843809428078445  0.9418261108066588  0.06227443467508915  1.0000
  H   H30       1.0  0.38437474163688995  0.06227552420194369  0.9418251636742025  1.0000
  H   H31       1.0  0.5418893768285287  0.042760156609979595  0.6261412340293048  1.0000
  H   H32       1.0  0.04188774693869845  0.6261423200423833  0.04276339480176717  1.0000
  H   H33       1.0  0.8331337616219515  0.188305815141689  0.49793290179559335  1.0000
  H   H34       1.0  0.3331325392858417  0.49793241728720267  0.18830498647935195  1.0000
  H   H35       1.0  0.6562214718059991  0.11717023738117399  0.8746927259717694  1.0000
  H   H36       1.0  0.156228044407989  0.8746964373898579  0.11717599667160528  1.0000
  H   H37       1.0  0.014240682838341501  0.0004937030111876  0.1766416603741376  1.0000
  H   H38       1.0  0.5142396065420839  0.1766434965564514  0.0004944895947360798  1.0000
  H   H39       1.0  0.08421309883984658  0.3153273225802167  0.276362200833546  1.0000
  H   H40       1.0  0.5842031450435811  0.27636612518329423  0.31532690701032345  1.0000
  H   H41       1.0  0.8102658432961648  0.19433031706748244  0.01670345162323632  1.0000
  H   H42       1.0  0.3102662466863891  0.0167091752183168  0.1943317084526512  1.0000
  H   H43       1.0  0.9256423918778439  0.2504923645287747  0.13721779387873312  1.0000
  H   H44       1.0  0.4256294151249875  0.13722488128599508  0.2504900427958106  1.0000
  H   H45       1.0  0.7322098279956251  0.8780436917316762  0.9207483482292389  1.0000
  H   H46       1.0  0.23220679909584163  0.9207480788721369  0.8780451562884862  1.0000
  H   H47       1.0  0.695118280508801  0.11518678532301857  0.5462887819092188  1.0000
  H   H48       1.0  0.19511903389400231  0.5462905851933614  0.11518769382417557  1.0000
  C   C1        1.0  0.8018110625050952  0.9785044666535682  0.721460162190908  1.0000
  C   C2        1.0  0.3018091167617313  0.7214607383308402  0.9785053204504165  1.0000
  C   C3        1.0  0.7732799846700615  0.6580881805226468  0.8407277781798753  1.0000
  C   C4        1.0  0.27327867028304814  0.8407259412962419  0.6580921385444967  1.0000
  C   C5        1.0  0.114899112756909  0.11343144964618548  0.27432407753219923  1.0000
  C   C6        1.0  0.6149010241168112  0.27432531275859157  0.11343262181283356  1.0000
  C   C7        1.0  0.1774772257258164  0.1479305638018005  0.5460658753916121  1.0000
  C   C8        1.0  0.6774742283529847  0.5460656827697008  0.1479309830622313  1.0000
  C   C9        1.0  0.08751269174168641  0.1034035751798825  0.5872105557906551  1.0000
  C   C10       1.0  0.5875115100271628  0.5872112742334537  0.10340426796954458  1.0000
  C   C11       1.0  0.9549856995539159  0.11797592247804538  0.14105537447994004  1.0000
  C   C12       1.0  0.4549793860364063  0.14105962253498916  0.1179747659399411  1.0000
  C   C13       1.0  0.8623863314813036  0.0756685152588403  0.05526675370390422  1.0000
  C   C14       1.0  0.3623826607522886  0.05526980455851317  0.07566857338478167  1.0000
  C   C15       1.0  0.7109180230688139  0.5203895205417197  0.7416820367965825  1.0000
  C   C16       1.0  0.21091791561386236  0.7416822193170987  0.5203920534520137  1.0000
  C   C17       1.0  0.6119850976527204  0.4522569735358887  0.6737327764639216  1.0000
  C   C18       1.0  0.11198615090043529  0.673731449475767  0.4522575465826505  1.0000
  C   C19       1.0  0.023892253652284985  0.21570493267051916  0.4742336037349304  1.0000
  C   C20       1.0  0.5238897584022411  0.474233803736702  0.21570405333513776  1.0000
  C   C21       1.0  0.8622878466239216  0.07059420952725759  0.616400688913437  1.0000
  C   C22       1.0  0.362284452006989  0.6164005338520795  0.07059318664894217  1.0000
  C   C23       1.0  0.9594278736858397  0.11563145976504788  0.5719674623350669  1.0000
  C   C24       1.0  0.45942331341859705  0.5719667159592774  0.11563169398243639  1.0000
  C   C25       1.0  0.478760910916769  0.4267900061850581  0.6753467016321649  1.0000
  C   C26       1.0  0.9787610787739923  0.6753465836251564  0.4267901459238033  1.0000
  C   C27       1.0  0.6760584784929194  0.5915686044625019  0.78189135140137  1.0000
  C   C28       1.0  0.1760599836221459  0.781888677355539  0.5915675061515273  1.0000
  C   C29       1.0  0.6468991480771323  0.4130550806207082  0.602034337199619  1.0000
  C   C30       1.0  0.1468989548679147  0.6020340866168253  0.41305557691853056  1.0000
  C   C31       1.0  0.3883811044880403  0.3662226423578828  0.6066873042844134  1.0000
  C   C32       1.0  0.8883814947991626  0.6066862804604582  0.36622131025135457  1.0000
  C   C33       1.0  0.935336121211698  0.5882751843910228  0.825683605281526  1.0000
  C   C34       1.0  0.43533458787322843  0.8256859605598803  0.5882768549264269  1.0000
  C   C35       1.0  0.8445364160438659  0.5194385757383984  0.765629117784158  1.0000
  C   C36       1.0  0.34454084400257307  0.765632340392145  0.5194375675847951  1.0000
  C   C37       1.0  0.5501158342164629  0.35373260475418516  0.535722804377073  1.0000
  C   C38       1.0  0.05011501087636821  0.5357212921642684  0.3537337740783854  1.0000
  C   C39       1.0  0.8957088824563044  0.0184952130213176  0.6806229131593753  1.0000
  C   C40       1.0  0.39570331216734195  0.6806214752818249  0.018492481309316085  1.0000
  C   C41       1.0  0.8376443442443744  0.9854580670084088  0.025075688073599126  1.0000
  C   C42       1.0  0.33763984921230866  0.025078703507858797  0.9854597543525542  1.0000
  C   C43       1.0  0.6430834497654557  0.0365657271482149  0.6402266386720468  1.0000
  C   C44       1.0  0.1430820519263563  0.6402280748684106  0.03656816228656367  1.0000
  C   C45       1.0  0.9292038777771269  0.17384531794358077  0.5135175123300044  1.0000
  C   C46       1.0  0.429204045991284  0.5135165189591645  0.17384485303225716  1.0000
  C   C47       1.0  0.7094218820279535  0.081275426320417  0.9190668331600732  1.0000
  C   C48       1.0  0.20942474440764167  0.9190693420459795  0.08127885855549975  1.0000
  C   C49       1.0  0.0263660476651779  0.07062487917436039  0.1953788448226774  1.0000
  C   C50       1.0  0.5263625000989477  0.19537916797097668  0.07062201698229836  1.0000
  C   C51       1.0  0.06770768737012392  0.2457150838935078  0.2522587682660955  1.0000
  C   C52       1.0  0.5677026186290562  0.25226426315008144  0.24571655349546967  1.0000
  C   C53       1.0  0.7956458803471305  0.12375595539273114  0.9990047871810289  1.0000
  C   C54       1.0  0.2956423873016617  0.9990083821773083  0.12375822244589323  1.0000
  C   C55       1.0  0.9769569641374716  0.20766074633599627  0.17252025598699552  1.0000
  C   C56       1.0  0.47694392075941733  0.1725235198497117  0.20765681699495525  1.0000
  C   C57       1.0  0.7499479603321006  0.9479125117739002  0.9441474069295451  1.0000
  C   C58       1.0  0.24994671522770767  0.9441492854221705  0.9479152828408245  1.0000
  C   C59       1.0  0.7315731187444355  0.07817692176040938  0.5965047614642102  1.0000
  C   C60       1.0  0.23156956281035687  0.5965042272361315  0.07817786468559967  1.0000
  N   N1        1.0  0.6769811815285253  0.9874707215612516  0.7025077684026682  1.0000
  N   N2        1.0  0.17697599719067375  0.7025074497561761  0.987472620691939  1.0000
  N   N3        1.0  0.9015696825631138  0.6575255401176605  0.8627565863459876  1.0000
  N   N4        1.0  0.40156952864810347  0.8627568397735458  0.657524549426931  1.0000
  N   N5        1.0  0.1468672524898764  0.2034576461617235  0.4899087740339637  1.0000
  N   N6        1.0  0.6468659041330795  0.48990802627321967  0.2034581213369079  1.0000
  N   N7        1.0  0.42215823600831465  0.33022918420852676  0.5368880814091099  1.0000
  N   N8        1.0  0.922156328925837  0.5368868711581242  0.3302286488452636  1.0000
  N   N9        1.0  0.1378128618355561  0.20033956191304716  0.30279913258218016  1.0000
  N   N10       1.0  0.6378103207681249  0.30280071862952695  0.2003381888212061  1.0000
  N   N11       1.0  0.6848544391261839  0.9940887188509109  0.8913750117996313  1.0000
  N   N12       1.0  0.18485431359137297  0.891376732297836  0.9940923170319562  1.0000
  N   N13       1.0  0.011521654545276818  0.8206848565924075  0.7796364252398005  1.0000
  N   N14       1.0  0.5115230035508347  0.7796370018546028  0.8206850711234563  1.0000
  N   N15       1.0  0.31342154847288833  0.41499683578084756  0.3742485847629381  1.0000
  N   N16       1.0  0.8134207329725668  0.3742480999662945  0.4149984504953536  1.0000
  N   N17       1.0  0.4795094737259761  0.15509062506355062  0.44580293147651406  1.0000
  N   N18       1.0  0.9795094992251092  0.44580152478563667  0.15509129279384834  1.0000
  N   N19       1.0  0.847285136250953  0.7475131382320798  0.04107057438970677  1.0000
  N   N20       1.0  0.34728197591963544  0.04106845648402671  0.7475143241509058  1.0000
  O   O1        1.0  0.09399522165906392  0.7748615018757901  0.8051711010781799  1.0000
  O   O2        1.0  0.5939946836425632  0.8051706534093624  0.7748636401309383  1.0000
  O   O3        1.0  0.23051283163328407  0.3891015919930608  0.41974724234838584  1.0000
  O   O4        1.0  0.730513343607747  0.4197469807683376  0.3891019591107038  1.0000
  O   O5        1.0  0.9544475585299566  0.8452699035532873  0.8374618475867234  1.0000
  O   O6        1.0  0.4544486576820502  0.8374585064271612  0.8452695019449049  1.0000
  O   O7        1.0  0.3702781060887332  0.3572095168769494  0.34931644207587437  1.0000
  O   O8        1.0  0.870276184967338  0.3493153086532671  0.35720958010245596  1.0000
  O   O9        1.0  0.9377783473619415  0.8030995229859171  0.014592748454894916  1.0000
  O   O10       1.0  0.43777534148351543  0.014589158080873698  0.8030994337219892  1.0000
  O   O11       1.0  0.3863721490603567  0.1798285322464181  0.3907604458507805  1.0000
  O   O12       1.0  0.8863746619944594  0.3907617520345994  0.17982862240593525  1.0000
  O   O13       1.0  0.9896772494544307  0.8401058671171455  0.7048251780557847  1.0000
  O   O14       1.0  0.48967798293087844  0.7048214368885153  0.8401079950542822  1.0000
  O   O15       1.0  0.3360196680805245  0.4901004313257076  0.3556754337842989  1.0000
  O   O16       1.0  0.8360203040086701  0.35567613882987087  0.4901018893933723  1.0000
  O   O17       1.0  0.5790997656029261  0.1492141491434609  0.4199146318603794  1.0000
  O   O18       1.0  0.07909936269252428  0.41991539416761003  0.1492140359222631  1.0000
  O   O19       1.0  0.7511155391984373  0.774309354444938  0.0532936441360263  1.0000
  O   O20       1.0  0.251117062156041  0.05329232558607799  0.7743095833768832  1.0000
  O   O21       1.0  0.46316533719374325  0.13890897833927346  0.5184097357706675  1.0000
  O   O22       1.0  0.9631643903910928  0.5184086799233398  0.13890994260955128  1.0000
  O   O23       1.0  0.8626245015285791  0.6734988610342326  0.05245755604186535  1.0000
  O   O24       1.0  0.3626232854445419  0.0524562956133678  0.6734975253860824  1.0000
