data_image0
_chemical_formula_structural       Zn16H16C100S16Cl16O60
_chemical_formula_sum              "Zn16 H16 C100 S16 Cl16 O60"
_cell_length_a       19.62287184674416
_cell_length_b       19.72657937997299
_cell_length_c       33.22736670145831
_cell_angle_alpha    79.07584448580532
_cell_angle_beta     79.38524983625909
_cell_angle_gamma    64.11404829696684

_space_group_name_H-M_alt    "P 1"
_space_group_IT_number       1

loop_
  _space_group_symop_operation_xyz
  'x, y, z'

loop_
  _atom_site_type_symbol
  _atom_site_label
  _atom_site_symmetry_multiplicity
  _atom_site_fract_x
  _atom_site_fract_y
  _atom_site_fract_z
  _atom_site_occupancy
  Zn  Zn1       1.0  0.055917568796537906  0.4007783088779462  0.479042352326111  1.0000
  Zn  Zn2       1.0  0.9847318000022799  0.48343151202008255  0.5600826724422203  1.0000
  Zn  Zn3       1.0  0.05670631484753842  0.5643413837338898  0.48239041670942845  1.0000
  Zn  Zn4       1.0  0.9000452996690242  0.5551897985440061  0.47872009769921675  1.0000
  Zn  Zn5       1.0  0.691422759495943  0.3506771843159626  0.2716877747371527  1.0000
  Zn  Zn6       1.0  0.6887083680500299  0.19094802011747428  0.26707032215212223  1.0000
  Zn  Zn7       1.0  0.7693139224009827  0.2650043920086204  0.18944931128186224  1.0000
  Zn  Zn8       1.0  0.846420486779188  0.19834026382503095  0.2727961017558584  1.0000
  Zn  Zn9       1.0  0.26561475912784976  0.767099006399157  0.6894417622438311  1.0000
  Zn  Zn10      1.0  0.3510646942066131  0.6967494322542223  0.7697226722106763  1.0000
  Zn  Zn11      1.0  0.19267748390717543  0.8486779196260483  0.7718485340949499  1.0000
  Zn  Zn12      1.0  0.19266130560340142  0.6871171112077192  0.766753443411126  1.0000
  Zn  Zn13      1.0  0.5594044180526794  0.06150985447703049  0.9829665187257317  1.0000
  Zn  Zn14      1.0  0.4025211758853473  0.05352790155167496  0.9771424033559838  1.0000
  Zn  Zn15      1.0  0.5566613369050871  0.9003777444126796  0.9785517960660995  1.0000
  Zn  Zn16      1.0  0.4825660634980338  0.9839757895440399  0.06041381874193525  1.0000
  H   H1        1.0  0.9532337953400474  0.25552696743135045  0.3476293680100468  1.0000
  H   H2        1.0  0.7397840046629511  0.45185082261709636  0.3569356305112875  1.0000
  H   H3        1.0  0.0027465531096027  0.3029878439083973  0.3958471695996479  1.0000
  H   H4        1.0  0.0923008680810042  0.601691770061457  0.7000297150897408  1.0000
  H   H5        1.0  0.2114983954409908  0.6906458550094641  0.5980967230027827  1.0000
  H   H6        1.0  0.044657913917610904  0.5551084359000028  0.6504082046432414  1.0000
  H   H7        1.0  0.5551571388533034  0.044945150555527294  0.15279050047400486  1.0000
  H   H8        1.0  0.640277822439785  0.16407793721854344  0.049015188747276305  1.0000
  H   H9        1.0  0.605647435470175  0.0923942362040079  0.20050188956437862  1.0000
  H   H10       1.0  0.49911375116787593  0.7907995186398439  0.9018927473762871  1.0000
  H   H11       1.0  0.30435256030951763  0.005648724276284154  0.8934980621862036  1.0000
  H   H12       1.0  0.44856953719226317  0.745475709215846  0.8531841320056797  1.0000
  H   H13       1.0  0.7851398580856782  0.5751951955545561  0.3616366887565192  1.0000
  H   H14       1.0  0.11115111865141361  0.7488533835737669  0.534336359824195  1.0000
  H   H15       1.0  0.7852462834110768  0.14649757913930733  0.07183490026175583  1.0000
  H   H16       1.0  0.17946507350368532  0.9673850650506279  0.8902130497809323  1.0000
  C   C1        1.0  0.06020010724559911  0.31712866939721357  0.5629006010941708  1.0000
  C   C2        1.0  0.06956739969491112  0.569980130881646  0.5686118389090352  1.0000
  C   C3        1.0  0.18231234162320226  0.441615429768042  0.43943930437067275  1.0000
  C   C4        1.0  0.9333808756045489  0.6855531098550713  0.4382898966161051  1.0000
  C   C5        1.0  0.9316859920585617  0.43083530525652913  0.43080539579971594  1.0000
  C   C6        1.0  0.8179155219404778  0.5594510147061413  0.5621026936760457  1.0000
  C   C7        1.0  0.5653094707339933  0.31022489944032106  0.3128079039793689  1.0000
  C   C8        1.0  0.6819884225686579  0.1795366546411473  0.18106348991462076  1.0000
  C   C9        1.0  0.6870446625375451  0.4314208045554793  0.18683223739913757  1.0000
  C   C10       1.0  0.9363879610921659  0.19038926438216197  0.1910288012247108  1.0000
  C   C11       1.0  0.8149797654019723  0.3236421255561479  0.3201608322702185  1.0000
  C   C12       1.0  0.8114593858853214  0.06674013932425979  0.3100494568671834  1.0000
  C   C13       1.0  0.43261345113549515  0.6876879637923281  0.6856795959126953  1.0000
  C   C14       1.0  0.319979752260693  0.8194175414911129  0.8181691641738877  1.0000
  C   C15       1.0  0.19007945008668511  0.9336705001806606  0.6889196755178588  1.0000
  C   C16       1.0  0.0653046897477978  0.806790077507486  0.8100787884612117  1.0000
  C   C17       1.0  0.18148573168023327  0.6788471506155246  0.6806387962172451  1.0000
  C   C18       1.0  0.31688027005991876  0.5677207314260997  0.8121968175122305  1.0000
  C   C19       1.0  0.4375971133840579  0.18395539168921726  0.9380997751116098  1.0000
  C   C20       1.0  0.4328442455698678  0.9286902322882683  0.9298506059406576  1.0000
  C   C21       1.0  0.684441401646133  0.9402822163707258  0.9390881452547005  1.0000
  C   C22       1.0  0.5612842805751229  0.8167652959344949  0.062403658042434494  1.0000
  C   C23       1.0  0.5671536814169258  0.07217361855407488  0.0694175210482797  1.0000
  C   C24       1.0  0.3151820069259301  0.06084241234132996  0.05986968866259451  1.0000
  C   C25       1.0  0.89919992602335  0.40325144947765057  0.4034149205013051  1.0000
  C   C26       1.0  0.8440228886222132  0.3515285986191685  0.3492848703620695  1.0000
  C   C27       1.0  0.8242705012543042  0.44601002586311705  0.3928620373454804  1.0000
  C   C28       1.0  0.9179294324199392  0.30869638095668933  0.3604041208045529  1.0000
  C   C29       1.0  0.7975197617065106  0.4199283494476092  0.365506262012694  1.0000
  C   C30       1.0  0.9451439788011768  0.3347924636133684  0.38717007559586847  1.0000
  C   C31       1.0  0.10149571051450583  0.5964971305599888  0.5968307048383181  1.0000
  C   C32       1.0  0.15383311686736795  0.6494909222569802  0.6516659434117286  1.0000
  C   C33       1.0  0.1490263675738603  0.6346460070422353  0.5814360605845508  1.0000
  C   C34       1.0  0.10757501649938213  0.6106198262218498  0.6668667698895092  1.0000
  C   C35       1.0  0.17439774271487354  0.6613073345259083  0.6091237629945353  1.0000
  C   C36       1.0  0.08154994099457721  0.5846186729697322  0.6394486152108384  1.0000
  C   C37       1.0  0.3052713490181915  0.4549028736072742  0.402897350651493  1.0000
  C   C38       1.0  0.4433544178170409  0.29638439638802777  0.3505998881635079  1.0000
  C   C39       1.0  0.25754284261527266  0.41727789553153377  0.4150664081030725  1.0000
  C   C40       1.0  0.49075233959967346  0.33426431761947833  0.3378428816425653  1.0000
  C   C41       1.0  0.37560369964102597  0.34049899032542175  0.37416884456573735  1.0000
  C   C42       1.0  0.3729626551932199  0.41068419644140153  0.379203796633206  1.0000
  C   C43       1.0  0.7254516875656095  0.575767220448128  0.6297192633202683  1.0000
  C   C44       1.0  0.5246791464289658  0.6688608060821154  0.6177683479063346  1.0000
  C   C45       1.0  0.7432864078685741  0.5827326226069329  0.5869955770533152  1.0000
  C   C46       1.0  0.5068788833617717  0.6621516749893246  0.6605096840562297  1.0000
  C   C47       1.0  0.6045628234737352  0.6367424815664008  0.6065162653944398  1.0000
  C   C48       1.0  0.6456456285820806  0.6066662610847972  0.6408928045212362  1.0000
  C   C49       1.0  0.07582739967589451  0.22561128783699044  0.6311628328886555  1.0000
  C   C50       1.0  0.17706110615818463  0.025596954667001594  0.6211026405873527  1.0000
  C   C51       1.0  0.08571353539806381  0.24303913416679981  0.5884307862008455  1.0000
  C   C52       1.0  0.1667687991826057  0.008141520437703794  0.6638313771735084  1.0000
  C   C53       1.0  0.14426558356004193  0.10497796594214039  0.6092655833333681  1.0000
  C   C54       1.0  0.10962170781633064  0.14619556712959533  0.6431139797618924  1.0000
  C   C55       1.0  0.8391325563680783  0.8028948418862779  0.3960601751175473  1.0000
  C   C56       1.0  0.9060186770870403  0.9475353982172832  0.35069865562743263  1.0000
  C   C57       1.0  0.9079745125447191  0.7594342392167519  0.4125299147845993  1.0000
  C   C58       1.0  0.8371663096980627  0.9914737652730777  0.33433943914785397  1.0000
  C   C59       1.0  0.9068276093098719  0.8785706039077114  0.37294850752827097  1.0000
  C   C60       1.0  0.8386238895239445  0.871435030932133  0.3732240502341283  1.0000
  C   C61       1.0  0.65095880979586  0.15449690014094133  0.15160370015544797  1.0000
  C   C62       1.0  0.5956526115030769  0.1012932717029784  0.09819589527111819  1.0000
  C   C63       1.0  0.6610267982103226  0.17555969893956555  0.10867608529733272  1.0000
  C   C64       1.0  0.5848686425525714  0.08137320501460005  0.14087931925228497  1.0000
  C   C65       1.0  0.6335265483336203  0.14832083047770772  0.0822980525820327  1.0000
  C   C66       1.0  0.6125689872098832  0.10784261474811535  0.16723718035902374  1.0000
  C   C67       1.0  0.6695590539431963  0.5237355158455088  0.11868732355378599  1.0000
  C   C68       1.0  0.5772222927177495  0.7237768257032969  0.13016938161281644  1.0000
  C   C69       1.0  0.6623910663343794  0.5057336067058883  0.1614606617151537  1.0000
  C   C70       1.0  0.5848663652595364  0.7421631416970413  0.08744193310731418  1.0000
  C   C71       1.0  0.608185423034101  0.6441786326070088  0.14153571709893237  1.0000
  C   C72       1.0  0.6384625637065895  0.6034679125942971  0.10733720149480055  1.0000
  C   C73       1.0  0.08415249113178191  0.12299813676798978  0.17874494413887015  1.0000
  C   C74       1.0  0.16759747928247043  0.12838124743407772  0.07240307541892581  1.0000
  C   C75       1.0  0.011468903200516004  0.16444106116448856  0.16636645117644375  1.0000
  C   C76       1.0  0.24033693279036336  0.08689537026978654  0.08474053390428078  1.0000
  C   C77       1.0  0.11067283595828312  0.1415937864112848  0.10672674718001927  1.0000
  C   C78       1.0  0.14112748612611634  0.10995544645639649  0.14442559194107926  1.0000
  C   C79       1.0  0.3488381796196124  0.8498760868769253  0.8460303608247841  1.0000
  C   C80       1.0  0.4041318688831908  0.9006846001465403  0.9006396523935934  1.0000
  C   C81       1.0  0.3072992443926452  0.923949662950612  0.857123303920943  1.0000
  C   C82       1.0  0.44561282006652203  0.8274401369200177  0.8892278816404938  1.0000
  C   C83       1.0  0.33522539070179397  0.9485053319251483  0.8846020364919625  1.0000
  C   C84       1.0  0.4177804167206247  0.8024934930779114  0.8621574050209374  1.0000
  C   C85       1.0  0.410154784509814  0.44968047956943025  0.8547233603985092  1.0000
  C   C86       1.0  0.3440014193243926  0.30330341571141867  0.896836299855721  1.0000
  C   C87       1.0  0.3422085031680028  0.4931970042603879  0.8374103210614691  1.0000
  C   C88       1.0  0.4122022672179925  0.25930945559547774  0.9138500315492023  1.0000
  C   C89       1.0  0.3433896240236295  0.3726851214533867  0.8752772281075919  1.0000
  C   C90       1.0  0.4108162159540498  0.38031930493075816  0.8764551319305127  1.0000
  C   C91       1.0  0.9443351288284205  0.7924257168938383  0.8497823134890365  1.0000
  C   C92       1.0  0.8050130138713101  0.9544393401806273  0.8989245417460551  1.0000
  C   C93       1.0  0.9904145650655566  0.8311886190604483  0.8349522898438619  1.0000
  C   C94       1.0  0.7588127401464536  0.9157815964927206  0.9137828403747931  1.0000
  C   C95       1.0  0.872575811280399  0.909430794244699  0.8755092816483412  1.0000
  C   C96       1.0  0.8765630596791996  0.8375092221748446  0.8730544608844183  1.0000
  C   C97       1.0  0.7685258244327003  0.5158757940685631  0.4125003843077763  1.0000
  C   C98       1.0  0.17969065472404117  0.6427493693317247  0.5365151275834846  1.0000
  C   C99       1.0  0.694657712021062  0.23164258048277014  0.08961467348079573  1.0000
  C   C100      1.0  0.2367917729711664  0.981240400669364  0.8380850421153524  1.0000
  S   S1        1.0  0.2955313185750867  0.32824578336302324  0.3979455061947376  1.0000
  S   S2        1.0  0.45253176008234425  0.423358260246033  0.35486759588623323  1.0000
  S   S3        1.0  0.6629172651728937  0.6262708902603293  0.5605957568798062  1.0000
  S   S4        1.0  0.5874087447220547  0.6165633927364667  0.68681741549441  1.0000
  S   S5        1.0  0.13636702452333793  0.16263670796494978  0.5629987264506083  1.0000
  S   S6        1.0  0.11773814472712735  0.08850850178885139  0.6893954370040944  1.0000
  S   S7        1.0  0.9718636790164867  0.8018466443024579  0.40003462326629347  1.0000
  S   S8        1.0  0.7738184283912305  0.9483216489122839  0.3460129212304252  1.0000
  S   S9        1.0  0.6175373073294851  0.5857316166031409  0.18757308004990136  1.0000
  S   S10       1.0  0.6295483703516923  0.6621063951542894  0.06134866678415556  1.0000
  S   S11       1.0  0.012826320742547602  0.18724791173121963  0.11297891750973581  1.0000
  S   S12       1.0  0.2389735090412658  0.06438583601968154  0.1381476855848121  1.0000
  S   S13       1.0  0.27940326215480843  0.44950322181822594  0.8476587478285466  1.0000
  S   S14       1.0  0.4751049965018483  0.3029465817544333  0.9036701559243239  1.0000
  S   S15       1.0  0.9510141126057478  0.9223900753423494  0.8494115774757133  1.0000
  S   S16       1.0  0.797932728148652  0.8247690162231508  0.8990453227878417  1.0000
  Cl  Cl1       1.0  0.2887225695077122  0.5417601407085614  0.4142337004154015  1.0000
  Cl  Cl2       1.0  0.4603887248332015  0.2084342135625121  0.3402797468790979  1.0000
  Cl  Cl3       1.0  0.7882044301028729  0.5355814824571609  0.6658334776682506  1.0000
  Cl  Cl4       1.0  0.4618875389310802  0.7095995045048725  0.5817721362326083  1.0000
  Cl  Cl5       1.0  0.029800595795869408  0.28832073953365983  0.6665386679586475  1.0000
  Cl  Cl6       1.0  0.22243438158643872  0.963106568723539  0.585534392590688  1.0000
  Cl  Cl7       1.0  0.7633924623651611  0.7798799736321483  0.4011670837343644  1.0000
  Cl  Cl8       1.0  0.9824064386810393  0.9695521874727716  0.3457052782492411  1.0000
  Cl  Cl9       1.0  0.7088989604147288  0.46129582687002796  0.08308274392177142  1.0000
  Cl  Cl10      1.0  0.5366401781484386  0.7858210603598506  0.16616611524658956  1.0000
  Cl  Cl11      1.0  0.10626320985400645  0.08994006116122216  0.2281102293371973  1.0000
  Cl  Cl12      1.0  0.14525743555458354  0.1614290223533814  0.023084017451068903  1.0000
  Cl  Cl13      1.0  0.48547850103195606  0.47283504261277176  0.8511835280906298  1.0000
  Cl  Cl14      1.0  0.26852746745350237  0.280525119408523  0.900079986072235  1.0000
  Cl  Cl15      1.0  0.9631910186363587  0.7023603415718325  0.8423296821602758  1.0000
  Cl  Cl16      1.0  0.7865015638719727  0.04437055092245845  0.90643701294605  1.0000
  O   O1        1.0  0.00010384656133770025  0.5002377216434938  0.4996094079590846  1.0000
  O   O2        1.0  0.08071436350039822  0.315779385306648  0.524014684507847  1.0000
  O   O3        1.0  0.0425771703035096  0.5216015822261255  0.584850246480933  1.0000
  O   O4        1.0  0.15475676070785482  0.5061772277852511  0.45236734443881227  1.0000
  O   O5        1.0  0.0202501253844432  0.37564830245604236  0.5812989771187488  1.0000
  O   O6        1.0  0.1513576949913187  0.39454738773640935  0.4452919115319531  1.0000
  O   O7        1.0  0.07075900521089551  0.5990141633104145  0.5309134252184434  1.0000
  O   O8        1.0  0.002437159706531101  0.65753857129873  0.4465568814268436  1.0000
  O   O9        1.0  0.8958113658843843  0.5007009216878301  0.43616414428002054  1.0000
  O   O10       1.0  0.8855105701950877  0.656348064832393  0.450159265157417  1.0000
  O   O11       1.0  0.9926505482871452  0.38314657610663244  0.4457923438785868  1.0000
  O   O12       1.0  0.8768429121440635  0.5332234116742212  0.5810750794843073  1.0000
  O   O13       1.0  0.8163464238488203  0.5684686119715533  0.523016748986869  1.0000
  O   O14       1.0  0.7482418432361514  0.25207067147388756  0.2500747080996888  1.0000
  O   O15       1.0  0.5939096846340207  0.3593169896308693  0.30383205942641206  1.0000
  O   O16       1.0  0.6560080820540294  0.17303355896532924  0.21897171453739617  1.0000
  O   O17       1.0  0.7208261897353127  0.37245829262894853  0.16824957174660676  1.0000
  O   O18       1.0  0.5950220053226902  0.24347305509400727  0.3022996844584469  1.0000
  O   O19       1.0  0.6719611007677102  0.4336298559975588  0.2259265109063406  1.0000
  O   O20       1.0  0.7327069455186649  0.20418659598223604  0.16576446751619045  1.0000
  O   O21       1.0  0.8791283238640305  0.22699841695106207  0.17038066694080808  1.0000
  O   O22       1.0  0.8591302749357085  0.25852891264199945  0.309008348736306  1.0000
  O   O23       1.0  0.9345015901060876  0.1746701835743495  0.2300915226047877  1.0000
  O   O24       1.0  0.7492506541550626  0.366812018947108  0.3089204227600675  1.0000
  O   O25       1.0  0.7464179154283387  0.09121327419578044  0.2967810439148977  1.0000
  O   O26       1.0  0.8550756293824763  0.1009760779419935  0.3044830366880902  1.0000
  O   O27       1.0  0.2500631239166894  0.7501886280563709  0.7500161272675996  1.0000
  O   O28       1.0  0.37323830517399875  0.7240376176483281  0.6670784094828903  1.0000
  O   O29       1.0  0.36831855188864904  0.7604894815640935  0.8020556540603108  1.0000
  O   O30       1.0  0.1746682595728402  0.9344038965165711  0.7280873166919051  1.0000
  O   O31       1.0  0.4347743144556375  0.6707486968043598  0.7248008221113194  1.0000
  O   O32       1.0  0.2227224914103942  0.8753998013002827  0.6697080546945671  1.0000
  O   O33       1.0  0.2492810727075964  0.8542253948484205  0.8135608196938546  1.0000
  O   O34       1.0  0.09316322873370103  0.8563785498287402  0.8010194272082386  1.0000
  O   O35       1.0  0.16653126942618002  0.6610936925521143  0.7191469672010341  1.0000
  O   O36       1.0  0.09557882480150683  0.7397622307955629  0.799973181519178  1.0000
  O   O37       1.0  0.21749939680945835  0.7194453831062262  0.6642436455670974  1.0000
  O   O38       1.0  0.3607908199340956  0.6018294141693232  0.8052424101560121  1.0000
  O   O39       1.0  0.2515351331228359  0.5913801402548414  0.7994496302557863  1.0000
  O   O40       1.0  0.5008688267234619  0.9993680683341493  0.9997953407566484  1.0000
  O   O41       1.0  0.5043905106453721  0.15762474409658708  0.949478491359443  1.0000
  O   O42       1.0  0.38938398086107645  0.9944201685049451  0.9403908362037113  1.0000
  O   O43       1.0  0.6543558530948134  0.8924406608321647  0.94679817923285  1.0000
  O   O44       1.0  0.39214389701988495  0.151524453976819  0.9456309593318223  1.0000
  O   O45       1.0  0.6567691872478607  0.00572179932448327  0.9510747657303823  1.0000
  O   O46       1.0  0.49791957573543755  0.8848572251038573  0.9417333134375737  1.0000
  O   O47       1.0  0.5772911036645142  0.8155188496086794  0.02326812412344031  1.0000
  O   O48       1.0  0.5294284562956691  0.03316673450667195  0.08582805294876288  1.0000
  O   O49       1.0  0.5274557612345349  0.8755050751476072  0.08124474450188766  1.0000
  O   O50       1.0  0.5832883870842168  0.08869423956622305  0.030904946341891597  1.0000
  O   O51       1.0  0.31630840252083914  0.07449444291064819  0.020784349565133205  1.0000
  O   O52       1.0  0.3729682431933413  0.02620728886494558  0.08029608460078211  1.0000
  O   O53       1.0  0.7514653248063398  0.5834049309733657  0.3875516168491727  1.0000
  O   O54       1.0  0.735527325355733  0.5133905495264628  0.4470093162472253  1.0000
  O   O55       1.0  0.152161605990166  0.7149738543855689  0.5163795861493341  1.0000
  O   O56       1.0  0.22972612789763505  0.5909156136408525  0.5194594076349758  1.0000
  O   O57       1.0  0.7653521894354471  0.20185926206542598  0.06795873064575632  1.0000
  O   O58       1.0  0.6602214475227229  0.29965504254761294  0.09016540701325942  1.0000
  O   O59       1.0  0.17022136943434424  0.00042369067738688677  0.8640272672321598  1.0000
  O   O60       1.0  0.238038609022091  0.013460991687978222  0.8032440353076638  1.0000
