data_image0
_chemical_formula_structural       Cd4H20C28N4O20
_chemical_formula_sum              "Cd4 H20 C28 N4 O20"
_cell_length_a       6.883073384520911
_cell_length_b       7.91575835501048
_cell_length_c       14.925364902037725
_cell_angle_alpha    89.99996776338533
_cell_angle_beta     89.999756758331
_cell_angle_gamma    102.17891329607504

_space_group_name_H-M_alt    "P 1"
_space_group_IT_number       1

loop_
  _space_group_symop_operation_xyz
  'x, y, z'

loop_
  _atom_site_type_symbol
  _atom_site_label
  _atom_site_symmetry_multiplicity
  _atom_site_fract_x
  _atom_site_fract_y
  _atom_site_fract_z
  _atom_site_occupancy
  Cd  Cd1       1.0  0.7465138372362926  0.3847383324001469  0.7806019024759011  1.0000
  Cd  Cd2       1.0  0.75348681054367  0.11526173667231629  0.2806014290331263  1.0000
  Cd  Cd3       1.0  0.25348533590693717  0.6152604992380118  0.2193979829550159  1.0000
  Cd  Cd4       1.0  0.24651236259956022  0.8847370949658429  0.7193984563977907  1.0000
  H   H1        1.0  0.9021623680853423  0.10293459662007359  0.8570669229711783  1.0000
  H   H2        1.0  0.5978392971790071  0.3970665342621231  0.3570673428882003  1.0000
  H   H3        1.0  0.09783712826670407  0.897065527378402  0.1429336324596022  1.0000
  H   H4        1.0  0.402161649894616  0.6029335811398869  0.6429332125411591  1.0000
  H   H5        1.0  0.686767926689683  0.0568819003599899  0.8192027400294252  1.0000
  H   H6        1.0  0.8132323392218198  0.4431180566657745  0.3192027240620733  1.0000
  H   H7        1.0  0.31323156966236343  0.9431182236384856  0.1807978154013625  1.0000
  H   H8        1.0  0.18676683392141058  0.5568807749723844  0.6807971613688438  1.0000
  H   H9        1.0  0.7634266082060248  0.3207523163826167  0.9881773896832798  1.0000
  H   H10       1.0  0.7365740832393186  0.17924972628987498  0.48817693080859215  1.0000
  H   H11       1.0  0.23656998670285387  0.6792478248087903  0.01182316575035  1.0000
  H   H12       1.0  0.26342686383430447  0.8207503891121348  0.5118236246207672  1.0000
  H   H13       1.0  0.718328275652965  0.9322804737226492  0.9876379947057005  1.0000
  H   H14       1.0  0.7816689150929079  0.5677197610547111  0.48763747980481753  1.0000
  H   H15       1.0  0.2816726714206652  0.0677196416793535  0.012362560723666097  1.0000
  H   H16       1.0  0.21832880732873858  0.43227907917991365  0.5123624056275204  1.0000
  H   H17       1.0  0.7227455481672109  0.7639092520007511  0.847508107562085  1.0000
  H   H18       1.0  0.7772548027743938  0.7360926732942872  0.3475075523632967  1.0000
  H   H19       1.0  0.2772557221218576  0.23609215576351522  0.1524917778664019  1.0000
  H   H20       1.0  0.2227458210904203  0.26390614974740595  0.6524923330661991  1.0000
  C   C1        1.0  0.7552458716054533  0.45669723539095497  0.9910657495345918  1.0000
  C   C2        1.0  0.7447555955634544  0.04330220557846332  0.49106531414314963  1.0000
  C   C3        1.0  0.2447550754681771  0.5433028800110477  0.008934805894767804  1.0000
  C   C4        1.0  0.25524357757646493  0.9566966260587222  0.5089352412881354  1.0000
  C   C5        1.0  0.7594953197862537  0.5415766599439565  0.0730988967070374  1.0000
  C   C6        1.0  0.7405120979642135  0.9584260360844256  0.5730986905019151  1.0000
  C   C7        1.0  0.24050740122108746  0.4584247392228776  0.9269016587203964  1.0000
  C   C8        1.0  0.2594888491094167  0.0415740793175843  0.4269018649274443  1.0000
  C   C9        1.0  0.7445842681631165  0.7158720494246396  0.0734908362063678  1.0000
  C   C10       1.0  0.7554170196081317  0.7841293874896351  0.5734913214415229  1.0000
  C   C11       1.0  0.25541700212926344  0.2841293583406  0.926508379221751  1.0000
  C   C12       1.0  0.2445821535350987  0.21586944414852385  0.426508563989394  1.0000
  C   C13       1.0  0.7303033472281514  0.797454612649915  0.9915487947205933  1.0000
  C   C14       1.0  0.7697002541400408  0.7025481611123682  0.4915482640973892  1.0000
  C   C15       1.0  0.2697022752256615  0.20254676932495394  0.008451090703630402  1.0000
  C   C16       1.0  0.23029924221200565  0.29745196288610753  0.5084522913333984  1.0000
  C   C17       1.0  0.7317787453233677  0.70430984769267  0.9126354932900256  1.0000
  C   C18       1.0  0.768222412054648  0.7956918799616731  0.41263493847870353  1.0000
  C   C19       1.0  0.26822252496238264  0.2956915600706297  0.0873650621388364  1.0000
  C   C20       1.0  0.23177708430070962  0.2043082440377688  0.587364946951709  1.0000
  C   C21       1.0  0.7884880959359464  0.4484174359090858  0.1580040086476799  1.0000
  C   C22       1.0  0.7115163428927715  0.05158167947050171  0.6580046476167212  1.0000
  C   C23       1.0  0.21151430186257866  0.5515826708974314  0.8419958767798903  1.0000
  C   C24       1.0  0.2884828302504586  0.9484171521676572  0.3419952378141957  1.0000
  C   C25       1.0  0.7342734377718401  0.8148183368965435  0.158821408998314  1.0000
  C   C26       1.0  0.7657278101476095  0.6851802590109841  0.6588219027809146  1.0000
  C   C27       1.0  0.26573073395707775  0.18518305367381774  0.8411791464276988  1.0000
  C   C28       1.0  0.23427136299230966  0.31481857262620144  0.3411786526503705  1.0000
  N   N1        1.0  0.7437118423136582  0.5366562117254575  0.9122984957759713  1.0000
  N   N2        1.0  0.7562878676767043  0.9633455255035841  0.4122979156224035  1.0000
  N   N3        1.0  0.2562858801046701  0.4633426285081939  0.08770205965673479  1.0000
  N   N4        1.0  0.24371162867865342  0.03665459849586479  0.587701969808009  1.0000
  O   O1        1.0  0.712266912953794  0.2882700821729145  0.1612033584497752  1.0000
  O   O2        1.0  0.7877308870420451  0.2117316516251648  0.6612038013499558  1.0000
  O   O3        1.0  0.28773113267997985  0.7117300504230001  0.8387965269820583  1.0000
  O   O4        1.0  0.21226828609787415  0.7882671800120206  0.3387967540813293  1.0000
  O   O5        1.0  0.8884967304398046  0.5397183618411603  0.21990590143335  1.0000
  O   O6        1.0  0.6114987567330133  0.9602826758674469  0.7199052777348172  1.0000
  O   O7        1.0  0.11150244270011458  0.46028046979602527  0.780094653997935  1.0000
  O   O8        1.0  0.3884975149670495  0.03971617296364371  0.2800946076989419  1.0000
  O   O9        1.0  0.8731073637740039  0.9481901101908577  0.1717093805551428  1.0000
  O   O10       1.0  0.6268900509199327  0.5518110588223736  0.671707505443301  1.0000
  O   O11       1.0  0.1268960036575848  0.051813873698549215  0.828291174871282  1.0000
  O   O12       1.0  0.37310912222329756  0.4481877728157856  0.32829237998761585  1.0000
  O   O13       1.0  0.588562886424704  0.770445430389273  0.21087120706363296  1.0000
  O   O14       1.0  0.9114331712000947  0.7295517478607322  0.7108727421392729  1.0000
  O   O15       1.0  0.4114377374434285  0.2295533926533935  0.7891280083654949  1.0000
  O   O16       1.0  0.08856632515526291  0.27044837613871664  0.2891271432911466  1.0000
  O   O17       1.0  0.7689699166976923  0.13131134007865342  0.8654969941231911  1.0000
  O   O18       1.0  0.7310313419563741  0.3686884739718082  0.3654978310364926  1.0000
  O   O19       1.0  0.23102957965766546  0.8686887839207887  0.13450289130722132  1.0000
  O   O20       1.0  0.2689678311868562  0.6313103576663438  0.6345020543944245  1.0000
