data_image0
_chemical_formula_structural       Y2H26C32N2O14
_chemical_formula_sum              "Y2 H26 C32 N2 O14"
_cell_length_a       9.297610239922713
_cell_length_b       10.560642243505896
_cell_length_c       11.01764392018078
_cell_angle_alpha    99.02574243238531
_cell_angle_beta     113.29508016550115
_cell_angle_gamma    112.86420129432827

_space_group_name_H-M_alt    "P 1"
_space_group_IT_number       1

loop_
  _space_group_symop_operation_xyz
  'x, y, z'

loop_
  _atom_site_type_symbol
  _atom_site_label
  _atom_site_symmetry_multiplicity
  _atom_site_fract_x
  _atom_site_fract_y
  _atom_site_fract_z
  _atom_site_occupancy
  Y   Y1        1.0  0.6953702150897243  0.0095695614504265  0.9731109455975184  1.0000
  Y   Y2        1.0  0.3046293972988894  0.9904305098287125  0.026890983917241016  1.0000
  H   H1        1.0  0.20336285879614036  0.648904775925189  0.9858086957729667  1.0000
  H   H2        1.0  0.7966360541210094  0.35109417340438404  0.01418920465916779  1.0000
  H   H3        1.0  0.026710853194984483  0.39556290670022065  0.9774816599050308  1.0000
  H   H4        1.0  0.9732857304248413  0.6044360582287069  0.022516378085839603  1.0000
  H   H5        1.0  0.5177817215947513  0.39083336547564335  0.21191494324036594  1.0000
  H   H6        1.0  0.4822123479709861  0.6091634000342198  0.7880828422225787  1.0000
  H   H7        1.0  0.696057275110235  0.6439875605529296  0.218597742236625  1.0000
  H   H8        1.0  0.3039421525216142  0.35601029570778314  0.7814037971914656  1.0000
  H   H9        1.0  0.0991560877012816  0.3855444651986701  0.357231180361154  1.0000
  H   H10       1.0  0.900847194648165  0.6144577912268474  0.6427695675742979  1.0000
  H   H11       1.0  0.6755350436033895  0.3762065686873087  0.4302408759245964  1.0000
  H   H12       1.0  0.3244682329181147  0.6237956834228626  0.5697589617922745  1.0000
  H   H13       1.0  0.6720409845778974  0.9954491383199268  0.39907333899378017  1.0000
  H   H14       1.0  0.3279592923145315  0.004552029016736  0.6009271582921157  1.0000
  H   H15       1.0  0.8964501097609842  0.1405220508567169  0.4762263152537896  1.0000
  H   H16       1.0  0.10355201085376825  0.8594802155261405  0.5237749565703211  1.0000
  H   H17       1.0  0.6428216743288574  0.16545378506449282  0.5459162318555639  1.0000
  H   H18       1.0  0.357179284551208  0.8345484912757188  0.4540855638572054  1.0000
  H   H19       1.0  0.8767195974324125  0.26774166721452997  0.6683939615717377  1.0000
  H   H20       1.0  0.1232818586785315  0.7322595031108038  0.3316087424812437  1.0000
  H   H21       1.0  0.0133831636261874  0.029729609870251705  0.6386519006262859  1.0000
  H   H22       1.0  0.9866169401653623  0.9702693510786701  0.3613500270101041  1.0000
  H   H23       1.0  0.8112821178062435  0.8646882304175988  0.506244732255901  1.0000
  H   H24       1.0  0.18871865048911476  0.135311826588854  0.4937557631516184  1.0000
  H   H25       1.0  0.8081408429113709  0.912306273248376  0.7437034261084958  1.0000
  H   H26       1.0  0.19185758443078527  0.0876937907267532  0.25629538642059657  1.0000
  C   C1        1.0  0.46084530540079544  0.6632834004967451  0.10569170470969884  1.0000
  C   C2        1.0  0.5391547983907472  0.33671556045217693  0.894310222926691  1.0000
  C   C3        1.0  0.27197430067627004  0.5933114764177322  0.03757357701007192  1.0000
  C   C4        1.0  0.7280252884005735  0.40668857760005045  0.9624247116303619  1.0000
  C   C5        1.0  0.17345445473210222  0.4525943632165905  0.03268521704084288  1.0000
  C   C6        1.0  0.8265444640129828  0.5474045904283217  0.9673135936098728  1.0000
  C   C7        1.0  0.2617727880787726  0.3797637381429553  0.09629640793100688  1.0000
  C   C8        1.0  0.7382233041381241  0.6202363371161967  0.9037016319382472  1.0000
  C   C9        1.0  0.4507261335376996  0.44971252173472454  0.16524257868955766  1.0000
  C   C10       1.0  0.5492721148756347  0.5502853315373245  0.8347567539714474  1.0000
  C   C11       1.0  0.5496449662061523  0.5905825872380106  0.16954258819539797  1.0000
  C   C12       1.0  0.45035377943805344  0.40941416001915343  0.830457652805812  1.0000
  C   C13       1.0  0.5617828039158895  0.8072310377109773  0.09618630295313581  1.0000
  C   C14       1.0  0.4382149530945155  0.1927679258912889  0.9038130315862457  1.0000
  C   C15       1.0  0.1514420793335631  0.2271269611612254  0.08716611128771487  1.0000
  C   C16       1.0  0.8485568335835865  0.7728719881683475  0.9128317891444196  1.0000
  C   C17       1.0  0.8756412590847875  0.3682830365614648  0.38272904239794764  1.0000
  C   C18       1.0  0.12436153186173017  0.6317203301942625  0.6172717074158809  1.0000
  C   C19       1.0  0.05822096411897354  0.43682161373824613  0.4212666985532962  1.0000
  C   C20       1.0  0.9417818209996014  0.5631817487021422  0.5787331410419511  1.0000
  C   C21       1.0  0.8179782950368449  0.4320434317066741  0.46181539342084216  1.0000
  C   C22       1.0  0.1820238139220295  0.5679588260455048  0.5381840579661059  1.0000
  C   C23       1.0  0.7424417311451564  0.2273576595589404  0.25651473112331047  1.0000
  C   C24       1.0  0.2575532051649887  0.7726424299728974  0.7434847428531838  1.0000
  C   C25       1.0  0.7431706078806216  0.0686573586439394  0.6958132500002134  1.0000
  C   C26       1.0  0.2568327788743972  0.9313393444684904  0.3041839852277732  1.0000
  C   C27       1.0  0.7981141580355953  0.06858399250277361  0.5001887263147109  1.0000
  C   C28       1.0  0.20188662191564807  0.9314160731343578  0.4998135895299711  1.0000
  C   C29       1.0  0.7626730622198822  0.154922366762726  0.6004081413894226  1.0000
  C   C30       1.0  0.23732887363811286  0.8450776846017122  0.3995927403480194  1.0000
  C   C31       1.0  0.8652464241073335  0.976543787287952  0.5785007222081332  1.0000
  C   C32       1.0  0.13475502034773257  0.023457374406703504  0.42150016140767815  1.0000
  N   N1        1.0  0.7966940184960123  0.9702861320562449  0.6768724986209023  1.0000
  N   N2        1.0  0.2033044205020289  0.0297139405495628  0.323128134345353  1.0000
  O   O1        1.0  0.47919881830329575  0.8792101150745566  0.0543619931353732  1.0000
  O   O2        1.0  0.5208024472229411  0.12078883591701133  0.9456394106123581  1.0000
  O   O3        1.0  0.7205288077968393  0.8530426223620468  0.11701287230485498  1.0000
  O   O4        1.0  0.27947527842965053  0.14695520269994944  0.8829883920057567  1.0000
  O   O5        1.0  0.9873494851060302  0.18197667199859777  0.049673563615833395  1.0000
  O   O6        1.0  0.012646306292644795  0.8180267329245297  0.9503257784370475  1.0000
  O   O7        1.0  0.2284301420068147  0.15061232866138147  0.12112907278245189  1.0000
  O   O8        1.0  0.7715619444633718  0.8493888652233396  0.8788659895382406  1.0000
  O   O9        1.0  0.8051111896124113  0.1689430764334574  0.19626695323116636  1.0000
  O   O10       1.0  0.19488774078856635  0.8310558858421333  0.8037336778567123  1.0000
  O   O11       1.0  0.5767321853168568  0.17748611554651467  0.21894471753522268  1.0000
  O   O12       1.0  0.4232712876172971  0.8225183602127616  0.7810573307054866  1.0000
  O   O13       1.0  0.6887854969711427  0.08815736968088571  0.7813398060970439  1.0000
  O   O14       1.0  0.3112106302134024  0.9118427314702944  0.2186636950836985  1.0000
