data_image0
_chemical_formula_structural       Fe2H26C24S4N2
_chemical_formula_sum              "Fe2 H26 C24 S4 N2"
_cell_length_a       6.943541857063156
_cell_length_b       7.250836144880317
_cell_length_c       13.056554481292363
_cell_angle_alpha    95.78761294221651
_cell_angle_beta     105.42605375262345
_cell_angle_gamma    89.98832732648667

_space_group_name_H-M_alt    "P 1"
_space_group_IT_number       1

loop_
  _space_group_symop_operation_xyz
  'x, y, z'

loop_
  _atom_site_type_symbol
  _atom_site_label
  _atom_site_symmetry_multiplicity
  _atom_site_fract_x
  _atom_site_fract_y
  _atom_site_fract_z
  _atom_site_occupancy
  Fe  Fe1       1.0  0.63118482638442  0.8316482738481169  0.2830822644410844  1.0000
  Fe  Fe2       1.0  0.651251832228823  0.33180714416682383  0.2830495449078825  1.0000
  H   H1        1.0  0.2963548500029348  0.6912802616088386  0.1695104960406724  1.0000
  H   H2        1.0  0.8730289582393953  0.1911511034360842  0.16976103098964052  1.0000
  H   H3        1.0  0.31064515245537194  0.9020389083277467  0.1316754093257089  1.0000
  H   H4        1.0  0.8210329524632913  0.40177026633612917  0.1316936531024453  1.0000
  H   H5        1.0  0.22928986498085646  0.8731522373743631  0.2359809189966953  1.0000
  H   H6        1.0  0.0062094059371844  0.3731727474292867  0.2362652871095534  1.0000
  H   H7        1.0  0.7787730631961766  0.4959675467428682  0.6071235028088822  1.0000
  H   H8        1.0  0.8280834683916185  0.9951653890466974  0.6067015277018015  1.0000
  H   H9        1.0  0.10179273112198932  0.540578822246232  0.7497519256580176  1.0000
  H   H10       1.0  0.6488773244539986  0.03956023469183381  0.749651526398388  1.0000
  H   H11       1.0  0.3930830712052186  0.6943214671450453  0.7132839905590984  1.0000
  H   H12       1.0  0.32146857739942203  0.19440106783341096  0.7139413908109091  1.0000
  H   H13       1.0  0.3686193344442047  0.7893674737354818  0.5324249436395405  1.0000
  H   H14       1.0  0.1641657281504578  0.28977926863008463  0.5331341555526947  1.0000
  H   H15       1.0  0.04702616130727932  0.7443376073632351  0.3905715581112119  1.0000
  H   H16       1.0  0.3430900903627148  0.2449147646268273  0.39101260765365  1.0000
  H   H17       1.0  0.9708344570275429  0.9188126438703109  0.9942316210198073  1.0000
  H   H18       1.0  0.0233995877135982  0.4189362812954798  0.9938301808798542  1.0000
  H   H19       1.0  0.8876644023116784  0.753296413590995  0.8123997632911042  1.0000
  H   H20       1.0  0.9249317071588267  0.2532615519372854  0.8120836637505633  1.0000
  H   H21       1.0  0.6438776333704582  0.4840554207777572  0.7633922353031296  1.0000
  H   H22       1.0  0.11961731497649451  0.9836524738768803  0.7632443360620513  1.0000
  H   H23       1.0  0.4769479378397251  0.390233578260947  0.8977612334385512  1.0000
  H   H24       1.0  0.4209218087529791  0.8898992912587503  0.8978812571933048  1.0000
  H   H25       1.0  0.5536453443253962  0.5593011962268832  0.0784998417068792  1.0000
  H   H26       1.0  0.5246696150617965  0.0593824912622978  0.07848443137633859  1.0000
  C   C1        1.0  0.8927658964594017  0.6209685237713459  0.4911444676091463  1.0000
  C   C2        1.0  0.598020617659337  0.1209199403928878  0.49115629912009245  1.0000
  C   C3        1.0  0.9083840108638628  0.5617281081350144  0.5921001614460124  1.0000
  C   C4        1.0  0.6836151554979397  0.06121976630557671  0.5919594507010046  1.0000
  C   C5        1.0  0.0890165411222412  0.5874792032790382  0.6713980472320955  1.0000
  C   C6        1.0  0.5828141754139793  0.08687673440762471  0.6714874636835049  1.0000
  C   C7        1.0  0.2534930498024437  0.6722263578925975  0.6507016203420974  1.0000
  C   C8        1.0  0.3979076162422005  0.1721414117358009  0.6511598349575252  1.0000
  C   C9        1.0  0.23956844705269023  0.7262061149799807  0.5493502378419421  1.0000
  C   C10       1.0  0.31009213597427987  0.22641540063111884  0.5499087496961507  1.0000
  C   C11       1.0  0.060170751455174816  0.7004788153344564  0.46963305291601637  1.0000
  C   C12       1.0  0.40919812182032445  0.20077491961865948  0.4699621102506484  1.0000
  C   C13       1.0  0.7736536160097813  0.7469787695654734  0.050924915546481514  1.0000
  C   C14       1.0  0.2769657047329872  0.24685948629923624  0.0507547903453514  1.0000
  C   C15       1.0  0.8644136969294821  0.8015571583641049  0.9738023265758287  1.0000
  C   C16       1.0  0.10942659168630091  0.3015392828527085  0.9735317576140048  1.0000
  C   C17       1.0  0.8165667072663538  0.7084370859939925  0.8710728343281955  1.0000
  C   C18       1.0  0.05485134328407071  0.20847455598057255  0.8707542683482501  1.0000
  C   C19       1.0  0.6794616951646192  0.5585022066723155  0.8432067902430376  1.0000
  C   C20       1.0  0.1640701829653892  0.058512241981908616  0.8429325193698604  1.0000
  C   C21       1.0  0.5860149335162321  0.5054321242637985  0.9185178856251071  1.0000
  C   C22       1.0  0.33267495782754963  0.005427031254015398  0.9184087623386503  1.0000
  C   C23       1.0  0.6310766226406346  0.5996429891639538  0.02112421345533731  1.0000
  C   C24       1.0  0.3899517448081937  0.09965337588212014  0.0210189104441625  1.0000
  S   S1        1.0  0.6588874651894872  0.599388520379357  0.3936800591089167  1.0000
  S   S2        1.0  0.7340645352512283  0.09941279492667833  0.3935718017688358  1.0000
  S   S3        1.0  0.8407857017916956  0.866714132116613  0.1804528283136763  1.0000
  S   S4        1.0  0.33916187320557617  0.3671250633834618  0.18020308141614547  1.0000
  N   N1        1.0  0.33402863054231363  0.8288513456523464  0.19696576646316544  1.0000
  N   N2        1.0  0.8625863052862572  0.3287574894598322  0.19707859515611403  1.0000
