data_image0
_chemical_formula_structural       Cu8H4C4I4N16
_chemical_formula_sum              "Cu8 H4 C4 I4 N16"
_cell_length_a       5.95651294611021
_cell_length_b       6.873833210431817
_cell_length_c       12.954479396872607
_cell_angle_alpha    89.99842003598923
_cell_angle_beta     90.00060235111998
_cell_angle_gamma    90.00006544798985

_space_group_name_H-M_alt    "P 1"
_space_group_IT_number       1

loop_
  _space_group_symop_operation_xyz
  'x, y, z'

loop_
  _atom_site_type_symbol
  _atom_site_label
  _atom_site_symmetry_multiplicity
  _atom_site_fract_x
  _atom_site_fract_y
  _atom_site_fract_z
  _atom_site_occupancy
  Cu  Cu1       1.0  0.2883801337803362  7.2974009910000005e-06  3.122275408899999e-06  1.0000
  Cu  Cu2       1.0  0.7116231155075496  0.5000098147952272  0.5000021404451471  1.0000
  Cu  Cu3       1.0  0.7116050343994258  0.9999962950378604  0.9999976591675759  1.0000
  Cu  Cu4       1.0  0.2883922717567486  0.5000141446196481  0.5000025006305505  1.0000
  Cu  Cu5       1.0  0.4999888740063057  0.44206837611526584  0.12224221096070657  1.0000
  Cu  Cu6       1.0  0.5000013307900133  0.5579177583858765  0.8777724654074388  1.0000
  Cu  Cu7       1.0  0.5000116944412838  0.0579106221137948  0.622236789859201  1.0000
  Cu  Cu8       1.0  0.5000070502720179  0.9420973352302581  0.3777470091091003  1.0000
  H   H1        1.0  0.9999867785675107  0.621905485051407  0.16921316987662036  1.0000
  H   H2        1.0  6.853458959999678e-08  0.37806610154979836  0.8308007346345219  1.0000
  H   H3        1.0  1.0868018520699998e-05  0.8780526823002502  0.6692104236500993  1.0000
  H   H4        1.0  6.692406856199998e-06  0.12195228395554379  0.3307698066828237  1.0000
  C   C1        1.0  0.9999761835087854  0.4798795964812044  0.13286133426231564  1.0000
  C   C2        1.0  0.9999984171586506  0.5201124389303473  0.8671491913394148  1.0000
  C   C3        1.0  7.801332841999998e-06  0.020101653994252903  0.6328651432668904  1.0000
  C   C4        1.0  0.9999975128197462  0.979922305754144  0.3671286907079859  1.0000
  I   I1        1.0  0.49999974340043  0.8334763124570445  0.1557634326060295  1.0000
  I   I2        1.0  0.49999381887872824  0.16651564183470668  0.8442311734592635  1.0000
  I   I3        1.0  0.5000110747684801  0.6664957799372576  0.6557698483138024  1.0000
  I   I4        1.0  0.4999992759762009  0.33351508634601856  0.3442347928253398  1.0000
  N   N1        1.0  0.11073175798359361  0.21388309041048356  0.0628815392566224  1.0000
  N   N2        1.0  0.1107509470934218  0.7861058904923086  0.9371216966251409  1.0000
  N   N3        1.0  0.8892710241682451  0.2861184930628013  0.562874820941694  1.0000
  N   N4        1.0  0.8892720086020703  0.7138982562914438  0.4371181026897374  1.0000
  N   N5        1.0  0.8892634831953429  0.7861074088741161  0.9371200142258257  1.0000
  N   N6        1.0  0.8892526882553683  0.2138758800149674  0.0628806288662318  1.0000
  N   N7        1.0  0.1107510783250163  0.7139011023098973  0.4371190131059776  1.0000
  N   N8        1.0  0.11076016687333382  0.2861126103757101  0.5628741875702657  1.0000
  N   N9        1.0  0.18492511564181768  0.3803405469549757  0.10637305302018517  1.0000
  N   N10       1.0  0.1849313122395557  0.6196542648555262  0.8936421767926317  1.0000
  N   N11       1.0  0.8150667528663647  0.1196481617701153  0.6063725227406775  1.0000
  N   N12       1.0  0.8150555498573767  0.8803627562666065  0.3936215297021731  1.0000
  N   N13       1.0  0.8150483007183312  0.6196324946524213  0.893633904040932  1.0000
  N   N14       1.0  0.8150421042213694  0.3803405983983694  0.10637249947686907  1.0000
  N   N15       1.0  0.18495870730824754  0.8803568855837867  0.3936243991375718  1.0000
  N   N16       1.0  0.18493297589367333  0.11965829406288722  0.6063669007066534  1.0000
