data_image0
_chemical_formula_structural       Al6H51C100N7O36
_chemical_formula_sum              "Al6 H51 C100 N7 O36"
_cell_length_a       12.838068609172247
_cell_length_b       12.682694007283038
_cell_length_c       27.6998630543968
_cell_angle_alpha    90.8515707052046
_cell_angle_beta     89.63625214141683
_cell_angle_gamma    60.715841921383884

_space_group_name_H-M_alt    "P 1"
_space_group_IT_number       1

loop_
  _space_group_symop_operation_xyz
  'x, y, z'

loop_
  _atom_site_type_symbol
  _atom_site_label
  _atom_site_symmetry_multiplicity
  _atom_site_fract_x
  _atom_site_fract_y
  _atom_site_fract_z
  _atom_site_occupancy
  Al  Al1       1.0  0.4084109806669573  0.16768014022588335  0.4991720330059549  1.0000
  Al  Al2       1.0  0.43706232346628576  0.9027606196399561  0.5017512790079691  1.0000
  Al  Al3       1.0  0.6602348423606584  0.9235055580189805  0.4978380205697874  1.0000
  Al  Al4       1.0  0.9099554650939082  0.16789476499589281  0.9856343103955892  1.0000
  Al  Al5       1.0  0.6734646707900254  0.42723128408434946  0.983708812377415  1.0000
  Al  Al6       1.0  0.9096548088884332  0.41973523930624884  0.9864747645673473  1.0000
  H   H1        1.0  0.4559208273962767  0.7464663795006885  0.21072459644415886  1.0000
  H   H2        1.0  0.6109824591102537  0.5250072186282181  0.8560230508385516  1.0000
  H   H3        1.0  0.5879247181901234  0.5539652664494666  0.27461687540128565  1.0000
  H   H4        1.0  0.5253333589002195  0.6720121530761748  0.61891993142995  1.0000
  H   H5        1.0  0.47967189352368667  0.5859964926220654  0.6902843254842352  1.0000
  H   H6        1.0  0.8901195888457635  0.7740811047089196  0.7045233825683822  1.0000
  H   H7        1.0  0.7818113877517591  0.7969980960099221  0.6278189069056807  1.0000
  H   H8        1.0  0.874978920460208  0.10566124482375018  0.8558839820648103  1.0000
  H   H9        1.0  0.9707058674308652  0.012396695309256358  0.777132974839219  1.0000
  H   H10       1.0  0.5248138432242725  0.894938034403978  0.2652400786717807  1.0000
  H   H11       1.0  0.9549722761587347  0.9724430835485618  0.6923207213992697  1.0000
  H   H12       1.0  0.5085821929749557  0.13005444161382235  0.1955898732684176  1.0000
  H   H13       1.0  0.4942506492690909  0.33863459940856444  0.8670581994653331  1.0000
  H   H14       1.0  0.3652526070456402  0.357461347326435  0.7957222831716848  1.0000
  H   H15       1.0  0.3496839578826041  0.33350051118384993  0.7095027541612352  1.0000
  H   H16       1.0  0.19882679915912857  0.2866489701089776  0.6187881551625337  1.0000
  H   H17       1.0  0.08480860353164127  0.46309650679016556  0.7766808179991144  1.0000
  H   H18       1.0  0.11878253580396599  0.4295585226416704  0.689565492642437  1.0000
  H   H19       1.0  0.7298981345062285  0.8138936492407468  0.2038566031039082  1.0000
  H   H20       1.0  0.33824994100756095  0.8268453828960673  0.7196951784453345  1.0000
  H   H21       1.0  0.32528717567321047  0.9074213535937546  0.6370646026818675  1.0000
  H   H22       1.0  0.8516206196746052  0.04017131176037494  0.20647511487949538  1.0000
  H   H23       1.0  0.4471651390802051  0.30693288928219425  0.27131845760871437  1.0000
  H   H24       1.0  0.7906838168767577  0.21752312039584604  0.281609773792077  1.0000
  H   H25       1.0  0.7019230580492888  0.9628782358119421  0.2519229011967851  1.0000
  H   H26       1.0  0.4713767485876374  0.965604814088657  0.1280575637609118  1.0000
  H   H27       1.0  0.5110273184598597  0.4933453795095487  0.8136357384402755  1.0000
  H   H28       1.0  0.4481240593484302  0.4976189366556625  0.760834444398398  1.0000
  H   H29       1.0  0.7985281746504426  0.902853212055845  0.8869800592181747  1.0000
  H   H30       1.0  0.0764072370105282  0.7523939352216188  0.7884191666719288  1.0000
  H   H31       1.0  0.8345855596435285  0.9517156798915701  0.5811670546730666  1.0000
  H   H32       1.0  0.924414771979812  0.9286274380266306  0.6319075837682321  1.0000
  H   H33       1.0  0.4201461320233903  0.28889099843974003  0.5863183037363767  1.0000
  H   H34       1.0  0.5981260755529758  0.384263853442654  0.22655884791529246  1.0000
  H   H35       1.0  0.36306361143244453  0.35589590653189157  0.6430774761513189  1.0000
  H   H36       1.0  0.07625477190007497  0.47693754623385587  0.8440306947748225  1.0000
  H   H37       1.0  0.0683325768870091  0.4190501856913187  0.8993149549172229  1.0000
  H   H38       1.0  0.16768282481118743  0.9207621593824413  0.8602687549505531  1.0000
  H   H39       1.0  0.09858279197036521  0.022437209386630703  0.9092356809738006  1.0000
  H   H40       1.0  0.3503641987527146  0.7549889362578879  0.7947047615395632  1.0000
  H   H41       1.0  0.33767175585583686  0.8381151245502567  0.843884451238388  1.0000
  H   H42       1.0  0.9473849561099568  0.6006591873704609  0.24860985800167867  1.0000
  H   H43       1.0  0.9071519121014617  0.5685474290173855  0.30198418205829813  1.0000
  H   H44       1.0  0.9321807431756994  0.34998329574548837  0.16109227593239686  1.0000
  H   H45       1.0  0.1482140439441366  0.347053781764096  0.22949245920195688  1.0000
  H   H46       1.0  0.0253662652422193  0.2800636745767804  0.29813576756185256  1.0000
  H   H47       1.0  0.3678383150786145  0.14932101092374236  0.25778633856453576  1.0000
  H   H48       1.0  0.22140820090435645  0.9338053222816073  0.2542674800364678  1.0000
  H   H49       1.0  0.9994353723901028  0.13409947002695316  0.22721409126858558  1.0000
  H   H50       1.0  0.33353236901386646  0.37217512542305553  0.47959174845271946  1.0000
  H   H51       1.0  0.007400022803139395  0.9628566497020827  0.009608074167189798  1.0000
  C   C1        1.0  0.3005986980275708  0.0630882658455221  0.4312519170882466  1.0000
  C   C2        1.0  0.6526101963117695  0.7077161244350804  0.3397482319413286  1.0000
  C   C3        1.0  0.8152549824399241  0.4415995530970491  0.21115388335494598  1.0000
  C   C4        1.0  0.7285433820987773  0.19757454706552127  0.2621859116526791  1.0000
  C   C5        1.0  0.6237366950243057  0.7698613101758269  0.4323291859518362  1.0000
  C   C6        1.0  0.7620708411757421  0.09917495430907049  0.22143730025798897  1.0000
  C   C7        1.0  0.6651329082654625  0.23449926927702353  0.0985863761249348  1.0000
  C   C8        1.0  0.6358934856780464  0.11888823898150502  0.3799536882744973  1.0000
  C   C9        1.0  0.6202297079028724  0.2907763566580855  0.2326903373964626  1.0000
  C   C10       1.0  0.6537044946625769  0.19317483225335505  0.19063032966254667  1.0000
  C   C11       1.0  0.5368219393595979  0.24806589448294156  0.25640831607503145  1.0000
  C   C12       1.0  0.6450246736696242  0.15445125156441725  0.28723639794296923  1.0000
  C   C13       1.0  0.6467720888703282  0.7235322986444501  0.38348741358164057  1.0000
  C   C14       1.0  0.5703741745755905  0.1495759723192692  0.21562846668817306  1.0000
  C   C15       1.0  0.6788142761673014  0.056466443344383783  0.2453341220867458  1.0000
  C   C16       1.0  0.6575624247096455  0.2150929043405796  0.14107416311655638  1.0000
  C   C17       1.0  0.6105174311507396  0.09678825799749553  0.42798967334352506  1.0000
  C   C18       1.0  0.6416090990709619  0.13453577864505928  0.33695507974537964  1.0000
  C   C19       1.0  0.09556044703614928  0.2190105038115817  0.27297007040729676  1.0000
  C   C20       1.0  0.16386597780203258  0.25559048357853703  0.23587443969320526  1.0000
  C   C21       1.0  0.08344462495045948  0.22779874119033391  0.1055957469187589  1.0000
  C   C22       1.0  0.26417802227079784  0.07185307964611808  0.38173834414137525  1.0000
  C   C23       1.0  0.08195769832103389  0.1357504929761149  0.23449666180059128  1.0000
  C   C24       1.0  0.7292234441156965  0.5672011776835149  0.2246029894867547  1.0000
  C   C25       1.0  0.14779935430296828  0.17488216299987158  0.19603534654520874  1.0000
  C   C26       1.0  0.20357470785585008  0.026379855359849127  0.2491756301035224  1.0000
  C   C27       1.0  0.21815099105459979  0.10843785070386501  0.28918287447621793  1.0000
  C   C28       1.0  0.27226640582262  0.062227886632193495  0.21222765910764707  1.0000
  C   C29       1.0  0.30246272198037616  0.0734594197558779  0.5719113546317728  1.0000
  C   C30       1.0  0.2857304392278762  0.14620505456117167  0.25074217913837055  1.0000
  C   C31       1.0  0.11438103023131418  0.2037615640275945  0.14742254769905117  1.0000
  C   C32       1.0  0.24699790746207384  0.08338333995534701  0.3384150966412278  1.0000
  C   C33       1.0  0.5886254032810712  0.6862699188418661  0.6402635457147666  1.0000
  C   C34       1.0  0.6035162861570881  0.6560482593211816  0.6893608997636066  1.0000
  C   C35       1.0  0.6581810936072116  0.6765996214634953  0.18946674968403698  1.0000
  C   C36       1.0  0.6295992014852415  0.6050908561437326  0.789568256579244  1.0000
  C   C37       1.0  0.5500206484585207  0.5803432742086301  0.760680692241486  1.0000
  C   C38       1.0  0.5394651578846704  0.6049938444248963  0.7120489250595766  1.0000
  C   C39       1.0  0.6477202872757672  0.5764642589964025  0.8386619666997815  1.0000
  C   C40       1.0  0.7122430448782139  0.6138454031952278  0.8676434102653231  1.0000
  C   C41       1.0  0.6270415274950878  0.7778616669269953  0.5675969791399779  1.0000
  C   C42       1.0  0.7328499998884581  0.7574516999675325  0.6451056797122944  1.0000
  C   C43       1.0  0.747126462222468  0.7318593710936198  0.694545566544832  1.0000
  C   C44       1.0  0.682308159086375  0.6813673021866721  0.717317338065669  1.0000
  C   C45       1.0  0.8308262873811214  0.7482239786536624  0.7227499227691894  1.0000
  C   C46       1.0  0.769948747866124  0.6523358228885741  0.25506653668313106  1.0000
  C   C47       1.0  0.8442418276871633  0.7251006907405823  0.7713843044966281  1.0000
  C   C48       1.0  0.7674256747550103  0.6894124123606743  0.7968420511205493  1.0000
  C   C49       1.0  0.6942220030416378  0.6575116453941591  0.7676971695959053  1.0000
  C   C50       1.0  0.76096653722459  0.6834126010119591  0.8479740967785644  1.0000
  C   C51       1.0  0.6524009363216691  0.736306233159901  0.6182931509275634  1.0000
  C   C52       1.0  0.7473411388823832  0.05651222999507168  0.6405455042053346  1.0000
  C   C53       1.0  0.6192719769473171  0.09848358842705113  0.5668637520720735  1.0000
  C   C54       1.0  0.7598819498941578  0.08255138408692644  0.6897737107348689  1.0000
  C   C55       1.0  0.7796831860099543  0.12477037361469469  0.7894857649587478  1.0000
  C   C56       1.0  0.8832486354716593  0.051208866822747695  0.7604818438870493  1.0000
  C   C57       1.0  0.6563478211107563  0.6938731673375713  0.2889122962551554  1.0000
  C   C58       1.0  0.8728440676922632  0.02985943574122265  0.7127443449937515  1.0000
  C   C59       1.0  0.788050929505225  0.14639159804978866  0.8387101726606118  1.0000
  C   C60       1.0  0.6860996597009857  0.2250491757521687  0.8656827913399283  1.0000
  C   C61       1.0  0.5343683196975987  0.2168672247122175  0.643689578215465  1.0000
  C   C62       1.0  0.5417959889043827  0.22503457317572645  0.6950785635018589  1.0000
  C   C63       1.0  0.6553018524036388  0.16208525584015385  0.7171216894437934  1.0000
  C   C64       1.0  0.43873961854543336  0.29438496917330076  0.7248008547783157  1.0000
  C   C65       1.0  0.6182335869640311  0.6123878703571249  0.2583461970106312  1.0000
  C   C66       1.0  0.44627690879762844  0.30784007786310497  0.7736362896684739  1.0000
  C   C67       1.0  0.5601480732976682  0.2558634948071726  0.7962899963701274  1.0000
  C   C68       1.0  0.6968887062710464  0.7574513268484038  0.21992724013389867  1.0000
  C   C69       1.0  0.6647746107912552  0.1803947524052063  0.7675932048719645  1.0000
  C   C70       1.0  0.5728285962886872  0.27916072157801614  0.8450831176965322  1.0000
  C   C71       1.0  0.6353396194984454  0.12435147101339089  0.6168698772920321  1.0000
  C   C72       1.0  0.21485265657748437  0.212812008135927  0.642645157657121  1.0000
  C   C73       1.0  0.18862975067614224  0.23495489973438308  0.6922427969819864  1.0000
  C   C74       1.0  0.143027087179199  0.2753373395338769  0.7934917300180685  1.0000
  C   C75       1.0  0.1210995577377503  0.3715543359123146  0.7619957979240369  1.0000
  C   C76       1.0  0.14048772522271238  0.35355866529923224  0.7131798735829235  1.0000
  C   C77       1.0  0.5451253413847111  0.7195764316623536  0.2239703854747361  1.0000
  C   C78       1.0  0.11907283221837868  0.2967063152417707  0.8442911083754223  1.0000
  C   C79       1.0  0.5834060043459245  0.8016875347753539  0.25294825062140086  1.0000
  C   C80       1.0  0.1139661299770864  0.20569968067986363  0.872760872291579  1.0000
  C   C81       1.0  0.28539960503503176  0.998349038355002  0.6528458362828146  1.0000
  C   C82       1.0  0.2615568273369674  0.01662513649595355  0.7028711283203748  1.0000
  C   C83       1.0  0.2125240720942543  0.13628513887990581  0.7231769901842425  1.0000
  C   C84       1.0  0.29027446911992877  0.9190826530430626  0.7344289251910824  1.0000
  C   C85       1.0  0.2655635793561544  0.937032795679407  0.7833103421091606  1.0000
  C   C86       1.0  0.20515601557709567  0.05802879491937322  0.8041101343863913  1.0000
  C   C87       1.0  0.18736221792075713  0.15610250907541  0.7739613204769425  1.0000
  C   C88       1.0  0.15455491033191748  0.08644459379323881  0.8521326895868951  1.0000
  C   C89       1.0  0.6807611021108712  0.6378086790491935  0.09536242743307348  1.0000
  C   C90       1.0  0.665727898730246  0.661054884460498  0.1385934081016913  1.0000
  C   C91       1.0  0.2633295049238455  0.09538550027417611  0.6232663296999519  1.0000
  C   C92       1.0  0.7000988532918766  0.254193480505272  0.0517760110991148  1.0000
  C   C93       1.0  0.7111337884894126  0.5769692676162775  0.0490327496474094  1.0000
  C   C94       1.0  0.0325760557177404  0.253355241044126  0.0578077037593943  1.0000
  C   C95       1.0  0.7057394671630774  0.2548477390930515  0.9155022442849868  1.0000
  C   C96       1.0  0.7365982837556969  0.5632219510789014  0.9176266305303784  1.0000
  C   C97       1.0  0.054220425712991  0.23777645719967921  0.9199750811107065  1.0000
  C   C98       1.0  0.35247720639571867  0.9817350952513023  0.17323868610447588  1.0000
  C   C99       1.0  0.7757376498230214  0.7665330211263991  0.8825720360463336  1.0000
  C   C100      1.0  0.9548273594137414  0.7111378751240733  0.7940242419928225  1.0000
  N   N1        1.0  0.47869729619186774  0.5410525712162907  0.7829822333366607  1.0000
  N   N2        1.0  0.8431392221184878  0.9663362718204521  0.6167355369180995  1.0000
  N   N3        1.0  0.4325616838230672  0.2964634233059158  0.6222828358178845  1.0000
  N   N4        1.0  0.09686307602454748  0.4034147229737499  0.8643017627940778  1.0000
  N   N5        1.0  0.14527055037738987  0.0005581468977454142  0.8773319430202021  1.0000
  N   N6        1.0  0.29833443110777574  0.8353568807389988  0.8123919817428984  1.0000
  N   N7        1.0  0.8806657985497993  0.6260801328878783  0.2737109595619173  1.0000
  O   O1        1.0  0.5087066238781262  0.1701708892865667  0.44556390526457784  1.0000
  O   O2        1.0  0.8121288913645655  0.5505969810319018  0.029898658963432495  1.0000
  O   O3        1.0  0.009781682706716296  0.3554371577395869  0.039880998147061995  1.0000
  O   O4        1.0  0.31350917607102247  0.1494041253863543  0.4475823118440018  1.0000
  O   O5        1.0  0.013805635717730493  0.17202209826445614  0.9369940683891045  1.0000
  O   O6        1.0  0.7989167258555055  0.17856773643239884  0.9362869985638936  1.0000
  O   O7        1.0  0.6292467138006472  0.36016051429362517  0.9334557498382949  1.0000
  O   O8        1.0  0.6560677619497497  0.5465024932476155  0.9378008961574763  1.0000
  O   O9        1.0  0.8416295521025386  0.5243108514681865  0.9340642465705712  1.0000
  O   O10       1.0  0.03863387572548049  0.3343441126574617  0.9441193062718368  1.0000
  O   O11       1.0  0.8298614797392359  0.3402258284410424  0.9867958898353847  1.0000
  O   O12       1.0  0.5324054260955505  0.7874922769339676  0.548333115848031  1.0000
  O   O13       1.0  0.32109914837768366  0.9670128161661322  0.45406036008707656  1.0000
  O   O14       1.0  0.5275399975626485  0.7848575286551168  0.4526338675843178  1.0000
  O   O15       1.0  0.6977284726779232  0.7988011019309551  0.45076708820689493  1.0000
  O   O16       1.0  0.6918552462899398  0.0013192220236888737  0.4483200504270357  1.0000
  O   O17       1.0  0.5217768294415066  0.1668589751327899  0.5460711692031238  1.0000
  O   O18       1.0  0.3148007425810845  0.15470542574293947  0.550859665101882  1.0000
  O   O19       1.0  0.32691938768871853  0.9706776291638943  0.5518401496560797  1.0000
  O   O20       1.0  0.34523792189465746  0.8965817973916683  0.15584720312342878  1.0000
  O   O21       1.0  0.4301714865323588  0.017444472320164644  0.15633923358882382  1.0000
  O   O22       1.0  0.756175517574043  0.770454501801275  0.9260375173248505  1.0000
  O   O23       1.0  0.6977506926066538  0.8081292579036728  0.5469594660116498  1.0000
  O   O24       1.0  0.7974984825485759  0.8498279983635303  0.861039247037361  1.0000
  O   O25       1.0  0.007353931397034304  0.6431081076362374  0.8272957893321687  1.0000
  O   O26       1.0  0.0019158562078374027  0.7730081869868498  0.771683199472889  1.0000
  O   O27       1.0  0.839188666961668  0.3550645552249136  0.23702497533008676  1.0000
  O   O28       1.0  0.8707525799798361  0.4343174153529362  0.16860707736250188  1.0000
  O   O29       1.0  0.7034308352893672  0.002903801498398198  0.5439898688166521  1.0000
  O   O30       1.0  0.5033860920730361  0.9954476381169711  0.498701120229029  1.0000
  O   O31       1.0  0.011632929558928098  0.17457819864281984  0.039183104023536  1.0000
  O   O32       1.0  0.8032707156627553  0.1752939438599768  0.03712340113283831  1.0000
  O   O33       1.0  0.6272682187990384  0.3508497276941892  0.0297193202223909  1.0000
  O   O34       1.0  0.6363788898761625  0.5471937620239518  0.0319410659529424  1.0000
  O   O35       1.0  0.3227043178866963  0.32657647859053907  0.5048994790928915  1.0000
  O   O36       1.0  0.9904458599825078  0.008611676731085477  0.9803630089173864  1.0000
