data_image0
_chemical_formula_structural       Ni4H28C28N4O24
_chemical_formula_sum              "Ni4 H28 C28 N4 O24"
_cell_length_a       7.155508364018942
_cell_length_b       9.2050659690714
_cell_length_c       13.037956102096453
_cell_angle_alpha    89.99958747217308
_cell_angle_beta     90.00020625322523
_cell_angle_gamma    90.00014350172272

_space_group_name_H-M_alt    "P 1"
_space_group_IT_number       1

loop_
  _space_group_symop_operation_xyz
  'x, y, z'

loop_
  _atom_site_type_symbol
  _atom_site_label
  _atom_site_symmetry_multiplicity
  _atom_site_fract_x
  _atom_site_fract_y
  _atom_site_fract_z
  _atom_site_occupancy
  Ni  Ni1       1.0  0.11443591850194676  0.12524617212024222  0.26146331661282557  1.0000
  Ni  Ni2       1.0  0.38556542279304284  0.8747573650157534  0.7614594670703098  1.0000
  Ni  Ni3       1.0  0.8855656303410198  0.625243471869908  0.23853742946958784  1.0000
  Ni  Ni4       1.0  0.6144371957805886  0.3747536847518873  0.7385387244133453  1.0000
  H   H1        1.0  0.5891196985422835  0.9036321311955435  0.48938091513803517  1.0000
  H   H2        1.0  0.910880481436493  0.09635605256400483  0.9893774003583926  1.0000
  H   H3        1.0  0.410879928082572  0.4036433106440925  0.0106237275420824  1.0000
  H   H4        1.0  0.08911148165383048  0.5963691993078017  0.5106237974368495  1.0000
  H   H5        1.0  0.8446291995645651  0.09220322903028941  0.4655084205952134  1.0000
  H   H6        1.0  0.6553596530201273  0.9077884474494913  0.9654962442979877  1.0000
  H   H7        1.0  0.15537084820633848  0.592211929180067  0.03450247109809369  1.0000
  H   H8        1.0  0.3446276963256095  0.40779817444700234  0.5344902675715628  1.0000
  H   H9        1.0  0.45509134665428513  0.335530629712224  0.2798985221857605  1.0000
  H   H10       1.0  0.044911505814411584  0.6644705543050762  0.7798943043431236  1.0000
  H   H11       1.0  0.5449178491164728  0.8355285151209628  0.22010801469154725  1.0000
  H   H12       1.0  0.955096043538802  0.1644612174072222  0.7200980963846532  1.0000
  H   H13       1.0  0.8867971725422235  0.971787781448981  0.16705598531508764  1.0000
  H   H14       1.0  0.6132024178425936  0.028215506489885907  0.6670537414934613  1.0000
  H   H15       1.0  0.11319847516513448  0.4717865206349999  0.332946762955352  1.0000
  H   H16       1.0  0.386800511781196  0.528211971517891  0.8329462827503559  1.0000
  H   H17       1.0  0.8158797756666655  0.13449021260584715  0.13828827833765436  1.0000
  H   H18       1.0  0.684118239842462  0.865514443206543  0.6382863567586553  1.0000
  H   H19       1.0  0.18411201949984243  0.6344925090419906  0.36171471980640735  1.0000
  H   H20       1.0  0.31588714480727015  0.36550787430343235  0.8617149515842254  1.0000
  H   H21       1.0  0.08468818138984349  0.34577964308700604  0.1410734336282076  1.0000
  H   H22       1.0  0.41530543007777243  0.6542185539955697  0.6410738806974333  1.0000
  H   H23       1.0  0.9153098662964465  0.8457834287087849  0.3589238451211258  1.0000
  H   H24       1.0  0.5846923044982972  0.15421689524515617  0.8589270111248691  1.0000
  H   H25       1.0  0.20781394156116303  0.22901065416409952  0.08288453598318307  1.0000
  H   H26       1.0  0.292186298791833  0.7709913714435006  0.5828825736408374  1.0000
  H   H27       1.0  0.7921851375538436  0.729012537824417  0.41711336032985696  1.0000
  H   H28       1.0  0.7078145969348667  0.2709872166836504  0.9171177006135307  1.0000
  C   C1        1.0  0.2372884179258178  0.9162502334830548  0.4071981534993084  1.0000
  C   C2        1.0  0.26269984660432033  0.08375622289759123  0.9071997640154092  1.0000
  C   C3        1.0  0.7627000680091455  0.41624175769941735  0.09279951956514047  1.0000
  C   C4        1.0  0.7372962695463982  0.5837503069114975  0.5928076364025328  1.0000
  C   C5        1.0  0.3943422232150552  0.0240026139107599  0.3992952971837126  1.0000
  C   C6        1.0  0.10565717274051417  0.9759887108446892  0.8992880250284043  1.0000
  C   C7        1.0  0.605657610707638  0.5240126527798525  0.10070675130265977  1.0000
  C   C8        1.0  0.8943387756038844  0.47599454349371234  0.6007096310396418  1.0000
  C   C9        1.0  0.5665341531995266  0.002961969346607401  0.4460482599629926  1.0000
  C   C10       1.0  0.9334643621106408  0.9970288111781896  0.9460446310395623  1.0000
  C   C11       1.0  0.4334600246491361  0.5029710351138448  0.05395159882379368  1.0000
  C   C12       1.0  0.06652885715865858  0.4970377917440699  0.5539544477250258  1.0000
  C   C13       1.0  0.7060757227386388  0.10683758459794031  0.4325736267625046  1.0000
  C   C14       1.0  0.7939282995768618  0.8931522414681797  0.932563352044738  1.0000
  C   C15       1.0  0.29392996099781493  0.6068473258558528  0.06743181859737037  1.0000
  C   C16       1.0  0.20607158161109848  0.393160282781011  0.5674263052146171  1.0000
  C   C17       1.0  0.6681203545163539  0.2288239295356932  0.372588402252667  1.0000
  C   C18       1.0  0.8318874905713398  0.7711719153364103  0.872578085173998  1.0000
  C   C19       1.0  0.33188571165376857  0.7288244688094425  0.12741563098985859  1.0000
  C   C20       1.0  0.16811899579920456  0.271173861957223  0.6274122172272525  1.0000
  C   C21       1.0  0.4900727936186938  0.24311935619820702  0.3285413967823345  1.0000
  C   C22       1.0  0.0099317562308059  0.7568748336848118  0.8285312480203542  1.0000
  C   C23       1.0  0.509936112435298  0.7431252521917386  0.17146486181875525  1.0000
  C   C24       1.0  0.990073287789407  0.25687581991245884  0.6714591299950781  1.0000
  C   C25       1.0  0.8125308838465981  0.3420325032663812  0.349040851620252  1.0000
  C   C26       1.0  0.687475418548942  0.6579548811442494  0.8490361997839029  1.0000
  C   C27       1.0  0.18748671748377177  0.8420488187589257  0.15096488383920098  1.0000
  C   C28       1.0  0.3125321104013636  0.1579644906204507  0.6509547013705016  1.0000
  N   N1        1.0  0.3578402798990652  0.14231597499734513  0.3409092609449472  1.0000
  N   N2        1.0  0.14216015363817283  0.8576813529118824  0.8409019239565295  1.0000
  N   N3        1.0  0.6421711051468575  0.6423168246257307  0.15909369583525285  1.0000
  N   N4        1.0  0.8578382188229695  0.35768110943681114  0.6590940568495539  1.0000
  O   O1        1.0  0.08067755349015468  0.9596372411831383  0.3692494420455218  1.0000
  O   O2        1.0  0.4193188622008818  0.04036415481550651  0.8692431731371568  1.0000
  O   O3        1.0  0.9193208511779499  0.45963196619497654  0.13075720545605657  1.0000
  O   O4        1.0  0.5806799129322967  0.5403651588217784  0.6307529518826768  1.0000
  O   O5        1.0  0.2636288926415418  0.7930287881875487  0.44661035920948666  1.0000
  O   O6        1.0  0.23636240988827234  0.20695990077820173  0.9466120299182702  1.0000
  O   O7        1.0  0.7363550144313178  0.29303802713912575  0.05339026646026208  1.0000
  O   O8        1.0  0.76363549007808  0.7069707185180719  0.5533939518770977  1.0000
  O   O9        1.0  0.7496200595364184  0.4691875015733587  0.3329083197112012  1.0000
  O   O10       1.0  0.7503749632239687  0.5308174224417854  0.8329014040944142  1.0000
  O   O11       1.0  0.2503825676508598  0.9691766259781005  0.16710211225795038  1.0000
  O   O12       1.0  0.24962797454390534  0.030815884660960108  0.6670932374436589  1.0000
  O   O13       1.0  0.9856198483141723  0.30685966905998197  0.3457538008104989  1.0000
  O   O14       1.0  0.5143724585889514  0.693142956526373  0.8457478334005085  1.0000
  O   O15       1.0  0.0143724872561677  0.8068527927797223  0.15425058672005315  1.0000
  O   O16       1.0  0.48562400047906346  0.1931474481080002  0.6542436486476146  1.0000
  O   O17       1.0  0.852490803562304  0.06918897357410002  0.19490549237536203  1.0000
  O   O18       1.0  0.6475047659381375  0.9308107827495892  0.6949039157624879  1.0000
  O   O19       1.0  0.14750218439115054  0.5691950099570917  0.3050940161626058  1.0000
  O   O20       1.0  0.3524966308575656  0.4308081001801157  0.8050962802409952  1.0000
  O   O21       1.0  0.18780446164043238  0.2726319312201966  0.15133301179473335  1.0000
  O   O22       1.0  0.31219620071730236  0.7273759426941311  0.6513336230186936  1.0000
  O   O23       1.0  0.8121961517424479  0.7726269202228481  0.34866235286360586  1.0000
  O   O24       1.0  0.6878059557896988  0.22736915870542873  0.8486676489047934  1.0000
