data_image0
_chemical_formula_structural       Ba2H32C24Br4N4O4
_chemical_formula_sum              "Ba2 H32 C24 Br4 N4 O4"
_cell_length_a       7.39572327210835
_cell_length_b       10.903360702911383
_cell_length_c       10.903347865874517
_cell_angle_alpha    79.19201453658684
_cell_angle_beta     74.26234591282548
_cell_angle_gamma    74.26242834223599

_space_group_name_H-M_alt    "P 1"
_space_group_IT_number       1

loop_
  _space_group_symop_operation_xyz
  'x, y, z'

loop_
  _atom_site_type_symbol
  _atom_site_label
  _atom_site_symmetry_multiplicity
  _atom_site_fract_x
  _atom_site_fract_y
  _atom_site_fract_z
  _atom_site_occupancy
  Ba  Ba1       1.0  0.2500008455326608  0.12075546085379331  0.8792454641831426  1.0000
  Ba  Ba2       1.0  0.7500011272737906  0.8792423072571725  0.1207550588914117  1.0000
  H   H1        1.0  0.23467548902013408  0.6099244013722894  0.5282738410265465  1.0000
  H   H2        1.0  0.2653256808802595  0.4717225128971451  0.39007428730155874  1.0000
  H   H3        1.0  0.7653239959061794  0.3900723652807939  0.4717236787600356  1.0000
  H   H4        1.0  0.734684383194491  0.5282762335656059  0.6099254404663695  1.0000
  H   H5        1.0  0.003340914792382098  0.7554191006941622  0.6850891416879462  1.0000
  H   H6        1.0  0.4966619672557614  0.3149079065340672  0.24457827513062813  1.0000
  H   H7        1.0  0.9966557433737294  0.24457762461010193  0.3149052479388672  1.0000
  H   H8        1.0  0.5033470223189627  0.6850898591452079  0.7554200144292125  1.0000
  H   H9        1.0  0.8274641836739962  0.6570430153988696  0.8934107924105277  1.0000
  H   H10       1.0  0.6725356574384591  0.1065862184578066  0.3429584037289146  1.0000
  H   H11       1.0  0.17253220714427195  0.3429585599806586  0.1065872712774052  1.0000
  H   H12       1.0  0.32746346720779257  0.8934077241418662  0.6570452471670761  1.0000
  H   H13       1.0  0.9015005804599029  0.41667349532665543  0.9422327973116892  1.0000
  H   H14       1.0  0.5985005373175484  0.05776621273773229  0.5833269431738441  1.0000
  H   H15       1.0  0.09850807934969208  0.5833252496987245  0.05776719426983584  1.0000
  H   H16       1.0  0.40149194907040464  0.9422305948211261  0.4166764679143995  1.0000
  H   H17       1.0  0.5365992842470461  0.24397765202676425  0.9787912685404122  1.0000
  H   H18       1.0  0.9633952275694712  0.0212148261396337  0.7560233606273811  1.0000
  H   H19       1.0  0.4633939773907587  0.7560249190611755  0.021210853689865392  1.0000
  H   H20       1.0  0.03659875601585601  0.9787896569852704  0.2439773295989767  1.0000
  H   H21       1.0  0.6511293084429042  0.390282740989079  0.8509120540183089  1.0000
  H   H22       1.0  0.8488678921107323  0.1490923803507513  0.6097148202872233  1.0000
  H   H23       1.0  0.34886429663245627  0.6097188796083232  0.14909110953050228  1.0000
  H   H24       1.0  0.1511264121247536  0.8509111041910059  0.390282339023976  1.0000
  H   H25       1.0  0.48967604253869734  0.39795515657643676  0.7526285781947166  1.0000
  H   H26       1.0  0.010323001666272102  0.24737586771045272  0.6020399659690056  1.0000
  H   H27       1.0  0.5103199788845602  0.6020435755126385  0.2473737877091508  1.0000
  H   H28       1.0  0.9896748284895626  0.7526295221244724  0.3979543192643361  1.0000
  H   H29       1.0  0.40975088846742846  0.4875162886948063  0.8870098867121212  1.0000
  H   H30       1.0  0.09025024484849813  0.11298945217268398  0.5124851906156351  1.0000
  H   H31       1.0  0.5902466119232843  0.5124900804862237  0.11298610054290491  1.0000
  H   H32       1.0  0.9097489194276492  0.8870083130635467  0.4875158600861054  1.0000
  C   C1        1.0  0.18333726658602265  0.4370309330912789  0.6528286831694814  1.0000
  C   C2        1.0  0.316664736488292  0.3471686852591064  0.5629677596541639  1.0000
  C   C3        1.0  0.8166699798434751  0.5629677912596948  0.3471697433321593  1.0000
  C   C4        1.0  0.6833354398706036  0.6528261900314264  0.43703275721622237  1.0000
  C   C5        1.0  0.15468168146095004  0.5704131780080745  0.6196890962776179  1.0000
  C   C6        1.0  0.34532017155806477  0.3803095405679572  0.4295844110352504  1.0000
  C   C7        1.0  0.8453185390853192  0.4295855295375404  0.38030973484525527  1.0000
  C   C8        1.0  0.6546902405117124  0.6196882650227807  0.5704172724979556  1.0000
  C   C9        1.0  0.028117105248298968  0.6513281562015152  0.7066786726306019  1.0000
  C   C10       1.0  0.4718824799915995  0.2933198217376543  0.34867075675912657  1.0000
  C   C11       1.0  0.9718743462695232  0.34867149321043195  0.29332070005529703  1.0000
  C   C12       1.0  0.5281237589126279  0.7066818021775348  0.6513291180206051  1.0000
  C   C13       1.0  0.9316771775642892  0.5972318613615571  0.8239800051790453  1.0000
  C   C14       1.0  0.5683238819460499  0.17601903735589272  0.4027655562351596  1.0000
  C   C15       1.0  0.06831916450912708  0.4027658721443714  0.1760188298096637  1.0000
  C   C16       1.0  0.43167774286536836  0.8239796716270857  0.5972330110741239  1.0000
  C   C17       1.0  0.971021026516084  0.4637898988259722  0.8506753448907246  1.0000
  C   C18       1.0  0.5289816960245447  0.1493231812621687  0.5362108711987402  1.0000
  C   C19       1.0  0.028987637850988925  0.5362088558179322  0.1493255611375375  1.0000
  C   C20       1.0  0.4710220199271262  0.8506736281771057  0.4637895149340139  1.0000
  C   C21       1.0  0.5000348740792122  0.39709620177895727  0.8513427180665117  1.0000
  C   C22       1.0  0.99996239555437  0.1486603770832815  0.6029047394113503  1.0000
  C   C23       1.0  0.499957709798437  0.6029082895270932  0.1486591504201726  1.0000
  C   C24       1.0  3.366549877628998e-05  0.8513421776423443  0.39709502629825977  1.0000
  Br  Br1       1.0  0.3065393986834266  0.05287388964013931  0.18114582927250217  1.0000
  Br  Br2       1.0  0.19346047729308685  0.818855244075252  0.9471239486147097  1.0000
  Br  Br3       1.0  0.6934633006280251  0.9471258001263081  0.8188541762448622  1.0000
  Br  Br4       1.0  0.8065390609355562  0.18114537406994913  0.05287371431783335  1.0000
  N   N1        1.0  0.09446863754953234  0.3844724066062426  0.76828747069991  1.0000
  N   N2        1.0  0.4055354768161977  0.2317116540148092  0.6155273250523904  1.0000
  N   N3        1.0  0.9055410876451406  0.6155272999655637  0.23171213019622885  1.0000
  N   N4        1.0  0.5944692557757068  0.7682822750972917  0.3844734416957463  1.0000
  O   O1        1.0  0.4360139571090116  0.28906921446959905  0.9305608980943274  1.0000
  O   O2        1.0  0.06397923986566671  0.06944588990002391  0.7109355282339748  1.0000
  O   O3        1.0  0.5639744763904702  0.7109391432535119  0.06944373387258207  1.0000
  O   O4        1.0  0.9360123364867193  0.9305615009702491  0.28906778853080084  1.0000
