data_image0
_chemical_formula_structural       Zn10H80C72N4O38
_chemical_formula_sum              "Zn10 H80 C72 N4 O38"
_cell_length_a       13.645113216325742
_cell_length_b       14.247346881889
_cell_length_c       14.637890347637835
_cell_angle_alpha    76.11682960540904
_cell_angle_beta     86.46068192353569
_cell_angle_gamma    68.05820213484917

_space_group_name_H-M_alt    "P 1"
_space_group_IT_number       1

loop_
  _space_group_symop_operation_xyz
  'x, y, z'

loop_
  _atom_site_type_symbol
  _atom_site_label
  _atom_site_symmetry_multiplicity
  _atom_site_fract_x
  _atom_site_fract_y
  _atom_site_fract_z
  _atom_site_occupancy
  Zn  Zn1       1.0  0.6668760568304746  0.1426675980939152  0.2290020450746795  1.0000
  Zn  Zn2       1.0  0.014271482626817444  0.3723737956052632  0.13993547681840815  1.0000
  Zn  Zn3       1.0  0.8475409671072355  0.24302158620942999  0.225214056667447  1.0000
  Zn  Zn4       1.0  0.2628428263132321  0.23462041273479173  0.10845741041212159  1.0000
  Zn  Zn5       1.0  0.5126045541941763  0.05176794393025121  0.12518903067677195  1.0000
  Zn  Zn6       1.0  0.33312405790530875  0.8573325762032409  0.7709979746670825  1.0000
  Zn  Zn7       1.0  0.9857286316348065  0.6276263787052941  0.8600638597890862  1.0000
  Zn  Zn8       1.0  0.15245914810270728  0.7569785880743182  0.774786646208568  1.0000
  Zn  Zn9       1.0  0.737157287948392  0.7653797615757727  0.8915419261953729  1.0000
  Zn  Zn10      1.0  0.48739482643529897  0.9482322299494258  0.8748110318442384  1.0000
  H   H1        1.0  0.8732519892453395  0.5572193289744122  0.013527034032236368  1.0000
  H   H2        1.0  0.6356121148370305  0.928319622783107  0.004241482642726145  1.0000
  H   H3        1.0  0.43352288129185707  0.20743271875055314  0.2162589130490318  1.0000
  H   H4        1.0  0.32444906829292824  0.23474558886202598  0.2687620334305194  1.0000
  H   H5        1.0  0.6658891339567601  0.5356086903407302  0.07216810918513518  1.0000
  H   H6        1.0  0.7428038247486839  0.9561307698457853  0.5086759327866375  1.0000
  H   H7        1.0  0.12712263927615203  0.5439084369075289  0.08378555383021784  1.0000
  H   H8        1.0  0.25483528035142905  0.4513270418222888  0.1255118804571467  1.0000
  H   H9        1.0  0.17927444536446296  0.0639657942993068  0.941007451874128  1.0000
  H   H10       1.0  0.3550941588340564  0.9300128929635463  0.1021240678056046  1.0000
  H   H11       1.0  0.2503630850442704  0.012376436444355902  0.1589907350317077  1.0000
  H   H12       1.0  0.9324645624534823  0.9146731751123197  0.7485512879443235  1.0000
  H   H13       1.0  0.18778389629336084  0.3823614590405172  0.273056908523479  1.0000
  H   H14       1.0  0.1466535154028746  0.5198450510794359  0.2564951299479645  1.0000
  H   H15       1.0  0.7227669858934149  0.8407361271215733  0.18896087094181976  1.0000
  H   H16       1.0  0.7002614067105242  0.7780620801147722  0.10519121231421015  1.0000
  H   H17       1.0  0.9212584241754911  0.30398772165519716  0.39180094969287177  1.0000
  H   H18       1.0  0.8409445995014408  0.422435718613123  0.3164157719978461  1.0000
  H   H19       1.0  0.44897012176543427  0.06476680654586892  0.34642313389057466  1.0000
  H   H20       1.0  0.5820966478444162  0.0282084051629141  0.3847660591482125  1.0000
  H   H21       1.0  0.7918421267553412  0.1754527757338522  0.88352261985694  1.0000
  H   H22       1.0  0.5345184847315634  0.8729720625051273  0.38339757042631106  1.0000
  H   H23       1.0  0.6445344800453296  0.8806365563082109  0.31441253478400444  1.0000
  H   H24       1.0  0.8616795482631261  0.270456684531446  0.9706430240013333  1.0000
  H   H25       1.0  0.9191236632274736  0.1536220945399975  0.4985498180140908  1.0000
  H   H26       1.0  0.34373897354790717  0.7508730769775342  0.03256955205566207  1.0000
  H   H27       1.0  0.9902069794538589  0.05841598167131681  0.6625674093076553  1.0000
  H   H28       1.0  0.9170688461858205  0.018996686172606303  0.8342808571410528  1.0000
  H   H29       1.0  0.36337208219623557  0.9881777294760071  0.28967696273208077  1.0000
  H   H30       1.0  0.3813387494042431  0.8629464064509237  0.2745163609019129  1.0000
  H   H31       1.0  0.41525162006398375  0.42826391839422945  0.17669267258298044  1.0000
  H   H32       1.0  0.5162423569811807  0.8172237314170374  0.1465316008384363  1.0000
  H   H33       1.0  0.5959741852068704  0.7523571282437302  0.2512899512350799  1.0000
  H   H34       1.0  0.800206272596341  0.542853350997959  0.1971171209574365  1.0000
  H   H35       1.0  0.8102872330328096  0.6537513124735315  0.11586509322419394  1.0000
  H   H36       1.0  0.9183536911513243  0.6037516413643829  0.2678472524479146  1.0000
  H   H37       1.0  0.9876838259007881  0.614720404978037  0.16136502065307207  1.0000
  H   H38       1.0  0.9838791206465914  0.45193726025078734  0.3837193016485969  1.0000
  H   H39       1.0  0.0802605219802004  0.33755574953755746  0.3566629767092451  1.0000
  H   H40       1.0  0.2823344079797891  0.6089048041905728  0.11858932521764125  1.0000
  H   H41       1.0  0.1267481250162845  0.44278084533614487  0.9864723025752582  1.0000
  H   H42       1.0  0.3643879994245935  0.0716805515274572  0.9957578539647753  1.0000
  H   H43       1.0  0.5664762057118369  0.7925682334979242  0.7837403014415684  1.0000
  H   H44       1.0  0.6755503123365473  0.7652545850176439  0.7312380290904839  1.0000
  H   H45       1.0  0.3341109812531755  0.46439148394301816  0.9278325936908797  1.0000
  H   H46       1.0  0.25719629046125186  0.043869404437963104  0.4913247700893776  1.0000
  H   H47       1.0  0.8728777686112607  0.45609095903422764  0.91621463080768  1.0000
  H   H48       1.0  0.7451648343843544  0.5486731324748604  0.8744881392846082  1.0000
  H   H49       1.0  0.820725668897161  0.9360343800112504  0.058991884733366334  1.0000
  H   H50       1.0  0.6449062495275157  0.06998650296479518  0.8978767999665535  1.0000
  H   H51       1.0  0.7496373228431421  0.9876229594974008  0.8410094496061901  1.0000
  H   H52       1.0  0.06753511180178148  0.0853262203985494  0.2514496226070904  1.0000
  H   H53       1.0  0.8122159252907932  0.6176394936120388  0.7269429463221327  1.0000
  H   H54       1.0  0.8533458657007669  0.48015512278683287  0.7435056157072992  1.0000
  H   H55       1.0  0.27723283521658715  0.15926482554438337  0.8110383007695318  1.0000
  H   H56       1.0  0.2997387075511071  0.2219380941957922  0.8948081242932842  1.0000
  H   H57       1.0  0.07874242514075992  0.6960124530460305  0.6081997104038946  1.0000
  H   H58       1.0  0.15905551523434266  0.5775644556840334  0.6835842477439087  1.0000
  H   H59       1.0  0.5510310202282792  0.9352325898133671  0.6535770079680745  1.0000
  H   H60       1.0  0.41790449462345675  0.9717909911829141  0.615234765844697  1.0000
  H   H61       1.0  0.2081582811320715  0.8245466202078974  0.11647756478096474  1.0000
  H   H62       1.0  0.46548192315584913  0.1270273334366294  0.6166026142115939  1.0000
  H   H63       1.0  0.3554659278420829  0.11936283963354553  0.6855876498539002  1.0000
  H   H64       1.0  0.1383205659985052  0.7295434897791111  0.029356312606168385  1.0000
  H   H65       1.0  0.08087674465993902  0.846377301401759  0.5014503666238143  1.0000
  H   H66       1.0  0.6562606992848855  0.249126318573552  0.9674293090929706  1.0000
  H   H67       1.0  0.009793721585182866  0.9415826359150401  0.3374329402263924  1.0000
  H   H68       1.0  0.08293053444366183  0.9810034877070636  0.16571920537995766  1.0000
  H   H69       1.0  0.6366290597974852  0.0118216668832289  0.7103231791265756  1.0000
  H   H70       1.0  0.6186616584831697  0.13705298949083303  0.725483823735985  1.0000
  H   H71       1.0  0.5847492287781081  0.5717362563204063  0.8233073043795258  1.0000
  H   H72       1.0  0.4837570236482945  0.18277644246263947  0.8534684616825743  1.0000
  H   H73       1.0  0.4040266636352214  0.24764304647090543  0.7487100257274264  1.0000
  H   H74       1.0  0.19979310803314107  0.45714682288171826  0.8028829415635668  1.0000
  H   H75       1.0  0.18971288170297382  0.34624886182362496  0.8841349265175606  1.0000
  H   H76       1.0  0.08164568947815805  0.3962485325152941  0.7321528100730957  1.0000
  H   H77       1.0  0.012315261102905616  0.3852805472704404  0.838634193837528  1.0000
  H   H78       1.0  0.016121728195500357  0.5480629144638485  0.6162806753139023  1.0000
  H   H79       1.0  0.9197392991297945  0.6624452031283995  0.6433361950021066  1.0000
  H   H80       1.0  0.7176659994334639  0.3910945917645847  0.8814101762860033  1.0000
  C   C1        1.0  0.1303562453185877  0.9389540749291496  0.8527339269149293  1.0000
  C   C2        1.0  0.0635736371031541  0.22991750189272867  0.014472656465187585  1.0000
  C   C3        1.0  0.5819791381957485  0.5517953020552682  0.08279795080144231  1.0000
  C   C4        1.0  0.7961334947325298  0.9794248289646887  0.5423556716353628  1.0000
  C   C5        1.0  0.6273334240451831  0.3640532700083199  0.16139323716685539  1.0000
  C   C6        1.0  0.17001969029269764  0.46509756919041223  0.12752965904498123  1.0000
  C   C7        1.0  0.09445535929670969  0.08839764116095954  0.928560998355735  1.0000
  C   C8        1.0  0.3357925064365758  0.9869130833340307  0.14663302968552466  1.0000
  C   C9        1.0  0.9031394745706363  0.957033498239916  0.6772655463189989  1.0000
  C   C10       1.0  0.8332187149303676  0.9281248686402604  0.6346761098384944  1.0000
  C   C11       1.0  0.13652367437146037  0.4574470287610453  0.22990811132115138  1.0000
  C   C12       1.0  0.6631649310188408  0.8408838718624805  0.1412989024003366  1.0000
  C   C13       1.0  0.920229938474094  0.3596533349919398  0.3244667668683618  1.0000
  C   C14       1.0  0.5322570166634647  0.0298426221471928  0.3276290529328207  1.0000
  C   C15       1.0  0.0556917810066935  0.0321277993447993  0.8838348100711002  1.0000
  C   C16       1.0  0.8765529904371546  0.1511103867293642  0.8964859522557802  1.0000
  C   C17       1.0  0.5585100783001662  0.9180265862707274  0.3195128806065454  1.0000
  C   C18       1.0  0.9149350558731371  0.20497901201100888  0.9436626782098614  1.0000
  C   C19       1.0  0.8265004005373696  0.061280925904675605  0.4940131421746017  1.0000
  C   C20       1.0  0.5080442982993387  0.6522545203120703  0.04922833650739014  1.0000
  C   C21       1.0  0.7940901560790439  0.8467619291796068  0.6907902367553189  1.0000
  C   C22       1.0  0.02409139053228421  0.17370372363544817  0.9599453574809045  1.0000
  C   C23       1.0  0.5480675793467426  0.4715931949970413  0.12818977284263156  1.0000
  C   C24       1.0  0.895454599441841  0.09059614746795569  0.5378337267475786  1.0000
  C   C25       1.0  0.3999663953660287  0.6724764520688  0.06178612815158856  1.0000
  C   C26       1.0  0.934647686298497  0.037566760362203404  0.628980053163808  1.0000
  C   C27       1.0  0.9465120987056251  0.0637510590696024  0.868209278318055  1.0000
  C   C28       1.0  0.3949145315799142  0.9355196864253372  0.24217695442818868  1.0000
  C   C29       1.0  0.4399375799639528  0.4922300308259437  0.14158202242513335  1.0000
  C   C30       1.0  0.5691233374896852  0.8251080178812913  0.19529466024442138  1.0000
  C   C31       1.0  0.8543049322100487  0.5725255095735662  0.15103618555872342  1.0000
  C   C32       1.0  0.9476073326968116  0.5679700620172384  0.20732100643427026  1.0000
  C   C33       1.0  0.7884864885601173  0.115357466091119  0.39512208547881755  1.0000
  C   C34       1.0  0.5444600911501282  0.7370033809774557  0.9978577972871886  1.0000
  C   C35       1.0  0.006078802511097971  0.4031245747446235  0.3315475260020976  1.0000
  C   C36       1.0  0.36640382176508984  0.5928560637427083  0.10880746014412064  1.0000
  C   C37       1.0  0.8696428421592657  0.061046877305919595  0.1472659707099311  1.0000
  C   C38       1.0  0.9364264776326295  0.7700826724044276  0.9855273632765742  1.0000
  C   C39       1.0  0.4180209770141943  0.4482048722284731  0.9172027520745729  1.0000
  C   C40       1.0  0.2038658858969526  0.020575344914988098  0.4576443908856405  1.0000
  C   C41       1.0  0.3726677184226901  0.635946126337508  0.838607587826054  1.0000
  C   C42       1.0  0.8299796903367778  0.5349026046892575  0.872470403476022  1.0000
  C   C43       1.0  0.9055440213327656  0.9116025327187104  0.07143906416526846  1.0000
  C   C44       1.0  0.6642079014508367  0.013086312607725902  0.8533671549523802  1.0000
  C   C45       1.0  0.09686093331677628  0.04296589770183351  0.32273463831890575  1.0000
  C   C46       1.0  0.1667799311186471  0.07187530483533781  0.36532331232750437  1.0000
  C   C47       1.0  0.8634764408384824  0.5425531455227031  0.7700925915548638  1.0000
  C   C48       1.0  0.336834596939525  0.15911785915887577  0.8587001044148721  1.0000
  C   C49       1.0  0.07977017626168954  0.6403468393052165  0.6755332528733929  1.0000
  C   C50       1.0  0.46774309807231856  0.9701575521499636  0.6723709668089339  1.0000
  C   C51       1.0  0.9443090683095575  0.9678723753564284  0.11616585002566639  1.0000
  C   C52       1.0  0.12344639019232767  0.8488897871503056  0.10351411026523037  1.0000
  C   C53       1.0  0.441490036435617  0.0819735880264219  0.6804871391352093  1.0000
  C   C54       1.0  0.08506432428218601  0.7950211618820686  0.056336701176881845  1.0000
  C   C55       1.0  0.1734989800921055  0.9387192479750013  0.5059869203464017  1.0000
  C   C56       1.0  0.4919555228106558  0.3477464323538869  0.9507708352039612  1.0000
  C   C57       1.0  0.20590995913089927  0.1532382451041414  0.3092104661206959  1.0000
  C   C58       1.0  0.9759087242034991  0.8262964506617011  0.04005466226085023  1.0000
  C   C59       1.0  0.4519325353890407  0.5284069793001152  0.8718102468991231  1.0000
  C   C60       1.0  0.10454580844557161  0.9094032484738009  0.4621664578903263  1.0000
  C   C61       1.0  0.6000329847892942  0.327523721824278  0.9382132512351616  1.0000
  C   C62       1.0  0.06535198795676668  0.9624326351486588  0.37102085738760593  1.0000
  C   C63       1.0  0.05348757507548628  0.9362483364546677  0.1317909490990914  1.0000
  C   C64       1.0  0.6050855831558694  0.064480487871819  0.7578230653135662  1.0000
  C   C65       1.0  0.5600632688781317  0.5077701438886919  0.8584179545373729  1.0000
  C   C66       1.0  0.43087751135239927  0.17489215683334436  0.8047053167180849  1.0000
  C   C67       1.0  0.14569518205157547  0.4274746647369981  0.8489631510487711  1.0000
  C   C68       1.0  0.05239278156481216  0.4320301122933259  0.7926783301732312  1.0000
  C   C69       1.0  0.21151465390776278  0.8846419302547089  0.604878739514092  1.0000
  C   C70       1.0  0.4555389963277178  0.2629975712576211  0.002142100337671588  1.0000
  C   C71       1.0  0.9939213122246856  0.5968755995525328  0.6684524937396644  1.0000
  C   C72       1.0  0.6335962924965343  0.40714411056785593  0.8911918764633739  1.0000
  N   N1        1.0  0.5087540504895995  0.9161253936785914  0.23371091869672958  1.0000
  N   N2        1.0  0.02664048487292793  0.4613611485289583  0.23944874805289368  1.0000
  N   N3        1.0  0.4912457710945545  0.08387555897396483  0.7662889361488752  1.0000
  N   N4        1.0  0.9733596298628554  0.5386390257681909  0.760551271688868  1.0000
  O   O1        1.0  0.818317325824708  0.8178254779837957  0.7792039633106638  1.0000
  O   O2        1.0  0.3613983029418648  0.07426049271903422  0.09780770639296318  1.0000
  O   O3        1.0  0.6432064327385872  0.7165104891548283  0.9947589421377144  1.0000
  O   O4        1.0  0.15056228256743512  0.39050990935484003  0.0885212030793738  1.0000
  O   O5        1.0  0.7378258161022798  0.815202390307242  0.6491536634195328  1.0000
  O   O6        1.0  0.8912865640034794  0.5124516965256163  0.08235038264016478  1.0000
  O   O7        1.0  0.940324276733442  0.3098216135878716  0.24856665614537118  1.0000
  O   O8        1.0  0.9919584690339817  0.2914817326905564  0.05619448902079678  1.0000
  O   O9        1.0  0.4712642362942601  0.8245777992551171  0.9623000351585062  1.0000
  O   O10       1.0  0.08946495725599125  0.8858225458067042  0.8202337350964297  1.0000
  O   O11       1.0  0.5915469034333966  0.2932594156171504  0.19966479848876154  1.0000
  O   O12       1.0  0.16141163865533056  0.21343495443712607  0.014734344791740711  1.0000
  O   O13       1.0  0.6294024366914143  0.9384268945442714  0.07319759262284718  1.0000
  O   O14       1.0  0.5497713856793139  0.09246898810905439  0.2405790455787624  1.0000
  O   O15       1.0  0.8074337340322871  0.1970845973148201  0.3579512259488807  1.0000
  O   O16       1.0  0.7246033400325517  0.3506348971001643  0.1492541670373412  1.0000
  O   O17       1.0  0.2291561736399713  0.9197222095067591  0.8598216282173111  1.0000
  O   O18       1.0  0.7396713336598284  0.07516448814799048  0.35369868953156197  1.0000
  O   O19       1.0  0.3587582597543104  0.2569299142553376  0.20823382344993044  1.0000
  O   O20       1.0  0.181682348430563  0.1821739175270665  0.22079694724074983  1.0000
  O   O21       1.0  0.6386021049455477  0.9257389032227225  0.9021924782449416  1.0000
  O   O22       1.0  0.35679368199719613  0.2834896851423281  0.005241077604040384  1.0000
  O   O23       1.0  0.8494378321683482  0.6094902649423093  0.9114788166623811  1.0000
  O   O24       1.0  0.2621745913109733  0.1847970056479227  0.3508458380841119  1.0000
  O   O25       1.0  0.10871281662599591  0.48754847735406054  0.9176496798808386  1.0000
  O   O26       1.0  0.059675838002341594  0.6901785607092848  0.7514333635963837  1.0000
  O   O27       1.0  0.008041204272970387  0.7085176628471219  0.9438050552620963  1.0000
  O   O28       1.0  0.5287351443352151  0.17542237462455287  0.037700027362497175  1.0000
  O   O29       1.0  0.9105347169992728  0.11417684970415824  0.17976717545498389  1.0000
  O   O30       1.0  0.40845423903447636  0.7067399807286778  0.8003360265041478  1.0000
  O   O31       1.0  0.8385884756062936  0.786565219873431  0.9852649918157537  1.0000
  O   O32       1.0  0.37059664983812013  0.061574057717614  0.9268009387334928  1.0000
  O   O33       1.0  0.45022872953062876  0.9075311861746941  0.7594216572972525  1.0000
  O   O34       1.0  0.19256593974882455  0.802914798209457  0.6420490014682726  1.0000
  O   O35       1.0  0.2753972161320631  0.6493660559564634  0.8507463281632751  1.0000
  O   O36       1.0  0.7708435006152924  0.08027718600411053  0.14017928233410254  1.0000
  O   O37       1.0  0.2603298083338926  0.9248349082112456  0.6463014523270941  1.0000
  O   O38       1.0  0.6412408277235359  0.743071037979732  0.7917660741749302  1.0000
