data_image0
_chemical_formula_structural       Sr2Cd4H32C48O28
_chemical_formula_sum              "Sr2 Cd4 H32 C48 O28"
_cell_length_a       10.591737685765718
_cell_length_b       14.323879588453355
_cell_length_c       14.7489
_cell_angle_alpha    87.8271813323703
_cell_angle_beta     68.98215421219098
_cell_angle_gamma    68.29879013686784

_space_group_name_H-M_alt    "P 1"
_space_group_IT_number       1

loop_
  _space_group_symop_operation_xyz
  'x, y, z'

loop_
  _atom_site_type_symbol
  _atom_site_label
  _atom_site_symmetry_multiplicity
  _atom_site_fract_x
  _atom_site_fract_y
  _atom_site_fract_z
  _atom_site_occupancy
  Sr  Sr1       1.0  0.4590458948603313  0.25001569703659504  0.7501116156534735  1.0000
  Sr  Sr2       1.0  0.5409543940460748  0.7499851064956575  0.24988956857863814  1.0000
  Cd  Cd1       1.0  0.5398443586940331  0.4600271288363089  0.6108280034605259  1.0000
  Cd  Cd2       1.0  0.6107454548942856  0.0400443284631038  0.8892440526572756  1.0000
  Cd  Cd3       1.0  0.4601567659099644  0.5399721628760901  0.38917234317442256  1.0000
  Cd  Cd4       1.0  0.38925584543551384  0.9599564750691556  0.11075619304963179  1.0000
  H   H1        1.0  0.6165931800946821  0.10460281590795262  0.5132387670772118  1.0000
  H   H2        1.0  0.23415554439307587  0.3955245787261604  0.9869066265949515  1.0000
  H   H3        1.0  0.3834085380839197  0.8953972317143696  0.48676139883944103  1.0000
  H   H4        1.0  0.7658427216665372  0.604476224806092  0.013093722620908558  1.0000
  H   H5        1.0  0.6281507976434783  0.971610338437074  0.4024133627139009  1.0000
  H   H6        1.0  0.0019395394622279075  0.5284430246463715  0.09767775429753564  1.0000
  H   H7        1.0  0.371851756232715  0.0283881973653948  0.5975873216389118  1.0000
  H   H8        1.0  0.9980607494441787  0.4715577788858809  0.902322073901246  1.0000
  H   H9        1.0  0.4523991215762067  0.1998058918548224  0.2345896057381651  1.0000
  H   H10       1.0  0.8867211534986481  0.30009699753052393  0.2654057290879025  1.0000
  H   H11       1.0  0.5476036744229802  0.8001903762178628  0.7654097437191114  1.0000
  H   H12       1.0  0.11327711256096507  0.6999038060017284  0.7345939421112959  1.0000
  H   H13       1.0  0.4453968268296152  0.3325595494106183  0.34191799334746525  1.0000
  H   H14       1.0  0.11977493669109412  0.1674151514179414  0.1580876006795933  1.0000
  H   H15       1.0  0.5546012635041963  0.667439742301781  0.6580817787797671  1.0000
  H   H16       1.0  0.8802223179451264  0.8325856521143182  0.8419116530114791  1.0000
  H   H17       1.0  0.5095323169724679  0.3381948579277037  0.9367074693900224  1.0000
  H   H18       1.0  0.784351597468735  0.1617911815497877  0.5631895252058712  1.0000
  H   H19       1.0  0.4904667183875517  0.6618082133343393  0.06329192016284681  1.0000
  H   H20       1.0  0.2156475042884765  0.8382081101626115  0.43680863037949547  1.0000
  H   H21       1.0  0.5390082016689349  0.6281830719841892  0.8860889127376056  1.0000
  H   H22       1.0  0.05331889374564015  0.871785629187265  0.6139073970374795  1.0000
  H   H23       1.0  0.46099107581407867  0.3718177315480632  0.1139118539863802  1.0000
  H   H24       1.0  0.9466802080115715  0.128213662525134  0.3860914365645486  1.0000
  H   H25       1.0  0.8398901777244208  0.3454447900520919  0.4807292640077492  1.0000
  H   H26       1.0  0.6660291696444176  0.15458584811117507  0.01937056255687958  1.0000
  H   H27       1.0  0.1601090997585929  0.6545560134801605  0.5192701466828993  1.0000
  H   H28       1.0  0.33396867856640017  0.8454157113310075  0.9806285104159047  1.0000
  H   H29       1.0  0.7621847115449042  0.43169184516590786  0.42571367915815744  1.0000
  H   H30       1.0  0.6196590247392707  0.0682843674825051  0.07431972521893475  1.0000
  H   H31       1.0  0.23781474166390384  0.568310470186205  0.574286308621126  1.0000
  H   H32       1.0  0.3803412641671358  0.9317164360497472  0.9256794249631783  1.0000
  C   C1        1.0  0.5317659251992808  0.2270148697317325  0.43409624314121237  1.0000
  C   C2        1.0  0.19260985529206923  0.2730112329719674  0.06592256139892783  1.0000
  C   C3        1.0  0.4682370465257081  0.7729829101608061  0.5659036834046915  1.0000
  C   C4        1.0  0.8073904336143372  0.726989570560292  0.934076588783185  1.0000
  C   C5        1.0  0.5822401947048306  0.1251560068642874  0.45153239650630195  1.0000
  C   C6        1.0  0.1586617792721867  0.3748965526869057  0.04853153778697113  1.0000
  C   C7        1.0  0.4177583134777835  0.8748425289381814  0.5484686518640133  1.0000
  C   C8        1.0  0.8413364867874263  0.6251042508453466  0.9514681334122274  1.0000
  C   C9        1.0  0.5889619270319173  0.0509082659557265  0.38990862962698  1.0000
  C   C10       1.0  0.02954209821734111  0.4491178367479733  0.11010933657111374  1.0000
  C   C11       1.0  0.41104045111846693  0.9490887580268891  0.6100907996205436  1.0000
  C   C12       1.0  0.9704561678422792  0.550882966784279  0.8898903346280775  1.0000
  C   C13       1.0  0.543913966352875  0.0774596021948284  0.31077322031948995  1.0000
  C   C14       1.0  0.9319408286149343  0.422501492255016  0.18915829268487278  1.0000
  C   C15       1.0  0.45608733397692447  0.9225412013374311  0.689226347370749  1.0000
  C   C16       1.0  0.06805904244267684  0.5775000671871666  0.8108416153041562  1.0000
  C   C17       1.0  0.4910912535879746  0.17937137875726714  0.29455970558697697  1.0000
  C   C18       1.0  0.9648613688633604  0.3205776211337223  0.2054288502689375  1.0000
  C   C19       1.0  0.5089102888648256  0.820627157045202  0.7054412392743858  1.0000
  C   C20       1.0  0.03513647934745732  0.6794239383084602  0.7945709007205084  1.0000
  C   C21       1.0  0.485477779177458  0.2537952466791751  0.35541150161559903  1.0000
  C   C22       1.0  0.09449913359466683  0.2461832336990284  0.14456533536234425  1.0000
  C   C23       1.0  0.5145219161543508  0.7462048009431543  0.6445891853181325  1.0000
  C   C24       1.0  0.9054987146161512  0.7538183257431541  0.8554337376104398  1.0000
  C   C25       1.0  0.5293047790764974  0.30615259196786593  0.4980760631659464  1.0000
  C   C26       1.0  0.3333905350957451  0.1939022353131179  0.002006036119446705  1.0000
  C   C27       1.0  0.47069491625531173  0.6938474556544636  0.5019232677344548  1.0000
  C   C28       1.0  0.6666101716594569  0.8060978123092115  0.9979950683224108  1.0000
  C   C29       1.0  0.5458684654505178  0.9976453881950036  0.24677441881685533  1.0000
  C   C30       1.0  0.7901735091494757  0.50234145481474  0.25308370668979313  1.0000
  C   C31       1.0  0.45413729842165657  0.0023546594273256  0.7532253830823096  1.0000
  C   C32       1.0  0.20982779118032382  0.4976593487175123  0.7469178950504373  1.0000
  C   C33       1.0  0.5501989863236076  0.4632352105729254  0.7957700957154046  1.0000
  C   C34       1.0  0.8090068843538916  0.0366480251542782  0.7041105953846769  1.0000
  C   C35       1.0  0.4498007090082012  0.5367648370493967  0.2042299132016653  1.0000
  C   C36       1.0  0.19099364667550853  0.9633505106481836  0.29588925395189153  1.0000
  C   C37       1.0  0.5275047672219842  0.4812961664949428  0.9006676020554636  1.0000
  C   C38       1.0  0.9093349014807686  0.0186346915577573  0.5992685094941381  1.0000
  C   C39       1.0  0.47249451026102224  0.5187046370373096  0.09933180863519206  1.0000
  C   C40       1.0  0.0906646181252384  0.9813638442447045  0.4007309223343044  1.0000
  C   C41       1.0  0.506381520971118  0.4086539782745434  0.964666498762384  1.0000
  C   C42       1.0  0.8796484732770865  0.0913350848426546  0.5352835221066243  1.0000
  C   C43       1.0  0.4936144801187083  0.5913490929874925  0.03533367231610649  1.0000
  C   C44       1.0  0.12035003490552751  0.9086634509598144  0.4647154922136921  1.0000
  C   C45       1.0  0.5211787199357971  0.5727574882956575  0.9367571697976445  1.0000
  C   C46       1.0  0.030672046928700104  0.9272097010559366  0.5632400259400046  1.0000
  C   C47       1.0  0.4788195461238162  0.4272433152365949  0.06324250140154676  1.0000
  C   C48       1.0  0.9693264612539139  0.0727888347465324  0.43675831036365054  1.0000
  O   O1        1.0  0.5017633016045479  0.3963711978461007  0.4755109830024793  1.0000
  O   O2        1.0  0.3736522667514564  0.10368438534480623  0.024554006275280912  1.0000
  O   O3        1.0  0.4982353823038681  0.6036288497762287  0.5244892864231332  1.0000
  O   O4        1.0  0.6263468350057552  0.8963149063675859  0.9754468613767387  1.0000
  O   O5        1.0  0.774972437923708  0.4160838169619226  0.48955423846483387  1.0000
  O   O6        1.0  0.6808728837848294  0.0838818129474959  0.010564400638173814  1.0000
  O   O7        1.0  0.22502624598470083  0.5839162306603995  0.510446030960779  1.0000
  O   O8        1.0  0.3191249644259883  0.9161197464946867  0.9894346723346034  1.0000
  O   O9        1.0  0.5581286343869182  0.282230310460136  0.575158754895938  1.0000
  O   O10       1.0  0.4154034186078448  0.21787591869598094  0.9250191736203706  1.0000
  O   O11       1.0  0.4418690380981047  0.7177697371621863  0.42484177503821047  1.0000
  O   O12       1.0  0.5846017516897322  0.7821233730164181  0.07498352106374279  1.0000
  O   O13       1.0  0.5164520644250105  0.025835489536795805  0.17004465106546018  1.0000
  O   O14       1.0  0.7123106827894007  0.4742578891505361  0.32988456521773923  1.0000
  O   O15       1.0  0.48354947802778986  0.974163046265673  0.8299556157792338  1.0000
  O   O16       1.0  0.2876903754174053  0.5257451821114998  0.6701163373680432  1.0000
  O   O17       1.0  0.5720726251863371  0.9093044625791933  0.2717376786716629  1.0000
  O   O18       1.0  0.7530087572792753  0.5906362699249073  0.22802432759734617  1.0000
  O   O19       1.0  0.4279308737160576  0.09069785277291233  0.7282639791401238  1.0000
  O   O20       1.0  0.24699230092753066  0.4093668013371358  0.7719752189551061  1.0000
  O   O21       1.0  0.5565133755023483  0.5337011341091298  0.7410592161506743  1.0000
  O   O22       1.0  0.8310978719870904  0.9662494252240423  0.7588841612039235  1.0000
  O   O23       1.0  0.44348757337585454  0.4662966457834159  0.2589391973623165  1.0000
  O   O24       1.0  0.16890729831048654  0.0337498664883569  0.2411144653801927  1.0000
  O   O25       1.0  0.5578981569312732  0.3786012672465588  0.763999222584623  1.0000
  O   O26       1.0  0.7002447301019288  0.1212555116331515  0.7358051475991588  1.0000
  O   O27       1.0  0.4421019562493314  0.6213980244658404  0.23599935050886248  1.0000
  O   O28       1.0  0.2997533602318826  0.8787437800792475  0.2641946245280736  1.0000
