data_image0
_chemical_formula_structural       CuH10C10Br2N6O2
_chemical_formula_sum              "Cu1 H10 C10 Br2 N6 O2"
_cell_length_a       3.8134777612931594
_cell_length_b       6.780397262616694
_cell_length_c       13.423424078324716
_cell_angle_alpha    103.00060763852596
_cell_angle_beta     87.92786603541754
_cell_angle_gamma    94.92960352864574

_space_group_name_H-M_alt    "P 1"
_space_group_IT_number       1

loop_
  _space_group_symop_operation_xyz
  'x, y, z'

loop_
  _atom_site_type_symbol
  _atom_site_label
  _atom_site_symmetry_multiplicity
  _atom_site_fract_x
  _atom_site_fract_y
  _atom_site_fract_z
  _atom_site_occupancy
  Cu  Cu1       1.0  0.49999224551442006  0.500001117128889  0.5000003678721541  1.0000
  H   H1        1.0  0.3253693073521902  0.5531908628366438  0.2966336006586232  1.0000
  H   H2        1.0  0.6746233672984092  0.44681302659567723  0.7033650515768031  1.0000
  H   H3        1.0  0.6303310440739693  0.8536841043291614  0.2184278010739362  1.0000
  H   H4        1.0  0.36968452433295346  0.1463139128967939  0.7815715147279292  1.0000
  H   H5        1.0  0.6326215672200489  0.059409053178690385  0.3992392335776388  1.0000
  H   H6        1.0  0.3673579017618778  0.9405932238371904  0.6007578094565673  1.0000
  H   H7        1.0  0.10815596763478644  0.3286137896965612  0.950375152297724  1.0000
  H   H8        1.0  0.8918445164950343  0.6713886994715138  0.04962179952084258  1.0000
  H   H9        1.0  0.33689652971664685  0.13277528846376901  0.9820803036401387  1.0000
  H   H10       1.0  0.663127104762779  0.8672228849561774  0.01791600554466296  1.0000
  C   C1        1.0  0.3915293981550859  0.39627421656126666  0.2794614892684208  1.0000
  C   C2        1.0  0.6084599476649827  0.6037235546336815  0.7205371974501986  1.0000
  C   C3        1.0  0.36706081018188286  0.2767836592479682  0.1802087826114303  1.0000
  C   C4        1.0  0.6329296795605472  0.7232218367604873  0.8197856024145338  1.0000
  C   C5        1.0  0.5569868031156204  0.0099758935467449  0.2351162699337692  1.0000
  C   C6        1.0  0.4430238890053033  0.9900280282449074  0.7648882473103668  1.0000
  C   C7        1.0  0.5626531728524852  0.12379296565800502  0.3359155096137414  1.0000
  C   C8        1.0  0.43734143011300125  0.8762077607399448  0.6640887160313511  1.0000
  C   C9        1.0  0.21850257389591118  0.37011790079980494  0.10090628419552419  1.0000
  C   C10       1.0  0.781505092335763  0.6298814783719493  0.8990962182287988  1.0000
  Br  Br1       1.0  0.9312587014284189  0.7366479745487878  0.44198191087134825  1.0000
  Br  Br2       1.0  0.06874113047081208  0.26335134422512135  0.5580198826560476  1.0000
  N   N1        1.0  0.48707273494246545  0.31907132912493796  0.35697515118872764  1.0000
  N   N2        1.0  0.5129214690272619  0.6809248811721247  0.6430270482346003  1.0000
  N   N3        1.0  0.45956324599029585  0.0847845877375519  0.1567994228708187  1.0000
  N   N4        1.0  0.5404343795059816  0.9152177791153449  0.8432012558637112  1.0000
  N   N5        1.0  0.21819787894649778  0.26526611800129984  0.0042171211949764  1.0000
  N   N6        1.0  0.7818101365744782  0.7347348559471456  0.9957825888235378  1.0000
  O   O1        1.0  0.09105732597171112  0.5386954899318398  0.13054281716813423  1.0000
  O   O2        1.0  0.9089364790022643  0.4612962042643503  0.8694573560334221  1.0000
