data_image0
_chemical_formula_structural       Hg4H4C8S8N8Cl4
_chemical_formula_sum              "Hg4 H4 C8 S8 N8 Cl4"
_cell_length_a       7.529699834558443
_cell_length_b       9.196011868443405
_cell_length_c       9.667272058005764
_cell_angle_alpha    90.00010209455466
_cell_angle_beta     89.9999042265231
_cell_angle_gamma    104.96971504396728

_space_group_name_H-M_alt    "P 1"
_space_group_IT_number       1

loop_
  _space_group_symop_operation_xyz
  'x, y, z'

loop_
  _atom_site_type_symbol
  _atom_site_label
  _atom_site_symmetry_multiplicity
  _atom_site_fract_x
  _atom_site_fract_y
  _atom_site_fract_z
  _atom_site_occupancy
  Hg  Hg1       1.0  0.16684252376768427  0.8450699738173383  0.23685748016838915  1.0000
  Hg  Hg2       1.0  0.3331509974578993  0.15492336158470718  0.7368582426345612  1.0000
  Hg  Hg3       1.0  0.8331572673876478  0.15493344423507688  0.7631424709066083  1.0000
  Hg  Hg4       1.0  0.6668465454141453  0.845073303433203  0.26314170843634344  1.0000
  H   H1        1.0  0.6757803078636685  0.44094031433355946  0.9746099140043544  1.0000
  H   H2        1.0  0.8242216894824493  0.559054352555435  0.47460846801590156  1.0000
  H   H3        1.0  0.32422459781096785  0.5590585184292818  0.025391071481422504  1.0000
  H   H4        1.0  0.17578209205219508  0.44094110368853  0.5253904486318677  1.0000
  C   C1        1.0  0.46442070903353283  0.15520623225312846  0.19933423270811096  1.0000
  C   C2        1.0  0.035576840370865115  0.8447869940754412  0.6993241217210696  1.0000
  C   C3        1.0  0.5355804047936131  0.8447971691490677  0.8006698560378993  1.0000
  C   C4        1.0  0.9644333560183823  0.1552117720596442  0.3006592786555373  1.0000
  C   C5        1.0  0.5979969298298186  0.3455040733156308  0.0344211813168158  1.0000
  C   C6        1.0  0.9019932957519144  0.6544923177633634  0.5344247493180987  1.0000
  C   C7        1.0  0.40199701973403984  0.6544937671651992  0.9655746320855415  1.0000
  C   C8        1.0  0.09801216081699944  0.34551215918170886  0.46557623617199095  1.0000
  S   S1        1.0  0.4024204960334856  0.040918900023783095  0.3426062410255497  1.0000
  S   S2        1.0  0.09757190772687355  0.959075744109832  0.8426107189155092  1.0000
  S   S3        1.0  0.5975788980573566  0.9590913043676462  0.6573906068014139  1.0000
  S   S4        1.0  0.9024267592826687  0.04092429742939879  0.15739440424732015  1.0000
  S   S5        1.0  0.6301813075175174  0.3265554032626665  0.20864712956021245  1.0000
  S   S6        1.0  0.8698120559296  0.673435568109397  0.7086569782860013  1.0000
  S   S7        1.0  0.36981299441375626  0.673451474564608  0.7913404085055904  1.0000
  S   S8        1.0  0.1301954950986115  0.3265632313432291  0.2913398695260839  1.0000
  N   N1        1.0  0.3956829219233668  0.12396081007855737  0.073681432083724  1.0000
  N   N2        1.0  0.10430876638925202  0.8760379457931292  0.5736899010075477  1.0000
  N   N3        1.0  0.604308183755073  0.8760404568815899  0.9263164501593196  1.0000
  N   N4        1.0  0.8956880270417712  0.12395646822631079  0.4263266007496114  1.0000
  N   N5        1.0  0.4732317089405598  0.23288693839715066  0.9809829253849786  1.0000
  N   N6        1.0  0.026753484932775976  0.7671068814595329  0.4809853232327868  1.0000
  N   N7        1.0  0.5267697796004711  0.7671175885107999  0.019021163361721004  1.0000
  N   N8        1.0  0.9732372683765929  0.232885348155797  0.5190229031827658  1.0000
  Cl  Cl1       1.0  0.9680757705569575  0.6420344845630336  0.1173608143743436  1.0000
  Cl  Cl2       1.0  0.5319166150789982  0.3579529664921282  0.6173571420289434  1.0000
  Cl  Cl3       1.0  0.03192726154993149  0.35795872066942275  0.8826381022720612  1.0000
  Cl  Cl4       1.0  0.46807828244361355  0.6420437318319187  0.38264177462576754  1.0000
