data_image0
_chemical_formula_structural       Zn4H32C24O16
_chemical_formula_sum              "Zn4 H32 C24 O16"
_cell_length_a       4.8000690540001
_cell_length_b       9.289219635481757
_cell_length_c       16.138464194537413
_cell_angle_alpha    90.1489503132875
_cell_angle_beta     89.99997798208149
_cell_angle_gamma    90.0000081886185

_space_group_name_H-M_alt    "P 1"
_space_group_IT_number       1

loop_
  _space_group_symop_operation_xyz
  'x, y, z'

loop_
  _atom_site_type_symbol
  _atom_site_label
  _atom_site_symmetry_multiplicity
  _atom_site_fract_x
  _atom_site_fract_y
  _atom_site_fract_z
  _atom_site_occupancy
  Zn  Zn1       1.0  0.46226197071065656  0.21792570175038864  0.24628586355499496  1.0000
  Zn  Zn2       1.0  0.4622616514650699  0.28207391226091977  0.7537148012611468  1.0000
  Zn  Zn3       1.0  0.5377377182517548  0.7820734265335505  0.753714559334661  1.0000
  Zn  Zn4       1.0  0.5377380374978954  0.7179262913679809  0.24628500292416794  1.0000
  H   H1        1.0  0.6465592592021778  0.6203912800460571  0.4255433817378744  1.0000
  H   H2        1.0  0.6465591988180889  0.8796084469961656  0.5744567877463282  1.0000
  H   H3        1.0  0.3534404297603828  0.3796089247575695  0.574457042086479  1.0000
  H   H4        1.0  0.3534404901444717  0.12039175780746092  0.4255436360780251  1.0000
  H   H5        1.0  0.9457737410249292  0.5992989917295831  0.3647404205406205  1.0000
  H   H6        1.0  0.9457736078479894  0.9006996795214024  0.6352590942373268  1.0000
  H   H7        1.0  0.05422594793828488  0.40070013420491796  0.6352587630709579  1.0000
  H   H8        1.0  0.0542281644183404  0.09930052410757641  0.364740709947867  1.0000
  H   H9        1.0  0.7683282596860294  0.3856351862730777  0.5005846688856082  1.0000
  H   H10       1.0  0.7683282228604256  0.11436444896826713  0.4994153413773504  1.0000
  H   H11       1.0  0.23167142927678697  0.6143639408361424  0.4994151343650088  1.0000
  H   H12       1.0  0.23167146610254014  0.8856357546606335  0.5005844628079645  1.0000
  H   H13       1.0  0.07476744082413231  0.3748149558593426  0.4414643254266437  1.0000
  H   H14       1.0  0.0747673305358632  0.12518570395675252  0.5585351452490671  1.0000
  H   H15       1.0  0.9252322481392311  0.6251852465948389  0.5585348591196323  1.0000
  H   H16       1.0  0.9252323584270954  0.874814499672155  0.4414646589362477  1.0000
  H   H17       1.0  0.24934433108226267  0.3109318661378283  0.0642240339122608  1.0000
  H   H18       1.0  0.24934583390693624  0.18906665459309124  0.9357760346183569  1.0000
  H   H19       1.0  0.7506532745771892  0.6890672609713138  0.935775769338477  1.0000
  H   H20       1.0  0.7506559383596424  0.8109324713414809  0.0642231489931007  1.0000
  H   H21       1.0  0.21994056515875823  0.45816419357041127  0.1302001836995146  1.0000
  H   H22       1.0  0.2199400292131059  0.041835401527698914  0.8697998891201166  1.0000
  H   H23       1.0  0.78005912380366  0.5418349347135278  0.8698002391901342  1.0000
  H   H24       1.0  0.7800596597498595  0.9581648021012089  0.130199915065198  1.0000
  H   H25       1.0  0.7655619356924177  0.5292301424935391  0.06298341915656643  1.0000
  H   H26       1.0  0.7655635149658835  0.9707685179150407  0.9370173554568026  1.0000
  H   H27       1.0  0.2344356699666363  0.47076898579032195  0.9370170037332102  1.0000
  H   H28       1.0  0.23443617399653496  0.02923061036889861  0.0629830674328531  1.0000
  H   H29       1.0  0.7829798097777781  0.378131128634962  0.9976276040888052  1.0000
  H   H30       1.0  0.7829804178639391  0.12186850885365175  0.0023730241417965004  1.0000
  H   H31       1.0  0.2170198791846331  0.62186799964897  0.0023728188008505  1.0000
  H   H32       1.0  0.21701927109862132  0.8781316959499752  0.9976273996825569  1.0000
  C   C1        1.0  0.6246637739089991  0.4505877378808734  0.3380623086303984  1.0000
  C   C2        1.0  0.6246635088932635  0.049410811498930216  0.6619383367252568  1.0000
  C   C3        1.0  0.3753359150539666  0.5494124657480343  0.6619374955549163  1.0000
  C   C4        1.0  0.375336180069155  0.9505883167850088  0.33806208616439903  1.0000
  C   C5        1.0  0.7885488882944359  0.5381442562284847  0.3999992627414528  1.0000
  C   C6        1.0  0.7885488176628712  0.9618565577273871  0.6000008914801569  1.0000
  C   C7        1.0  0.21145080066812477  0.46185594857514206  0.6000011610829008  1.0000
  C   C8        1.0  0.2114529546034518  0.03814364590159161  0.39999891270503707  1.0000
  C   C9        1.0  0.9257426914352677  0.451546103913671  0.46879930952583493  1.0000
  C   C10       1.0  0.9257425952391999  0.04845461819573421  0.5312000640759251  1.0000
  C   C11       1.0  0.0742569975280958  0.5484540985405177  0.5311998750204411  1.0000
  C   C12       1.0  0.07425709372376589  0.9515455854331736  0.46879974010938963  1.0000
  C   C13       1.0  0.9382447743167218  0.29010449551578443  0.15677983083079994  1.0000
  C   C14       1.0  0.9382464026156611  0.20989407681892663  0.8432207787533842  1.0000
  C   C15       1.0  0.06175491464624369  0.7098957081131232  0.8432199733545147  1.0000
  C   C16       1.0  0.0617553696501147  0.7901050514650837  0.15677964413615803  1.0000
  C   C17       1.0  0.0938569746729314  0.3806185308582713  0.0945495284702531  1.0000
  C   C18       1.0  0.09386058071372358  0.11938212918063586  0.9054493203885983  1.0000
  C   C19       1.0  0.9061427142898852  0.6193805962509487  0.905450274780364  1.0000
  C   C20       1.0  0.906143274856511  0.8806191497933897  0.0945498650921408  1.0000
  C   C21       1.0  0.9126848299165643  0.45706839801525223  0.0308675007502828  1.0000
  C   C22       1.0  0.9126841658061763  0.042931247793298204  0.9691324930454073  1.0000
  C   C23       1.0  0.0873148590462449  0.5429307290939605  0.9691323025003342  1.0000
  C   C24       1.0  0.08731552315639139  0.9570689570103289  0.030867930778939  1.0000
  O   O1        1.0  0.6010245050322709  0.3149815936984767  0.3486345639180258  1.0000
  O   O2        1.0  0.6010242912641458  0.18501910581553466  0.6513654663646022  1.0000
  O   O3        1.0  0.398973100627181  0.6850175334106583  0.6513652393327121  1.0000
  O   O4        1.0  0.3989753976985638  0.8149821755077797  0.3486349583944417  1.0000
  O   O5        1.0  0.5127008504100986  0.5110913697910251  0.275084649043329  1.0000
  O   O6        1.0  0.5127027090236139  0.9889083474525296  0.724915535710501  1.0000
  O   O7        1.0  0.4872988385523129  0.4889077584929142  0.7249157738463268  1.0000
  O   O8        1.0  0.48729697993934457  0.011091856176378203  0.2750842684748136  1.0000
  O   O9        1.0  0.6768922882750346  0.2709916514625235  0.1463818355242594  1.0000
  O   O10       1.0  0.6768918251188866  0.22900690056579992  0.8536181842344703  1.0000
  O   O11       1.0  0.32310740068753313  0.729008553341103  0.8536185883000871  1.0000
  O   O12       1.0  0.3231078638437808  0.7709911500237328  0.14638161808145617  1.0000
  O   O13       1.0  0.06334481298670619  0.23522964281494307  0.21903312002377362  1.0000
  O   O14       1.0  0.0633465370040582  0.2647710173397755  0.7809669715938982  1.0000
  O   O15       1.0  0.9366548759757052  0.7647694854689892  0.7809673028658822  1.0000
  O   O16       1.0  0.9366531519589073  0.7352291862891321  0.2190328325914166  1.0000
