data_image0
_chemical_formula_structural       Zn4H72C70N8O24
_chemical_formula_sum              "Zn4 H72 C70 N8 O24"
_cell_length_a       7.850542165017651
_cell_length_b       16.727480322034143
_cell_length_c       18.385995876028087
_cell_angle_alpha    90.00013165788533
_cell_angle_beta     90.00015037900201
_cell_angle_gamma    90.0001908805858

_space_group_name_H-M_alt    "P 1"
_space_group_IT_number       1

loop_
  _space_group_symop_operation_xyz
  'x, y, z'

loop_
  _atom_site_type_symbol
  _atom_site_label
  _atom_site_symmetry_multiplicity
  _atom_site_fract_x
  _atom_site_fract_y
  _atom_site_fract_z
  _atom_site_occupancy
  Zn  Zn1       1.0  0.7055541627457061  0.17221930339872665  0.7427430451700585  1.0000
  Zn  Zn2       1.0  0.7055499053579409  0.8277782679770453  0.25725357044268543  1.0000
  Zn  Zn3       1.0  0.294446541617326  0.32777614454475673  0.24274667124895183  1.0000
  Zn  Zn4       1.0  0.2944480708458741  0.6722201866816846  0.75725274652531  1.0000
  H   H1        1.0  0.3096614250798382  0.1491897891878793  0.24538872265571132  1.0000
  H   H2        1.0  0.30966420664809396  0.8508029788981091  0.7546090805074568  1.0000
  H   H3        1.0  0.6903367479290877  0.35080267638674206  0.7453941527835253  1.0000
  H   H4        1.0  0.6903401223040929  0.6491924799554667  0.25461169192724487  1.0000
  H   H5        1.0  0.4672767014318424  0.03817669842684519  0.18183761003054136  1.0000
  H   H6        1.0  0.4672704714519043  0.9618193050165049  0.8181630894098784  1.0000
  H   H7        1.0  0.5327147123823507  0.46181919254073006  0.6818474451021783  1.0000
  H   H8        1.0  0.5327291525715976  0.5381787066349659  0.31816583728318176  1.0000
  H   H9        1.0  0.6913748152333737  0.21888233480626704  0.04297027562127199  1.0000
  H   H10       1.0  0.6913796185140412  0.7811164100640938  0.9570301313364237  1.0000
  H   H11       1.0  0.30861701966205146  0.28111858357933533  0.5429724132920837  1.0000
  H   H12       1.0  0.30862340581714426  0.7188855414378423  0.45702973985096634  1.0000
  H   H13       1.0  0.5245168451535208  0.32022331607224425  0.11120374108404714  1.0000
  H   H14       1.0  0.524523057164238  0.6797733746342588  0.8887964786856767  1.0000
  H   H15       1.0  0.4754855990787518  0.179775982276503  0.611198784816082  1.0000
  H   H16       1.0  0.47548082197080527  0.8202272078097792  0.3887953971350553  1.0000
  H   H17       1.0  0.5990984378462798  0.21239880915737072  0.8971904674702526  1.0000
  H   H18       1.0  0.599090399056763  0.787594411152618  0.10280657260261705  1.0000
  H   H19       1.0  0.40089939350612974  0.2876000204114603  0.3971908661522788  1.0000
  H   H20       1.0  0.4009002597757885  0.7124012596893862  0.6028064954801307  1.0000
  H   H21       1.0  0.3653503852000243  0.1743876337909143  0.9850044142538786  1.0000
  H   H22       1.0  0.36534844619633583  0.8256082103944349  0.014991819706864393  1.0000
  H   H23       1.0  0.6346454377900058  0.32561381023780467  0.4850062419143198  1.0000
  H   H24       1.0  0.6346416734153665  0.6743890307149912  0.5149908380487033  1.0000
  H   H25       1.0  0.1187154772494523  0.05108173350224379  0.8063507845786118  1.0000
  H   H26       1.0  0.11872697535798689  0.9489197035237211  0.19364571660474175  1.0000
  H   H27       1.0  0.8812767011340339  0.4489192564663327  0.3063547767580558  1.0000
  H   H28       1.0  0.8812706102540557  0.5510779916495209  0.6936425798767158  1.0000
  H   H29       1.0  0.3643124326360904  0.0913269795766567  0.7288376213990586  1.0000
  H   H30       1.0  0.36432539461612373  0.9086730477264878  0.2711564358411208  1.0000
  H   H31       1.0  0.6356843649663518  0.40867381338954084  0.22884071056262906  1.0000
  H   H32       1.0  0.6356777621404744  0.5913242466329008  0.7711547388826998  1.0000
  H   H33       1.0  0.074880057127487  0.9660875496696661  0.9172458939029792  1.0000
  H   H34       1.0  0.07488182699637488  0.03391262322578831  0.08275490923533367  1.0000
  H   H35       1.0  0.9251265442869608  0.5339113116257651  0.4172441780802386  1.0000
  H   H36       1.0  0.925125537754866  0.4660872006477986  0.5827554033197158  1.0000
  H   H37       1.0  0.9189763262484832  0.0366475314502566  0.8868608634130122  1.0000
  H   H38       1.0  0.9189759683471265  0.9633521668516781  0.11313871108902866  1.0000
  H   H39       1.0  0.08103035825005378  0.4633488805981473  0.38686181225503435  1.0000
  H   H40       1.0  0.08102239674568067  0.5366530953539269  0.6131379099948615  1.0000
  H   H41       1.0  0.8682131784957575  0.12418558719537735  0.029179889367817687  1.0000
  H   H42       1.0  0.868218739130775  0.8758164230669936  0.9708169087311443  1.0000
  H   H43       1.0  0.1317836669079497  0.37581529614426046  0.5291814814940634  1.0000
  H   H44       1.0  0.131786917455436  0.6241843678426234  0.4708188415886239  1.0000
  H   H45       1.0  0.7072881987388657  0.09016539096283789  0.9672208748537298  1.0000
  H   H46       1.0  0.707295883800917  0.9098321831350801  0.03277846217208239  1.0000
  H   H47       1.0  0.29272025303352217  0.40983421442765433  0.4672273889200226  1.0000
  H   H48       1.0  0.29271345200499616  0.5901674944727092  0.5327796414095471  1.0000
  H   H49       1.0  0.24397379218250145  0.2742337617482277  0.7839780804168225  1.0000
  H   H50       1.0  0.243974925942652  0.7257648818936675  0.21602345630653008  1.0000
  H   H51       1.0  0.7560322605954326  0.2257683670060402  0.28398146849910677  1.0000
  H   H52       1.0  0.7560304398655262  0.7742340657965273  0.7160195548857116  1.0000
  H   H53       1.0  0.1237340020309716  0.2925318042617633  0.8647688692020022  1.0000
  H   H54       1.0  0.12373068833547758  0.7074690427821224  0.13523307652450706  1.0000
  H   H55       1.0  0.8762674516444305  0.2074675407322317  0.36477344193880856  1.0000
  H   H56       1.0  0.8762716337964419  0.792533286482431  0.6352282602236128  1.0000
  H   H57       1.0  0.9724883142104088  0.40576760589245703  0.7966502264770622  1.0000
  H   H58       1.0  0.9724807930315721  0.5942345672875219  0.20334832027057093  1.0000
  H   H59       1.0  0.0275190901788136  0.0942357507059199  0.2966525240353376  1.0000
  H   H60       1.0  0.0275104832117279  0.905772119823787  0.703347682081876  1.0000
  H   H61       1.0  0.110548831979969  0.3892192175552367  0.7224889346754676  1.0000
  H   H62       1.0  0.1105355147502038  0.6107810110594797  0.277511908468817  1.0000
  H   H63       1.0  0.8894619384095178  0.1107827549218001  0.22249060188737235  1.0000
  H   H64       1.0  0.8894536692752054  0.8892204841722843  0.7775100272881442  1.0000
  H   H65       1.0  0.21477032179604547  0.4425712239000035  0.8765231307480117  1.0000
  H   H66       1.0  0.2147633225235879  0.5574285697429175  0.12347782931836795  1.0000
  H   H67       1.0  0.785240120621765  0.057426357515261386  0.3765245702000043  1.0000
  H   H68       1.0  0.7852300108410475  0.9425713383655391  0.6234748542649198  1.0000
  H   H69       1.0  0.36190762214015126  0.4134275940723314  0.8098512437626436  1.0000
  H   H70       1.0  0.36189996550515957  0.5865742229264228  0.19015314472209602  1.0000
  H   H71       1.0  0.6381011370981112  0.08657460043912121  0.3098520348073847  1.0000
  H   H72       1.0  0.638093777261517  0.913425256817611  0.6901455929194567  1.0000
  C   C1        1.0  0.3950796324590016  0.16123165950138946  0.19987261927190045  1.0000
  C   C2        1.0  0.3950762390049789  0.8387624376831228  0.8001279991751385  1.0000
  C   C3        1.0  0.6049182610629203  0.3387636794812395  0.6998757529924047  1.0000
  C   C4        1.0  0.6049245480631738  0.661233734674923  0.3001299958971372  1.0000
  C   C5        1.0  0.4814746161083363  0.1002063532972812  0.16516956164189614  1.0000
  C   C6        1.0  0.4814731430472675  0.8997914657887806  0.8348306098385405  1.0000
  C   C7        1.0  0.5185205167394287  0.3997894953066137  0.6651765324632846  1.0000
  C   C8        1.0  0.518527857130195  0.6002083816829042  0.33483455842571164  1.0000
  C   C9        1.0  0.5906160130248423  0.11936167072822457  0.10726524599989057  1.0000
  C   C10       1.0  0.5906134856574922  0.8806357210681383  0.8927355918100442  1.0000
  C   C11       1.0  0.4093762166798669  0.3806370197995718  0.607272598482268  1.0000
  C   C12       1.0  0.4093865962824239  0.6193654692059525  0.39273673829500655  1.0000
  C   C13       1.0  0.608203557013283  0.1998543553946561  0.08698903774418197  1.0000
  C   C14       1.0  0.6082069513581344  0.8001424660668092  0.9130112759065407  1.0000
  C   C15       1.0  0.3917898219723098  0.30014607704956126  0.5869907643570184  1.0000
  C   C16       1.0  0.3917970764724713  0.6998575801052098  0.4130125698763789  1.0000
  C   C17       1.0  0.5157784135659255  0.2569603622115864  0.12524044072355875  1.0000
  C   C18       1.0  0.5157798935830514  0.7430369126564287  0.874759769241066  1.0000
  C   C19       1.0  0.48422539066362447  0.24303777618110436  0.6252394329293691  1.0000
  C   C20       1.0  0.4842213517626632  0.7569630362915022  0.3747585660697934  1.0000
  C   C21       1.0  0.49103183449251026  0.17568785475802431  0.880485263266571  1.0000
  C   C22       1.0  0.49103434945263297  0.8243105770784424  0.11951165558505038  1.0000
  C   C23       1.0  0.5089633467077093  0.32431511708435307  0.3804874911258266  1.0000
  C   C24       1.0  0.5089602333400903  0.6756839405843564  0.6195099917316396  1.0000
  C   C25       1.0  0.3626904535014788  0.1548873127705548  0.9284874647855329  1.0000
  C   C26       1.0  0.3626902738617233  0.8451103207161381  0.07150876619405007  1.0000
  C   C27       1.0  0.6373088438431436  0.3451139876207421  0.4284904237271616  1.0000
  C   C28       1.0  0.6373078355751005  0.6548870640410486  0.571507747007878  1.0000
  C   C29       1.0  0.2297834583975771  0.10586783989082699  0.9034998432314862  1.0000
  C   C30       1.0  0.22978632800410276  0.8941307815757611  0.09649787032814318  1.0000
  C   C31       1.0  0.7702156855149339  0.3941351904475922  0.4035019653252688  1.0000
  C   C32       1.0  0.7702081134705807  0.6058642754126567  0.5964947228269606  1.0000
  C   C33       1.0  0.22526372167892114  0.08402583995128769  0.8298714973490885  1.0000
  C   C34       1.0  0.22527484134693757  0.9159763613711434  0.17012566725629336  1.0000
  C   C35       1.0  0.7747298749344508  0.41597700325291953  0.3298747576700477  1.0000
  C   C36       1.0  0.7747238736434666  0.5840218718452023  0.6701235672232426  1.0000
  C   C37       1.0  0.36015754108812803  0.10808928678205378  0.7861470151563237  1.0000
  C   C38       1.0  0.3601662107032766  0.8919095383919993  0.21384975688017244  1.0000
  C   C39       1.0  0.639838334622624  0.39191224965629357  0.28614898637394487  1.0000
  C   C40       1.0  0.6398327727743406  0.6080876103168362  0.7138491871949665  1.0000
  C   C41       1.0  0.9992880550809956  0.0187310274078172  0.9330422338327575  1.0000
  C   C42       1.0  0.9992824456916195  0.9812711876478846  0.0669568868730153  1.0000
  C   C43       1.0  0.0007163654029582999  0.48126729546707736  0.433042585907664  1.0000
  C   C44       1.0  0.0007105406357724  0.5187333593625991  0.5669575901354589  1.0000
  C   C45       1.0  0.890557331713488  0.9999988830237212  0.9999999065754391  1.0000
  C   C46       1.0  0.10944161243369167  0.4999995156299377  0.5000012367925135  1.0000
  C   C47       1.0  0.783021390360048  0.07421025382349461  0.015430194506755892  1.0000
  C   C48       1.0  0.7830197476186527  0.9257868407744283  0.9845659641199728  1.0000
  C   C49       1.0  0.21697791821844697  0.4257893989407506  0.5154363371629882  1.0000
  C   C50       1.0  0.2169796243957904  0.5742109959810692  0.4845678887387378  1.0000
  C   C51       1.0  0.9786694217798554  0.24638852918348414  0.7754730771563627  1.0000
  C   C52       1.0  0.9786809959491264  0.7536130558532504  0.22452765210439188  1.0000
  C   C53       1.0  0.021328936013105697  0.25361537141207446  0.2754822255847031  1.0000
  C   C54       1.0  0.0213333386558006  0.7463877069093526  0.7245201491593745  1.0000
  C   C55       1.0  0.12246131160193839  0.2970883013936358  0.805152847665951  1.0000
  C   C56       1.0  0.12246597438175398  0.7029095545739211  0.19484855274195914  1.0000
  C   C57       1.0  0.8775397759988621  0.2029102942626295  0.305156868471414  1.0000
  C   C58       1.0  0.8775405352038492  0.7970917305725749  0.6948432034410315  1.0000
  C   C59       1.0  0.10089998332360038  0.38466450518124157  0.7819744159559856  1.0000
  C   C60       1.0  0.10089142836879011  0.6153357083612504  0.2180264163665625  1.0000
  C   C61       1.0  0.89910860474329  0.1153370206638087  0.28197773512942337  1.0000
  C   C62       1.0  0.8991075807604287  0.8846644400538466  0.7180239926546786  1.0000
  C   C63       1.0  0.2333382709383969  0.4388078946354455  0.8173019774461064  1.0000
  C   C64       1.0  0.23333166205571837  0.5611937214775439  0.18270063512915158  1.0000
  C   C65       1.0  0.7666705340452822  0.061193123174660996  0.3173023161043317  1.0000
  C   C66       1.0  0.766662034973578  0.9388087284245188  0.682697631426066  1.0000
  C   C67       1.0  0.23851391617412787  0.5231905628658994  0.786945267978332  1.0000
  C   C68       1.0  0.23851071569652757  0.4768140504325942  0.21305952597700883  1.0000
  C   C69       1.0  0.7614957065353919  0.9768127498110388  0.2869415692277925  1.0000
  C   C70       1.0  0.7614694256255776  0.023191484949641992  0.7130474946455505  1.0000
  N   N1        1.0  0.4108749358557588  0.2387555764471685  0.18052755039719404  1.0000
  N   N2        1.0  0.41088002707454047  0.7612379476020692  0.8194709102048348  1.0000
  N   N3        1.0  0.5891279340630718  0.26124090900622593  0.6805277858888202  1.0000
  N   N4        1.0  0.5891259739544523  0.7387576761021606  0.31947250636108027  1.0000
  N   N5        1.0  0.4930976322633284  0.15124535343527867  0.810536893095495  1.0000
  N   N6        1.0  0.49310075035530326  0.8487506903540235  0.18945948417924532  1.0000
  N   N7        1.0  0.5069022145983766  0.3487550493563276  0.31053808163088786  1.0000
  N   N8        1.0  0.5068968095547318  0.6512457985454602  0.6894588550226995  1.0000
  O   O1        1.0  0.9853642043337202  0.2176351695221186  0.7121803141242891  1.0000
  O   O2        1.0  0.9853750976122057  0.7823700128857284  0.28781987875802867  1.0000
  O   O3        1.0  0.014643955249383098  0.2823799287806991  0.21219549760737513  1.0000
  O   O4        1.0  0.014640899429778602  0.7176315085553782  0.7878101329950551  1.0000
  O   O5        1.0  0.8453755352659726  0.23689272544189777  0.816478658201518  1.0000
  O   O6        1.0  0.8453780085316113  0.7631080535116367  0.18352899211870977  1.0000
  O   O7        1.0  0.15463581224547335  0.2630987251883282  0.3164863442080018  1.0000
  O   O8        1.0  0.1546322529220703  0.7368949963148949  0.6835161800698228  1.0000
  O   O9        1.0  0.16288462765367484  0.5407136903863545  0.7285692924507214  1.0000
  O   O10       1.0  0.16288803014310096  0.4592884134783191  0.2714381361234216  1.0000
  O   O11       1.0  0.8371182676062717  0.959291865187424  0.2285607471087373  1.0000
  O   O12       1.0  0.8370937434574232  0.04072145500635569  0.7714240504731291  1.0000
  O   O13       1.0  0.32696033171136213  0.5752284012398831  0.8227726395501092  1.0000
  O   O14       1.0  0.32693870840843425  0.42477096987092017  0.17723279750369864  1.0000
  O   O15       1.0  0.6730622489527746  0.9247720134091394  0.3227671017991084  1.0000
  O   O16       1.0  0.6730373914878739  0.07522730062193261  0.6772158800480736  1.0000
  O   O17       1.0  0.11399789494451078  0.08255467822755952  0.9533714067221335  1.0000
  O   O18       1.0  0.11399552873454867  0.9174455557798993  0.04662563305205938  1.0000
  O   O19       1.0  0.8860041027890728  0.41744489195458095  0.4533747949222543  1.0000
  O   O20       1.0  0.8859960589190692  0.5825529613647902  0.5466225670154043  1.0000
  O   O21       1.0  0.6708279890090054  0.0573380059697186  0.07527783768824747  1.0000
  O   O22       1.0  0.6708248248498735  0.94266130460948  0.9247225462154769  1.0000
  O   O23       1.0  0.3291640442930587  0.4426629945372866  0.5752874046085024  1.0000
  O   O24       1.0  0.3291754534990546  0.5573393691413955  0.4247223860768442  1.0000
