data_image0
_chemical_formula_structural       Cd6H36C24O36
_chemical_formula_sum              "Cd6 H36 C24 O36"
_cell_length_a       9.540471440541644
_cell_length_b       9.726765677184828
_cell_length_c       13.678061027470225
_cell_angle_alpha    71.33268150567291
_cell_angle_beta     69.58787945021788
_cell_angle_gamma    60.629510654077464

_space_group_name_H-M_alt    "P 1"
_space_group_IT_number       1

loop_
  _space_group_symop_operation_xyz
  'x, y, z'

loop_
  _atom_site_type_symbol
  _atom_site_label
  _atom_site_symmetry_multiplicity
  _atom_site_fract_x
  _atom_site_fract_y
  _atom_site_fract_z
  _atom_site_occupancy
  Cd  Cd1       1.0  0.48337241550838445  0.7499746213135267  0.2500007397069126  1.0000
  Cd  Cd2       1.0  0.5166273779786863  0.250024950267523  0.7499996069792587  1.0000
  Cd  Cd3       1.0  0.9870181338875808  0.8042700209899395  0.7059075442725771  1.0000
  Cd  Cd4       1.0  0.4971471519135093  0.6957698273464529  0.7940927249783271  1.0000
  Cd  Cd5       1.0  0.012981132069541079  0.19573075045614977  0.2940926575739907  1.0000
  Cd  Cd6       1.0  0.5028528452575716  0.30423094397325195  0.20590674579209886  1.0000
  H   H1        1.0  0.9035322492488053  0.5301100215290404  0.7815381569778381  1.0000
  H   H2        1.0  0.21512108245282482  0.9699642331093159  0.7184431807707838  1.0000
  H   H3        1.0  0.096467016708317  0.46989074991705587  0.21846204486872267  1.0000
  H   H4        1.0  0.7848794422482046  0.03003533834534269  0.28155643483924564  1.0000
  H   H5        1.0  0.09007297600651759  0.4687488519574927  0.7880636482773867  1.0000
  H   H6        1.0  0.3468489559297227  0.0312929617783908  0.7119187086317139  1.0000
  H   H7        1.0  0.9099271362299179  0.5312519195147942  0.21193682565206018  1.0000
  H   H8        1.0  0.6531515687713001  0.9687066096762679  0.2880809069783226  1.0000
  H   H9        1.0  0.3004655021821352  0.6141946421104548  0.5893995537150473  1.0000
  H   H10       1.0  0.5041262837283611  0.8857990752188767  0.9105864305004587  1.0000
  H   H11       1.0  0.6995358687982147  0.3858049293704012  0.410600333977861  1.0000
  H   H12       1.0  0.49587350975870254  0.11420049636217301  0.08941391618571265  1.0000
  H   H13       1.0  0.2218087460846906  0.7508020791812838  0.5032565250030884  1.0000
  H   H14       1.0  0.4759284800137493  0.749194829573824  0.9967301214065146  1.0000
  H   H15       1.0  0.7781910474023732  0.24919749239975889  0.4967438216830828  1.0000
  H   H16       1.0  0.524070670878004  0.25080594171967613  0.0032690772810327106  1.0000
  H   H17       1.0  0.9373997161063844  0.13512201656394754  0.6513559548780776  1.0000
  H   H18       1.0  0.7238772270753846  0.36489697996002224  0.8486333108024695  1.0000
  H   H19       1.0  0.06260112734400994  0.8648787547819552  0.34864378797522727  1.0000
  H   H20       1.0  0.2761225664116796  0.6351025916210273  0.1513670358837018  1.0000
  H   H21       1.0  0.09287715927997199  0.04793472745624431  0.5688492104664107  1.0000
  H   H22       1.0  0.7096560536848956  0.4521002712332347  0.9311256455369659  1.0000
  H   H23       1.0  0.907122749272453  0.9520648442773947  0.43115213937878133  1.0000
  H   H24       1.0  0.2903437398021681  0.5478993003478152  0.06887470114920549  1.0000
  H   H25       1.0  0.9956563290985233  0.9642017245069281  0.9015870579435158  1.0000
  H   H26       1.0  0.8614068959292069  0.5358239815526104  0.5984565142792205  1.0000
  H   H27       1.0  0.004343668072557704  0.03579904681277671  0.0984124128269102  1.0000
  H   H28       1.0  0.13859321630722846  0.4641767899196764  0.40154395965022616  1.0000
  H   H29       1.0  0.8293372795756542  0.0410062024981031  0.009367701027883913  1.0000
  H   H30       1.0  0.8797248945492276  0.4590112508618843  0.4906644906028887  1.0000
  H   H31       1.0  0.17066324512536818  0.9589933689565555  0.9906319145821455  1.0000
  H   H32       1.0  0.12027627274710541  0.5409871208803168  0.509336273005772  1.0000
  H   H33       1.0  0.03899281399320394  0.5515810059643866  0.03384556651501915  1.0000
  H   H34       1.0  0.6244229923022928  0.9484338844713135  0.4661610642585571  1.0000
  H   H35       1.0  0.9610069794938599  0.44841856561665583  0.9661547801711522  1.0000
  H   H36       1.0  0.37557837867805705  0.0515656870095427  0.5338388234343512  1.0000
  C   C1        1.0  0.7457779153531023  0.7863260534534717  0.08685145598957433  1.0000
  C   C2        1.0  0.6189683655066817  0.7136805670885309  0.4131634525793401  1.0000
  C   C3        1.0  0.2542226093479272  0.21367351800117967  0.9131481596204551  1.0000
  C   C4        1.0  0.3810321591943408  0.28631900436612784  0.5868361630306963  1.0000
  C   C5        1.0  0.8919974348248092  0.8006262105575103  0.003496909675177969  1.0000
  C   C6        1.0  0.6961009435181468  0.699403843830595  0.49651326946321467  1.0000
  C   C7        1.0  0.10800373247152374  0.19937216118469075  0.9965038539334826  1.0000
  C   C8        1.0  0.303899053652934  0.3005969274891029  0.5034862013072113  1.0000
  C   C9        1.0  0.7599340166269573  0.0549969483524251  0.8733675572030747  1.0000
  C   C10       1.0  0.6882730111269811  0.4450284193642276  0.6266246792903444  1.0000
  C   C11       1.0  0.24006493058078593  0.9450026232024271  0.12663251740021753  1.0000
  C   C12       1.0  0.3117278323234203  0.5549723519816682  0.37337506356296046  1.0000
  C   C13       1.0  0.8745558768426919  0.9674257822770187  0.9491018972719302  1.0000
  C   C14       1.0  0.7910580428977814  0.5325866907351013  0.5509235336032247  1.0000
  C   C15       1.0  0.12544412032838895  0.0325749890426863  0.05089757349848871  1.0000
  C   C16       1.0  0.20894175058928258  0.4674128808459486  0.44907681308294656  1.0000
  C   C17       1.0  0.1827844534108539  0.6642019806228345  0.9021733740414886  1.0000
  C   C18       1.0  0.7491573314983104  0.835813364861373  0.597838691971191  1.0000
  C   C19       1.0  0.8172153400762099  0.3357975909582081  0.09782697264468249  1.0000
  C   C20       1.0  0.25084193445880504  0.16418740658472333  0.402161509875377  1.0000
  C   C21       1.0  0.031245140575095243  0.6666640204191056  0.9842852684042283  1.0000
  C   C22       1.0  0.6821993586965719  0.8333409974241662  0.515718762138782  1.0000
  C   C23       1.0  0.9687541253820201  0.3333367510269837  0.015714933442339544  1.0000
  C   C24       1.0  0.3178011660044504  0.16665857403048534  0.4842808534712475  1.0000
  O   O1        1.0  0.6082311087114578  0.9087329205492765  0.09459728475492571  1.0000
  O   O2        1.0  0.611568129367747  0.5912824012001466  0.4054205074751636  1.0000
  O   O3        1.0  0.39176973473894366  0.0912678507966191  0.9054024580983792  1.0000
  O   O4        1.0  0.3884327140826541  0.4087183701457491  0.5945792353781414  1.0000
  O   O5        1.0  0.7607787514943356  0.6502414426959434  0.14766824249952043  1.0000
  O   O6        1.0  0.5586860443597529  0.8497684192769839  0.3523321809696468  1.0000
  O   O7        1.0  0.23922124567674533  0.34975932862375453  0.8523312282709057  1.0000
  O   O8        1.0  0.4413150078712182  0.1502299523126283  0.647667579479993  1.0000
  O   O9        1.0  0.663802090321376  0.20457921389441217  0.8742651317225167  1.0000
  O   O10       1.0  0.7426097809972918  0.29545773021179395  0.6257177439350058  1.0000
  O   O11       1.0  0.3361984343796466  0.7954203575602464  0.12573448388751973  1.0000
  O   O12       1.0  0.25738863868051026  0.7045430412081044  0.37428218582868306  1.0000
  O   O13       1.0  0.7625547222860338  0.9841841339096361  0.8089108385797275  1.0000
  O   O14       1.0  0.5556014731607635  0.5158360091231413  0.6910794602078808  1.0000
  O   O15       1.0  0.23744507120103017  0.015815437671413697  0.19108950810644393  1.0000
  O   O16       1.0  0.444397061582393  0.48416476244934603  0.3089214727148287  1.0000
  O   O17       1.0  0.31537456182279294  0.6064832061570727  0.9346299416862606  1.0000
  O   O18       1.0  0.8564764308787715  0.8935384684365528  0.5653911625477049  1.0000
  O   O19       1.0  0.6846252316642708  0.3935163654239772  0.0653704049999106  1.0000
  O   O20       1.0  0.1435233626082919  0.10646110314449687  0.4346091841384663  1.0000
  O   O21       1.0  0.005065370278359241  0.5467216264225385  0.7462318434345503  1.0000
  O   O22       1.0  0.29795962742470317  0.9533378332707444  0.7537569264350167  1.0000
  O   O23       1.0  0.9949347419580761  0.4532791450497556  0.25376863049489634  1.0000
  O   O24       1.0  0.7020401660623604  0.04666173831030561  0.24624342025115448  1.0000
  O   O25       1.0  0.23391832262240078  0.7318573700750265  0.575753398965233  1.0000
  O   O26       1.0  0.5415855097152263  0.7681368897502026  0.9242350770612331  1.0000
  O   O27       1.0  0.766081470864663  0.2681422015060236  0.4242469477209383  1.0000
  O   O28       1.0  0.45841249749798174  0.23186508168732436  0.07576571102185885  1.0000
  O   O29       1.0  0.178230613416595  0.720193872193789  0.805716321574117  1.0000
  O   O30       1.0  0.7041265298065723  0.7798211970730122  0.6942928416275933  1.0000
  O   O31       1.0  0.8217683337911483  0.27980569936106997  0.19428375302917542  1.0000
  O   O32       1.0  0.2958727361505425  0.2201795743730841  0.3057073602189675  1.0000
  O   O33       1.0  0.0441906927242643  0.038510691712630815  0.6472566975918851  1.0000
  O   O34       1.0  0.7299314075470776  0.4615260367738613  0.8527208954766082  1.0000
  O   O35       1.0  0.9558084581674964  0.9614900795808763  0.35274250109566196  1.0000
  O   O36       1.0  0.270067012130717  0.5384747346460371  0.1472790342870809  1.0000
