data_image0
_chemical_formula_structural       Zn4H49C80N22F
_chemical_formula_sum              "Zn4 H49 C80 N22 F1"
_cell_length_a       18.647989221414445
_cell_length_b       18.9277708770986
_cell_length_c       21.36104436909316
_cell_angle_alpha    110.53680633648733
_cell_angle_beta     103.32458388337355
_cell_angle_gamma    112.53395703653864

_space_group_name_H-M_alt    "P 1"
_space_group_IT_number       1

loop_
  _space_group_symop_operation_xyz
  'x, y, z'

loop_
  _atom_site_type_symbol
  _atom_site_label
  _atom_site_symmetry_multiplicity
  _atom_site_fract_x
  _atom_site_fract_y
  _atom_site_fract_z
  _atom_site_occupancy
  Zn  Zn1       1.0  0.1406793531222732  0.1195046928701871  0.5260127840596168  1.0000
  Zn  Zn2       1.0  0.9104035684663856  0.8967276886887489  0.5050087121715522  1.0000
  Zn  Zn3       1.0  0.02864329369421636  0.9088725856828148  0.41430303548867903  1.0000
  Zn  Zn4       1.0  0.010514466693031506  0.1097594389240371  0.6076738349212291  1.0000
  H   H1        1.0  0.0896878475018426  0.1647870742422413  0.39929019028261337  1.0000
  H   H2        1.0  0.24215501825483432  0.674988935794147  0.49369284653482737  1.0000
  H   H3        1.0  0.7478111426817691  0.8687857653706388  0.3807306045969198  1.0000
  H   H4        1.0  0.23868675120240107  0.5434203694913079  0.49446076626128377  1.0000
  H   H5        1.0  0.1896692634959365  0.4300604167819912  0.5307020089561334  1.0000
  H   H6        1.0  0.10042845971319989  0.4673893173526125  0.7026613640125702  1.0000
  H   H7        1.0  0.08043796778684958  0.5948900318497222  0.7537830217388688  1.0000
  H   H8        1.0  0.07992982064022416  0.7236035828368941  0.750395008626441  1.0000
  H   H9        1.0  0.4123475356737814  0.16830961996708277  0.42819688710813597  1.0000
  H   H10       1.0  0.2700960622827465  0.8854823162117426  0.32088151167900497  1.0000
  H   H11       1.0  0.3336301404224074  0.8004878132506262  0.26885024285585507  1.0000
  H   H12       1.0  0.014257240269429908  0.8648352472824355  0.6259043878872959  1.0000
  H   H13       1.0  0.4652607027700881  0.7955730029192553  0.2734374861741529  1.0000
  H   H14       1.0  0.9060419808754504  0.7048297884089579  0.26789185262499166  1.0000
  H   H15       1.0  0.7710334487605551  0.15587001504859904  0.44876838996687946  1.0000
  H   H16       1.0  0.6967833018163816  0.2416950038907402  0.45412471280585703  1.0000
  H   H17       1.0  0.5649087823274641  0.2462331142878682  0.44741628466449157  1.0000
  H   H18       1.0  0.7945454247893052  0.57159402058182  0.16879186638557545  1.0000
  H   H19       1.0  0.673004489441695  0.43113988759860433  0.06182640442712283  1.0000
  H   H20       1.0  0.5168099844470005  0.22087306382893251  0.8731160504240802  1.0000
  H   H21       1.0  0.39165170142705114  0.14010960581086357  0.7517001067003475  1.0000
  H   H22       1.0  0.6510496636499427  0.5486595575520213  0.300156778532866  1.0000
  H   H23       1.0  0.9847311996684169  0.11718537447579541  0.7596556556329331  1.0000
  H   H24       1.0  0.3626726968721243  0.26890199341072935  0.98490784246421  1.0000
  H   H25       1.0  0.528987099333392  0.4094927405295151  0.1915597106505516  1.0000
  H   H26       1.0  0.03283129335650162  0.30942410698902734  0.6518946414439739  1.0000
  H   H27       1.0  0.2380300904826882  0.19136874461952402  0.864724526237623  1.0000
  H   H28       1.0  0.04571392700224661  0.08988597375147118  0.8587285165828928  1.0000
  H   H29       1.0  0.0532420226902985  0.07960964798444078  0.9728505390191129  1.0000
  H   H30       1.0  0.118229258427192  0.11683045594954679  0.16680230137696125  1.0000
  H   H31       1.0  0.11791438544701549  0.12945598932658697  0.2870909858165263  1.0000
  H   H32       1.0  0.8189860656553664  0.8327099498886315  0.7294739370392591  1.0000
  H   H33       1.0  0.859914080573269  0.899144148591404  0.05198244875338536  1.0000
  H   H34       1.0  0.8611550110013155  0.836139407655203  0.6239443441408098  1.0000
  H   H35       1.0  0.8286007149643735  0.8228904198885587  0.8444244029784469  1.0000
  H   H36       1.0  0.8569944420208344  0.9135009008330996  0.17177547120392947  1.0000
  H   H37       1.0  0.7477339373234031  0.6929709205599366  0.38813036936250705  1.0000
  H   H38       1.0  0.8873647900878511  0.1525822900348217  0.5108244088034866  1.0000
  H   H39       1.0  0.9008590838453826  0.886918069571706  0.2787126215880206  1.0000
  H   H40       1.0  0.2925231222225334  0.12428233715082368  0.6448889815330644  1.0000
  H   H41       1.0  0.06922195726037478  0.8630430953451979  0.2743899957803608  1.0000
  H   H42       1.0  0.15923278582349107  0.8810153929694381  0.2636469264835953  1.0000
  H   H43       1.0  0.26981835565643314  0.3950346597859351  0.5743581287305517  1.0000
  H   H44       1.0  0.2688943785538526  0.30176383304321763  0.5588701178218755  1.0000
  H   H45       1.0  0.3258073479197208  0.15481969442992488  0.5038387121405704  1.0000
  H   H46       1.0  0.122109382096987  0.11775497162691552  0.753604872031083  1.0000
  H   H47       1.0  0.17172042324669687  0.8831112055522039  0.5046223723348929  1.0000
  H   H48       1.0  0.09179683285179144  0.8144315705613534  0.6883287483937366  1.0000
  H   H49       1.0  0.19481918599973366  0.7821324370833834  0.525614659027596  1.0000
  C   C1        1.0  0.046039742508526216  0.0962403476126141  0.380549983876861  1.0000
  C   C2        1.0  0.27009350022224515  0.0915152998171607  0.4618016282920293  1.0000
  C   C3        1.0  0.1542958309709235  0.11776976724951989  0.7172849851421076  1.0000
  C   C4        1.0  0.7925720300073635  0.9377622876090468  0.419240721685064  1.0000
  C   C5        1.0  0.12671360314730865  0.883777024447916  0.5289503430647216  1.0000
  C   C6        1.0  0.2370605575949939  0.13114438348075202  0.7293064526064511  1.0000
  C   C7        1.0  0.1109418962590354  0.8571846457348257  0.5805818346635903  1.0000
  C   C8        1.0  0.2633553179412687  0.028383025346002497  0.3975507730452462  1.0000
  C   C9        1.0  0.9249210322831302  0.9721608057506899  0.7203748028457326  1.0000
  C   C10       1.0  0.11895943711658673  0.7825017266782197  0.6563520110604841  1.0000
  C   C11       1.0  0.13942176230972345  0.8047400751549888  0.6039761280087603  1.0000
  C   C12       1.0  0.7847707383903783  0.0114862394348236  0.4272747523582153  1.0000
  C   C13       1.0  0.17768516489219618  0.7653149298074737  0.5660159541722364  1.0000
  C   C14       1.0  0.1877789546947426  0.6987053815277947  0.5734198622134912  1.0000
  C   C15       1.0  0.15985004174292788  0.6711116333445304  0.6219773155708096  1.0000
  C   C16       1.0  0.8770589817105474  0.7157591110578565  0.30634000216181795  1.0000
  C   C17       1.0  0.12809763464700544  0.7162329046357812  0.6659208883834252  1.0000
  C   C18       1.0  0.21897168207128448  0.6523033348576133  0.5293887909723337  1.0000
  C   C19       1.0  0.21708116520095191  0.5796633144921728  0.5298407490317841  1.0000
  C   C20       1.0  0.18543470176086163  0.5480866915780138  0.5754544985279536  1.0000
  C   C21       1.0  0.15924044965061065  0.596459411034374  0.6233086528134493  1.0000
  C   C22       1.0  0.12835692717271743  0.5664597114045834  0.6697243084322294  1.0000
  C   C23       1.0  0.7982169280270667  0.6590808737962562  0.30211081505706977  1.0000
  C   C24       1.0  0.10208513281774854  0.616359514192709  0.71693527043454  1.0000
  C   C25       1.0  0.10189770918515242  0.687785994323903  0.7151001518295885  1.0000
  C   C26       1.0  0.17646922774530796  0.4697775398538369  0.5723319663476829  1.0000
  C   C27       1.0  0.14513312768098535  0.4388606997449571  0.6169917174811913  1.0000
  C   C28       1.0  0.07646945308364651  0.29977002803666153  0.6285381587022768  1.0000
  C   C29       1.0  0.12318210030738899  0.4892424723827915  0.6664147540620248  1.0000
  C   C30       1.0  0.4085638609620545  0.10536338895120423  0.40096048463051653  1.0000
  C   C31       1.0  0.3324326602809294  0.027320236945889996  0.37672885182550425  1.0000
  C   C32       1.0  0.32746499088968756  0.9468687902948076  0.3385238868297051  1.0000
  C   C33       1.0  0.39821230704065874  0.9428475383798371  0.3297154695987957  1.0000
  C   C34       1.0  0.13259780973965007  0.3550407371954165  0.6101638497840937  1.0000
  C   C35       1.0  0.47770402901893766  0.022463762351755196  0.3612302847288261  1.0000
  C   C36       1.0  0.4816382258672647  0.10465818016879781  0.39481511011872766  1.0000
  C   C37       1.0  0.3953455899251422  0.8610987992470313  0.2954127340430047  1.0000
  C   C38       1.0  0.4679436717326412  0.8581306963602843  0.2978742408498647  1.0000
  C   C39       1.0  0.5495660638701806  0.9375036205236498  0.3357151673553886  1.0000
  C   C40       1.0  0.7968074781324078  0.7094578537074413  0.36790818434267447  1.0000
  C   C41       1.0  0.5535234753934333  0.019921616541530806  0.36472360131016046  1.0000
  C   C42       1.0  0.6346008221560738  0.09929117711600101  0.4022070195550426  1.0000
  C   C43       1.0  0.6355403736343632  0.1808708937614227  0.4287483709924018  1.0000
  C   C44       1.0  0.5624497355176388  0.18343565495471378  0.4250513932451128  1.0000
  C   C45       1.0  0.24087893490057155  0.12003842997646069  0.6615304709852622  1.0000
  C   C46       1.0  0.6271237471605388  0.9384114596482077  0.3512547249309107  1.0000
  C   C47       1.0  0.7081790815179758  0.014537223610474796  0.3955964996178735  1.0000
  C   C48       1.0  0.7094706215080321  0.09466330567934016  0.41652634919454806  1.0000
  C   C49       1.0  0.30587169921464163  0.1620794512037094  0.7987371383700574  1.0000
  C   C50       1.0  0.2984395056248772  0.1957436213753212  0.8659513546549603  1.0000
  C   C51       1.0  0.3675784022165445  0.23922239674890733  0.9333741392417919  1.0000
  C   C52       1.0  0.17157934402208497  0.30814073090737537  0.5817430888737289  1.0000
  C   C53       1.0  0.4478971115859808  0.2510192141508085  0.9361829579347399  1.0000
  C   C54       1.0  0.45458810876963435  0.2123780197345155  0.8699584816083216  1.0000
  C   C55       1.0  0.38461575272998516  0.16805846390901993  0.8024818168283402  1.0000
  C   C56       1.0  0.04659362387045011  0.875005655716201  0.5909381213509731  1.0000
  C   C57       1.0  0.6697741451751327  0.4572666221157532  0.11472107810146076  1.0000
  C   C58       1.0  0.7371025042332563  0.5356287760242608  0.17472009062666427  1.0000
  C   C59       1.0  0.5932679331952643  0.41207599434657993  0.12006557068822599  1.0000
  C   C60       1.0  0.7313662458107899  0.5718283809570649  0.24223459303401998  1.0000
  C   C61       1.0  0.6565730908105252  0.5233564107841177  0.24818680788071387  1.0000
  C   C62       1.0  0.588359895116497  0.4453034719690265  0.18803365845013803  1.0000
  C   C63       1.0  0.9873935701921255  0.022602062406484397  0.2382630464714595  1.0000
  C   C64       1.0  0.8638987282788336  0.08270269658843428  0.4852997176582575  1.0000
  C   C65       1.0  0.9149498009871522  0.9574234795432018  0.17086805216598586  1.0000
  C   C66       1.0  0.9158719115231904  0.9490170866630335  0.1039355853651856  1.0000
  C   C67       1.0  0.17688665066205544  0.9601912044506591  0.3651703001471206  1.0000
  C   C68       1.0  0.9897922594371238  0.0068141263886901  0.10238493774551924  1.0000
  C   C69       1.0  0.0616619162239473  0.07280213946943799  0.16916691054429117  1.0000
  C   C70       1.0  0.060629667495668116  0.08017486475471  0.23587144788253053  1.0000
  C   C71       1.0  0.0025032400935956025  0.026220529809357598  0.9191306732356634  1.0000
  C   C72       1.0  0.9972634095245925  0.0315871083286297  0.8554613917467859  1.0000
  C   C73       1.0  0.9405691867820352  0.9509873213720114  0.9154532557451772  1.0000
  C   C74       1.0  0.9306187317589972  0.9628573000207441  0.7859561219380281  1.0000
  C   C75       1.0  0.8711080847728923  0.88658962718808  0.7825558702635503  1.0000
  C   C76       1.0  0.9487179454661501  0.9549263972957718  0.31905994441839175  1.0000
  C   C77       1.0  0.875886381962019  0.8807601015634603  0.8463636503196879  1.0000
  C   C78       1.0  0.9553815570114069  0.05007821339655999  0.7161196112154328  1.0000
  C   C79       1.0  0.9904906867464406  0.026146356422891905  0.30823214351930517  1.0000
  C   C80       1.0  0.8909591539783148  0.9067621034376571  0.6469075906836109  1.0000
  N   N1        1.0  0.038848677716451605  0.06759167731947711  0.42956788335308715  1.0000
  N   N2        1.0  0.5170603232739523  0.34086309935924675  0.059479132352422054  1.0000
  N   N3        1.0  0.9971578851243024  0.0073526319040482  0.03860452686510744  1.0000
  N   N4        1.0  0.8688023996138697  0.9640223064175188  0.46956758986454633  1.0000
  N   N5        1.0  0.9357654848456817  0.9430477783922342  0.977762708838469  1.0000
  N   N6        1.0  0.9184406531581859  0.792778110502077  0.3691562335147723  1.0000
  N   N7        1.0  0.08083445738600399  0.22679097378776453  0.6124942072543716  1.0000
  N   N8        1.0  0.8684143199815467  0.7887696944300657  0.40750411708862094  1.0000
  N   N9        1.0  0.1403892842660781  0.2319426747896074  0.5830020585172448  1.0000
  N   N10       1.0  0.9127624929639779  0.052872595838835  0.5101290444656357  1.0000
  N   N11       1.0  0.9794720112621819  0.980012860227326  0.3917403891685325  1.0000
  N   N12       1.0  0.024897351252235442  0.9073421864691866  0.547457698031316  1.0000
  N   N13       1.0  0.1669899074195627  0.1032634009573812  0.6145649496128341  1.0000
  N   N14       1.0  0.13159060803420172  0.8809010033707309  0.2994884019046822  1.0000
  N   N15       1.0  0.2321197818226608  0.3293340173355049  0.5532764888026306  1.0000
  N   N16       1.0  0.1380176832002533  0.9805110283537884  0.4086126929220343  1.0000
  N   N17       1.0  0.9413435281326626  0.03250182525137289  0.6462181151467872  1.0000
  N   N18       1.0  0.9015608069780112  0.9429427416857407  0.6031709359862917  1.0000
  N   N19       1.0  0.1958756767540564  0.06334963097614829  0.468673458151521  1.0000
  N   N20       1.0  0.11378516116581491  0.10168960339985489  0.6487886237686665  1.0000
  N   N21       1.0  0.07446034266200022  0.9129476157492887  0.5096381680427129  1.0000
  N   N22       1.0  0.5250610709774932  0.3079652023998634  0.00014984365591176978  1.0000
  F   F1        1.0  0.6217804045100266  0.8584076053960173  0.325658869635312  1.0000
