data_image0
_chemical_formula_structural       Ag2H16C6N14O8
_chemical_formula_sum              "Ag2 H16 C6 N14 O8"
_cell_length_a       6.484250804712335
_cell_length_b       6.484240416079527
_cell_length_c       11.14392090529025
_cell_angle_alpha    99.34075724699251
_cell_angle_beta     99.34058114389339
_cell_angle_gamma    101.89934263819727

_space_group_name_H-M_alt    "P 1"
_space_group_IT_number       1

loop_
  _space_group_symop_operation_xyz
  'x, y, z'

loop_
  _atom_site_type_symbol
  _atom_site_label
  _atom_site_symmetry_multiplicity
  _atom_site_fract_x
  _atom_site_fract_y
  _atom_site_fract_z
  _atom_site_occupancy
  Ag  Ag1       1.0  0.04001474301890084  0.7164350087345284  0.7554831761137422  1.0000
  Ag  Ag2       1.0  0.7164311467558806  0.04001527693328911  0.2554852793553266  1.0000
  H   H1        1.0  0.4352881966200998  0.7559079901274472  0.6580959384889624  1.0000
  H   H2        1.0  0.7559060932941365  0.43528794829592243  0.1580948510329208  1.0000
  H   H3        1.0  0.380441260547869  0.9823185189112564  0.6505095505168583  1.0000
  H   H4        1.0  0.9823189278806056  0.38044247541893117  0.15051039667051208  1.0000
  H   H5        1.0  0.6669604271798092  0.6430653270048764  0.5270758830863826  1.0000
  H   H6        1.0  0.643062583228037  0.6669596779230459  0.027074043700174886  1.0000
  H   H7        1.0  0.6614382861359757  0.7110265410415408  0.3816683827486287  1.0000
  H   H8        1.0  0.7110238673747703  0.6614387463615333  0.8816669586237822  1.0000
  H   H9        1.0  0.9922364193089875  0.12422266073752301  0.8834053957393168  1.0000
  H   H10       1.0  0.12421923168944461  0.9922325860824304  0.38340566237122436  1.0000
  H   H11       1.0  0.08876343470095799  0.3952923502269882  0.8871808489196837  1.0000
  H   H12       1.0  0.39529277181139116  0.08875733248984122  0.387181226171549  1.0000
  H   H13       1.0  0.03503231325912279  0.4106014381654646  0.3724327450145495  1.0000
  H   H14       1.0  0.41059881827698774  0.0350343515895162  0.8724348071584558  1.0000
  H   H15       1.0  0.13239177135911723  0.6028885270035005  0.5111094577311093  1.0000
  H   H16       1.0  0.6028852414996564  0.1323893009860981  0.011109696576632211  1.0000
  C   C1        1.0  0.8210044350642678  0.9535998874727838  0.5335097501960746  1.0000
  C   C2        1.0  0.9536001553569733  0.8210002270554853  0.03350953721528072  1.0000
  C   C3        1.0  0.9602377337303311  0.2027737868870929  0.7142293869052311  1.0000
  C   C4        1.0  0.20276899905539386  0.9602341229388643  0.21422855805606392  1.0000
  C   C5        1.0  0.9672272382056165  0.3069958740684982  0.5273973884781  1.0000
  C   C6        1.0  0.3069920816176007  0.9672210730693535  0.027398126098482606  1.0000
  N   N1        1.0  0.8831662117675663  0.9937423054891852  0.6585929388970229  1.0000
  N   N2        1.0  0.9937374707814542  0.8831631528107238  0.15859236188165235  1.0000
  N   N3        1.0  0.9975330171574516  0.3670582596567087  0.6527910787913386  1.0000
  N   N4        1.0  0.3670566922503085  0.9975282852766583  0.15279214575953406  1.0000
  N   N5        1.0  0.8684827295157759  0.10397056778677442  0.4629174431577212  1.0000
  N   N6        1.0  0.10397046578481192  0.8684803550012886  0.9629175421367081  1.0000
  N   N7        1.0  0.7121550159101774  0.7554737914044268  0.4762760416516514  1.0000
  N   N8        1.0  0.7554711741268039  0.7121563248190842  0.9762747099113086  1.0000
  N   N9        1.0  0.9995063819846948  0.24937799561139684  0.8385484016767252  1.0000
  N   N10       1.0  0.2493767105846558  0.9995051761124999  0.3385490346185804  1.0000
  N   N11       1.0  0.035961181116427134  0.45635547995183157  0.46398820370004046  1.0000
  N   N12       1.0  0.4563567943170881  0.0359589864446619  0.9639902011493078  1.0000
  N   N13       1.0  0.5167692316696986  0.3845190068662561  0.6633178814862646  1.0000
  N   N14       1.0  0.3845186052534757  0.5167688663961201  0.16331908402612072  1.0000
  O   O1        1.0  0.3177661325599956  0.8243460269798036  0.630869775056432  1.0000
  O   O2        1.0  0.8243474670194998  0.3177657562870023  0.13086974599824694  1.0000
  O   O3        1.0  0.5856023793852146  0.5833378572805188  0.7171836171653397  1.0000
  O   O4        1.0  0.5833378463969511  0.5855986151506088  0.21718532270930524  1.0000
  O   O5        1.0  0.4958592176238028  0.33439455290132974  0.5475087830566707  1.0000
  O   O6        1.0  0.33439514282994753  0.49584787409077086  0.04750994227219961  1.0000
  O   O7        1.0  0.47444974125374273  0.24496175090735764  0.7282537165708263  1.0000
  O   O8        1.0  0.2449617440031417  0.4744629148282442  0.22825634194241934  1.0000
