data_image0
_chemical_formula_structural       Cd4H44C36N4Cl8O8
_chemical_formula_sum              "Cd4 H44 C36 N4 Cl8 O8"
_cell_length_a       6.9342859510115264
_cell_length_b       11.855682940043115
_cell_length_c       13.87978527413614
_cell_angle_alpha    110.65463459750177
_cell_angle_beta     89.9998547750022
_cell_angle_gamma    89.99991153446973

_space_group_name_H-M_alt    "P 1"
_space_group_IT_number       1

loop_
  _space_group_symop_operation_xyz
  'x, y, z'

loop_
  _atom_site_type_symbol
  _atom_site_label
  _atom_site_symmetry_multiplicity
  _atom_site_fract_x
  _atom_site_fract_y
  _atom_site_fract_z
  _atom_site_occupancy
  Cd  Cd1       1.0  0.8952805249122235  0.4763329490816091  0.2555183262065128  1.0000
  Cd  Cd2       1.0  0.3952780351519466  0.5236683113586408  0.24448125672838464  1.0000
  Cd  Cd3       1.0  0.1047234248772  0.5236709965313721  0.744481362969772  1.0000
  Cd  Cd4       1.0  0.6047201461974794  0.47633474302840983  0.7555196089167636  1.0000
  H   H1        1.0  0.7522788734300863  0.65719400664738  0.9803171462505701  1.0000
  H   H2        1.0  0.25227799618851077  0.3428060990593309  0.5196841261926437  1.0000
  H   H3        1.0  0.24772507637060676  0.3428027379150791  0.019681846731344873  1.0000
  H   H4        1.0  0.7477201851609935  0.6571951626942436  0.4803176483937007  1.0000
  H   H5        1.0  0.5871495190334813  0.6640368081361956  0.07193262709786544  1.0000
  H   H6        1.0  0.0871480402263742  0.3359640636957336  0.4280686758375864  1.0000
  H   H7        1.0  0.41285298865761894  0.3359608327441777  0.928065911414734  1.0000
  H   H8        1.0  0.9128472569002923  0.6640390008658698  0.5719336337964833  1.0000
  H   H9        1.0  0.7962728189033117  0.5886091679940861  0.06795075790586215  1.0000
  H   H10       1.0  0.29627256291958304  0.41139045622607984  0.432049186622919  1.0000
  H   H11       1.0  0.2037311308955125  0.41138847797121497  0.9320485025986471  1.0000
  H   H12       1.0  0.7037256184335731  0.5886107953552865  0.5679511439770479  1.0000
  H   H13       1.0  0.08917467441789033  0.7414479578399239  0.029667592439487602  1.0000
  H   H14       1.0  0.5891752126787113  0.2585538120897651  0.4703339744444364  1.0000
  H   H15       1.0  0.9108263911525045  0.258554195141933  0.9703330056805299  1.0000
  H   H16       1.0  0.41082296867258355  0.7414483408944431  0.5296666236781248  1.0000
  H   H17       1.0  0.12545192865559326  0.8395193666897782  0.15807577333615794  1.0000
  H   H18       1.0  0.6254548162819659  0.1604859395017186  0.34192535565725285  1.0000
  H   H19       1.0  0.8745462526956231  0.16048457892790677  0.8419239158452143  1.0000
  H   H20       1.0  0.3745433650654491  0.8395216015551342  0.658073959628112  1.0000
  H   H21       1.0  0.8033948119370821  0.7691654342290093  0.20566725700945193  1.0000
  H   H22       1.0  0.30339861224703674  0.23083508485940027  0.29433366446845344  1.0000
  H   H23       1.0  0.19660481152931908  0.23083491086223518  0.79433208407346  1.0000
  H   H24       1.0  0.6965981269947437  0.7691661718092461  0.7056673881259669  1.0000
  H   H25       1.0  0.0094573185126663  0.9601541526698795  0.08329136444581306  1.0000
  H   H26       1.0  0.5094630313880018  0.0398450379958746  0.4167088184925873  1.0000
  H   H27       1.0  0.9905408628552339  0.0398443692724513  0.9167045536204412  1.0000
  H   H28       1.0  0.4905438026168696  0.9601589177869554  0.5832923146675242  1.0000
  H   H29       1.0  0.856865025745563  0.14943616980515634  0.0869419388282537  1.0000
  H   H30       1.0  0.3568738006537587  0.8505606361028341  0.4130549302616372  1.0000
  H   H31       1.0  0.14312882930293816  0.8505596377599787  0.9130517326876627  1.0000
  H   H32       1.0  0.6431359175721881  0.14943972932458388  0.5869472987851196  1.0000
  H   H33       1.0  0.5057342999191903  0.18188426321658108  0.11904703076623238  1.0000
  H   H34       1.0  0.005743322599308001  0.8181122140526395  0.3809501901892529  1.0000
  H   H35       1.0  0.4942624393410995  0.8181115646906107  0.8809495287198884  1.0000
  H   H36       1.0  0.9942663956321953  0.18188634348300073  0.6190507818191335  1.0000
  H   H37       1.0  0.30948204561198617  0.02654458024399989  0.1574488049936917  1.0000
  H   H38       1.0  0.8094899937533881  0.9734504899778713  0.3425461686481127  1.0000
  H   H39       1.0  0.6905161357578538  0.9734512476620125  0.8425477544911573  1.0000
  H   H40       1.0  0.19051539815506405  0.02654536335276699  0.6574540007963137  1.0000
  H   H41       1.0  0.46471395174825153  0.8411694678982187  0.16404311870482494  1.0000
  H   H42       1.0  0.9647212002117698  0.15882626068506056  0.3359532926202177  1.0000
  H   H43       1.0  0.5352856717311384  0.15882636000662123  0.835953440778752  1.0000
  H   H44       1.0  0.0352813074775753  0.8411695926479296  0.6640468768267594  1.0000
  C   C1        1.0  0.13445387533192127  0.6522297884060961  0.13764924612591758  1.0000
  C   C2        1.0  0.6344503968035016  0.34777371047314887  0.36235277593501536  1.0000
  C   C3        1.0  0.8655515165633931  0.34777416737791356  0.8623518870354657  1.0000
  C   C4        1.0  0.36554201610029224  0.6522320532132324  0.6376496142761852  1.0000
  C   C5        1.0  0.05231413004256071  0.7566959570152321  0.11052895875491937  1.0000
  C   C6        1.0  0.5523151167996616  0.24330677444383747  0.3894729406725475  1.0000
  C   C7        1.0  0.94768693552966  0.24330619088051714  0.8894709173719092  1.0000
  C   C8        1.0  0.4476816224365194  0.7566971864333352  0.6105289144896487  1.0000
  C   C9        1.0  0.8351228534825667  0.7723861105832621  0.128985921140412  1.0000
  C   C10       1.0  0.335124833063432  0.227613450262929  0.37101395485561983  1.0000
  C   C11       1.0  0.1648782120971148  0.22761243170113224  0.8710128848960466  1.0000
  C   C12       1.0  0.6648704640706242  0.7723878013207964  0.6289863757468908  1.0000
  C   C13       1.0  0.7473328599724453  0.8861374864914989  0.12196626988328046  1.0000
  C   C14       1.0  0.2473365466187545  0.1138622124701882  0.3780330389780601  1.0000
  C   C15       1.0  0.2526653213936214  0.11386104053693911  0.8780303701761624  1.0000
  C   C16       1.0  0.7526688452803685  0.886138147874661  0.6219684680793307  1.0000
  C   C17       1.0  0.8559568177275666  0.9735668673545702  0.09998804902343035  1.0000
  C   C18       1.0  0.35596495062448247  0.0264317682716069  0.4000129666802152  1.0000
  C   C19       1.0  0.14403847941760967  0.0264307684455858  0.9000097675023397  1.0000
  C   C20       1.0  0.6440361149478163  0.9735685869906661  0.5999878183878024  1.0000
  C   C21       1.0  0.769450169997107  0.0801908192953533  0.10066084028450459  1.0000
  C   C22       1.0  0.26945738918379897  0.9198088435857057  0.39933842955917226  1.0000
  C   C23       1.0  0.23054801136895972  0.919807707733078  0.8993357997749383  1.0000
  C   C24       1.0  0.7305480027096182  0.08019690991788758  0.6006625166542038  1.0000
  C   C25       1.0  0.5727016472363076  0.0992870315146632  0.1202229585754537  1.0000
  C   C26       1.0  0.07271045772233721  0.9007111545816072  0.37977684527574934  1.0000
  C   C27       1.0  0.4272936499107374  0.9007097028826438  0.879774590427722  1.0000
  C   C28       1.0  0.9273007026150282  0.09928830944179619  0.6202251162471484  1.0000
  C   C29       1.0  0.46317060457576537  0.0119614225802209  0.1413537082967267  1.0000
  C   C30       1.0  0.9631784329375039  0.988036121497977  0.35864468478180095  1.0000
  C   C31       1.0  0.5368261346789609  0.9880362132187483  0.8586441082277714  1.0000
  C   C32       1.0  0.0368240747500153  0.011959736921113497  0.641356206658358  1.0000
  C   C33       1.0  0.5501589068483099  0.9069938326189017  0.1437950603610289  1.0000
  C   C34       1.0  0.050167085108270705  0.09300348376065407  0.3562037937399438  1.0000
  C   C35       1.0  0.44983927451970374  0.09300200037321099  0.8562022211170088  1.0000
  C   C36       1.0  0.949833980462124  0.9069986692212026  0.6437968043800737  1.0000
  N   N1        1.0  0.7328934774505171  0.6627517425347093  0.05642026760666136  1.0000
  N   N2        1.0  0.23289191693793043  0.33724799015697465  0.44358051071649374  1.0000
  N   N3        1.0  0.2671104723483069  0.3372459034305848  0.943578992897848  1.0000
  N   N4        1.0  0.7671048223020165  0.6627532715977721  0.5564212638711225  1.0000
  Cl  Cl1       1.0  0.14467785707365272  0.5994443154730291  0.3930393759986401  1.0000
  Cl  Cl2       1.0  0.6446755285002155  0.40055646760549735  0.10696254745176498  1.0000
  Cl  Cl3       1.0  0.8553217663798733  0.4005578578544087  0.6069641100953901  1.0000
  Cl  Cl4       1.0  0.35532265284745523  0.5994447992341704  0.8930399491277612  1.0000
  Cl  Cl5       1.0  0.1735757839718488  0.3230351808995948  0.16693670614091619  1.0000
  Cl  Cl6       1.0  0.6735730260871976  0.6769646434659577  0.3330634548254707  1.0000
  Cl  Cl7       1.0  0.826423839489074  0.6769651794499579  0.8330648009215549  1.0000
  Cl  Cl8       1.0  0.32642948159274715  0.32303750951471943  0.6669371432932677  1.0000
  O   O1        1.0  0.020331212777684002  0.5672553312154135  0.1350022326020194  1.0000
  O   O2        1.0  0.520321728056203  0.4327465357615665  0.36499728974983725  1.0000
  O   O3        1.0  0.9796785054555386  0.4327459101843373  0.8649966540014018  1.0000
  O   O4        1.0  0.47966203220507  0.5672556019760933  0.6350011424058835  1.0000
  O   O5        1.0  0.31297399597880127  0.6552183577243723  0.16096186954789712  1.0000
  O   O6        1.0  0.8129706430217568  0.3447893773114501  0.339044063192297  1.0000
  O   O7        1.0  0.6870313959016983  0.3447901203321493  0.8390427672060099  1.0000
  O   O8        1.0  0.18702032775398442  0.6552218151375584  0.6609628201284748  1.0000
