data_image0
_chemical_formula_structural       Al4H40C66O22
_chemical_formula_sum              "Al4 H40 C66 O22"
_cell_length_a       6.6651526346172165
_cell_length_b       22.465520985153464
_cell_length_c       23.815643853110736
_cell_angle_alpha    112.69740295793287
_cell_angle_beta     89.95164067398916
_cell_angle_gamma    90.19536083061513

_space_group_name_H-M_alt    "P 1"
_space_group_IT_number       1

loop_
  _space_group_symop_operation_xyz
  'x, y, z'

loop_
  _atom_site_type_symbol
  _atom_site_label
  _atom_site_symmetry_multiplicity
  _atom_site_fract_x
  _atom_site_fract_y
  _atom_site_fract_z
  _atom_site_occupancy
  Al  Al1       1.0  0.11522765652831879  0.5008016442845076  0.5004549893470409  1.0000
  Al  Al2       1.0  0.6141508318790868  0.4984140253197112  0.4971798452656058  1.0000
  Al  Al3       1.0  0.6939769138381493  0.9992223402053003  0.9990657136381741  1.0000
  Al  Al4       1.0  0.19409328706746726  0.0017103765000853997  0.002458210969173499  1.0000
  H   H1        1.0  0.6156496441772887  0.9106146888467994  0.11711980530439815  1.0000
  H   H2        1.0  0.6021332349625864  0.8468896325794976  0.18245186569168945  1.0000
  H   H3        1.0  0.2435941935807833  0.8224310336151323  0.16640913851392022  1.0000
  H   H4        1.0  0.25511591435797953  0.8895090293162938  0.10410867497337516  1.0000
  H   H5        1.0  0.20129883474758967  0.8203006319781992  0.2589946979212243  1.0000
  H   H6        1.0  0.18674261618424742  0.7532375087080326  0.31937093964072005  1.0000
  H   H7        1.0  0.6087711556473252  0.679993383185135  0.24156428895440743  1.0000
  H   H8        1.0  0.6235093576898052  0.747081140413606  0.1812120653911151  1.0000
  H   H9        1.0  0.5660081620618058  0.6785191059064177  0.3343279784422393  1.0000
  H   H10       1.0  0.5525993479213582  0.6118541359142499  0.3970005680252981  1.0000
  H   H11       1.0  0.1923529758361937  0.5906750881852005  0.3847991076026318  1.0000
  H   H12       1.0  0.2074955345021507  0.6538347947572803  0.3189560083358457  1.0000
  H   H13       1.0  0.5647094267771634  0.6203794926447374  0.6761704793859947  1.0000
  H   H14       1.0  0.2924168707041375  0.789153435265462  0.7266668202386553  1.0000
  H   H15       1.0  0.5349448377716685  0.7142592322808811  0.7751126555243812  1.0000
  H   H16       1.0  0.26138297063612015  0.8787755717761105  0.8279040991090978  1.0000
  H   H17       1.0  0.6685430622426837  0.815046358668539  0.8497060206110587  1.0000
  H   H18       1.0  0.6494650933343422  0.3232812072649765  0.3473797007221363  1.0000
  H   H19       1.0  0.0381298187915817  0.3728778874323454  0.3279985162642659  1.0000
  H   H20       1.0  0.7973491666034819  0.223174716092558  0.27035603022785887  1.0000
  H   H21       1.0  0.010442522625936602  0.2786694472562203  0.22879052512905662  1.0000
  H   H22       1.0  0.7694841530299215  0.12904147121906112  0.17116638296115375  1.0000
  H   H23       1.0  0.15847973204083843  0.1790084938181593  0.15180322183787345  1.0000
  H   H24       1.0  0.11565750873095478  0.09948763094269003  0.8931568057635741  1.0000
  H   H25       1.0  0.1000115775495942  0.16647038582014065  0.8310168421892354  1.0000
  H   H26       1.0  0.7460367283267357  0.17010613507726902  0.8259027269944635  1.0000
  H   H27       1.0  0.758153981824236  0.10470263281827394  0.8897110234124096  1.0000
  H   H28       1.0  0.6913371326408893  0.2659430278817396  0.823935585293398  1.0000
  H   H29       1.0  0.1178502233240408  0.24505547785673096  0.6850675708536114  1.0000
  H   H30       1.0  0.1312777732855892  0.17600556127249692  0.743537194776607  1.0000
  H   H31       1.0  0.07760896287327058  0.3584443331925726  0.7003214814117198  1.0000
  H   H32       1.0  0.060808336220866004  0.4173880809498486  0.6302148790784796  1.0000
  H   H33       1.0  0.6841461934301306  0.3775530756692477  0.5866632232380339  1.0000
  H   H34       1.0  0.6980269402552963  0.3137659941861416  0.6517790285740189  1.0000
  H   H35       1.0  0.10824534422835799  0.6753667214639878  0.5788506905076999  1.0000
  H   H36       1.0  0.6749420325753447  0.39160351597907817  0.7610921050078898  1.0000
  H   H37       1.0  0.3752742098557604  0.5833095436149736  0.5387950009274006  1.0000
  H   H38       1.0  0.8657174037538483  0.42183280649973665  0.49919102820176414  1.0000
  H   H39       1.0  0.43818936096808864  0.9155461855419349  0.9740042873019941  1.0000
  H   H40       1.0  0.9404516382781624  0.08498393156523322  0.020641954428924695  1.0000
  C   C1        1.0  0.35932502391307247  0.40907079674413893  0.4023729913384172  1.0000
  C   C2        1.0  0.3655722996672992  0.43685642868315006  0.5629650529420329  1.0000
  C   C3        1.0  0.8611133402259626  0.5927856615814023  0.595675521699327  1.0000
  C   C4        1.0  0.8653066203810553  0.5608335727181313  0.43509821595992537  1.0000
  C   C5        1.0  0.752057325482035  0.8910643585902278  0.12847851586238324  1.0000
  C   C6        1.0  0.7455830575758355  0.8548898522606767  0.16439348129338788  1.0000
  C   C7        1.0  0.9217620375448662  0.8293170632597725  0.17878874563056257  1.0000
  C   C8        1.0  0.10565191565389402  0.8427510395392519  0.15687372133273672  1.0000
  C   C9        1.0  0.11308931086708181  0.8796082384436164  0.1215544567727278  1.0000
  C   C10       1.0  0.9360513746296419  0.9035198580180719  0.10646523405019082  1.0000
  C   C11       1.0  0.07194393106857433  0.7888342667270298  0.25417548894731123  1.0000
  C   C12       1.0  0.06376567680477051  0.7507629792374078  0.28834514600931976  1.0000
  C   C13       1.0  0.8965614538415849  0.7112080808335863  0.2853638905697551  1.0000
  C   C14       1.0  0.7381090930030751  0.7114848634821203  0.24645826598131038  1.0000
  C   C15       1.0  0.7463695984223689  0.7495396741320022  0.21227127920867866  1.0000
  C   C16       1.0  0.9133554704927461  0.7891908564906561  0.21534496490877333  1.0000
  C   C17       1.0  0.7035715821435459  0.6581528325315703  0.34406419534753496  1.0000
  C   C18       1.0  0.694975323753539  0.6214920541964092  0.3795504200156542  1.0000
  C   C19       1.0  0.8717665690069083  0.5976239763691427  0.3948687502584533  1.0000
  C   C20       1.0  0.05622136025522201  0.6100322574494188  0.37306237903862177  1.0000
  C   C21       1.0  0.0637168301240436  0.64594242886038  0.33690983790290824  1.0000
  C   C22       1.0  0.8877753662867532  0.6713262142456813  0.3221451796219553  1.0000
  C   C23       1.0  0.8521707812347259  0.6502662048515617  0.6544219221684597  1.0000
  C   C24       1.0  0.9612016186007821  0.8525470978548101  0.8445352763685816  1.0000
  C   C25       1.0  0.1566066213168469  0.7945026826728354  0.7535248425740233  1.0000
  C   C26       1.0  0.1393249337151516  0.8442696932938673  0.8096278177377836  1.0000
  C   C27       1.0  0.8056686649763876  0.8087953195772855  0.8230192965159799  1.0000
  C   C28       1.0  0.8230887273783695  0.7550405776612623  0.7670634079336407  1.0000
  C   C29       1.0  0.00014141061092940588  0.748119775446071  0.7303743226974644  1.0000
  C   C30       1.0  0.008120424770716306  0.6956593951240253  0.6720882037171734  1.0000
  C   C31       1.0  0.6830072529417137  0.6565592566130932  0.6920069999477574  1.0000
  C   C32       1.0  0.6678991883387938  0.7082685338455195  0.746703620900355  1.0000
  C   C33       1.0  0.3467885575631512  0.35291662792090517  0.3430440472113219  1.0000
  C   C34       1.0  0.4612375287530384  0.14923221509590692  0.1559328034195246  1.0000
  C   C35       1.0  0.6591490159553572  0.21398510439291846  0.24381109620507854  1.0000
  C   C36       1.0  0.6438834869819627  0.16180961917481806  0.18935869849696013  1.0000
  C   C37       1.0  0.2981880360546327  0.18961913304551817  0.17770993916557384  1.0000
  C   C38       1.0  0.3118611645550827  0.24475793759626904  0.23259311171092625  1.0000
  C   C39       1.0  0.4961761591152083  0.25731863387834153  0.26653382036266027  1.0000
  C   C40       1.0  0.5099383762586882  0.31253979382165664  0.3213807733477978  1.0000
  C   C41       1.0  0.16395059938204073  0.34021936821016413  0.3097130325427314  1.0000
  C   C42       1.0  0.1487011349322458  0.2879771182117353  0.25532037799489865  1.0000
  C   C43       1.0  0.2525822866571446  0.11531698268539269  0.8779629939217269  1.0000
  C   C44       1.0  0.24520527353107724  0.15224020000268723  0.8427538107227758  1.0000
  C   C45       1.0  0.4221400211514847  0.17342232176950742  0.8238740438731751  1.0000
  C   C46       1.0  0.6070172749699765  0.15532419462748245  0.8409957727823067  1.0000
  C   C47       1.0  0.6150063838902042  0.11850055725825114  0.8763201725578751  1.0000
  C   C48       1.0  0.4376506071045512  0.09847751608023714  0.8955270721970829  1.0000
  C   C49       1.0  0.5661753626160788  0.2590260734133238  0.7925329137382487  1.0000
  C   C50       1.0  0.5588596925755595  0.299185037838626  0.759848360551757  1.0000
  C   C51       1.0  0.3963103893235029  0.29455248388808297  0.7200185508121135  1.0000
  C   C52       1.0  0.2431152137813513  0.2500211288976218  0.7159889050099647  1.0000
  C   C53       1.0  0.2514491996236217  0.2108513055343978  0.7489735032052633  1.0000
  C   C54       1.0  0.4140639024166006  0.21426555578546666  0.7879470406950442  1.0000
  C   C55       1.0  0.20864851033924478  0.3610920397521582  0.6738932844017211  1.0000
  C   C56       1.0  0.1997563120851922  0.39462638788889853  0.6355258747825727  1.0000
  C   C57       1.0  0.37146062384819345  0.4008097319371799  0.6040614576028032  1.0000
  C   C58       1.0  0.5516277629764161  0.37257098411001993  0.6113173259989607  1.0000
  C   C59       1.0  0.5594093679835198  0.33798932835705403  0.6486479812972872  1.0000
  C   C60       1.0  0.388660254391695  0.33207999107028746  0.6810113730721595  1.0000
  C   C61       1.0  0.4436423268617061  0.06114139224921191  0.9354348499668885  1.0000
  C   C62       1.0  0.4485935657728747  0.09315421655257691  0.09647442009543278  1.0000
  C   C63       1.0  0.9418677224170865  0.9403790003202916  0.06620078298259109  1.0000
  C   C64       1.0  0.9473318994141595  0.9076550955921835  0.904694942293851  1.0000
  C   C65       1.0  0.1649555512055443  0.692425352825069  0.626442061519043  1.0000
  C   C66       1.0  0.7156990820738757  0.34950582245222966  0.772402243799817  1.0000
  O   O1        1.0  0.534753705002295  0.44987815025275796  0.5452664995563409  1.0000
  O   O2        1.0  0.19304720590506716  0.43311893414991  0.42676825410488556  1.0000
  O   O3        1.0  0.032957378413179604  0.5494561433658947  0.4545903012677284  1.0000
  O   O4        1.0  0.19376091132758685  0.45132001115308656  0.5483315961636562  1.0000
  O   O5        1.0  0.034513283735414305  0.5706507303447454  0.5754260936943678  1.0000
  O   O6        1.0  0.5323174095934605  0.42830134294703026  0.4249098480501771  1.0000
  O   O7        1.0  0.3661726226984783  0.5391260229501498  0.5094417468689443  1.0000
  O   O8        1.0  0.6939538480093146  0.5702187849454036  0.570791301067217  1.0000
  O   O9        1.0  0.6938697089603778  0.5444199016134521  0.44817231065236024  1.0000
  O   O10       1.0  0.8653218156980386  0.46136081095340137  0.4919184542865904  1.0000
  O   O11       1.0  0.27512335913209546  0.073097415545071  0.07468430601456078  1.0000
  O   O12       1.0  0.6153590165479487  0.04583921657594912  0.9492665290675998  1.0000
  O   O13       1.0  0.7737923613993234  0.9270640220990318  0.9265614777288034  1.0000
  O   O14       1.0  0.6151043474357323  0.0701033140352791  0.07143437123163209  1.0000
  O   O15       1.0  0.773370043053234  0.9531462084030693  0.04828037938708704  1.0000
  O   O16       1.0  0.27494417863072584  0.0484616023235986  0.953546316538002  1.0000
  O   O17       1.0  0.4426498914496477  0.9621472531620089  0.9930769100504404  1.0000
  O   O18       1.0  0.1136591785184962  0.9553011574941126  0.05181622188757027  1.0000
  O   O19       1.0  0.11409089905255604  0.9307489172855772  0.9298314044892491  1.0000
  O   O20       1.0  0.9433521479942825  0.03856255157623421  0.0078095647634697  1.0000
  O   O21       1.0  0.3407150599052145  0.7093848332284909  0.6373642183486863  1.0000
  O   O22       1.0  0.8801902021274799  0.347459940156803  0.7948995637345317  1.0000
