data_image0
_chemical_formula_structural       Zn4H16C24N20Cl4
_chemical_formula_sum              "Zn4 H16 C24 N20 Cl4"
_cell_length_a       6.126632975852951
_cell_length_b       9.48336484277386
_cell_length_c       14.366699565354265
_cell_angle_alpha    89.99958521919648
_cell_angle_beta     89.99972770994312
_cell_angle_gamma    97.61801344039266

_space_group_name_H-M_alt    "P 1"
_space_group_IT_number       1

loop_
  _space_group_symop_operation_xyz
  'x, y, z'

loop_
  _atom_site_type_symbol
  _atom_site_label
  _atom_site_symmetry_multiplicity
  _atom_site_fract_x
  _atom_site_fract_y
  _atom_site_fract_z
  _atom_site_occupancy
  Zn  Zn1       1.0  0.05154266137888191  0.7078425639612859  0.6860653426477867  1.0000
  Zn  Zn2       1.0  0.051535674931280105  0.2078338345770661  0.3139352036737719  1.0000
  Zn  Zn3       1.0  0.549648947216113  0.1246032901850782  0.8012583804199451  1.0000
  Zn  Zn4       1.0  0.549651443667294  0.6245963509432285  0.19874017123962062  1.0000
  H   H1        1.0  0.5981614371470982  0.4647260138650112  0.5478110223208361  1.0000
  H   H2        1.0  0.5981497880640846  0.9647134115581294  0.4521886361638253  1.0000
  H   H3        1.0  0.10031931774894791  0.23236218769613262  0.6622608125015077  1.0000
  H   H4        1.0  0.10028918958207099  0.7323458962776142  0.33773825445139494  1.0000
  H   H5        1.0  0.3388653346858917  0.6901514262197423  0.8534017697336153  1.0000
  H   H6        1.0  0.3388804034065274  0.190152982509936  0.1465983831914528  1.0000
  H   H7        1.0  0.18982394791830617  0.167693037969002  0.5020140438215108  1.0000
  H   H8        1.0  0.1898396718190867  0.6676884734427233  0.4979861114847139  1.0000
  H   H9        1.0  0.7026340801477033  0.384451988941933  0.390464059851368  1.0000
  H   H10       1.0  0.7026405448035791  0.8844510165261711  0.6095367767151102  1.0000
  H   H11       1.0  0.5397562155248607  0.5871430413903481  0.9807438076141111  1.0000
  H   H12       1.0  0.5397662139284378  0.0871405755189514  0.0192570135622958  1.0000
  H   H13       1.0  0.1570279484832398  0.7475667236643275  0.1837390538783481  1.0000
  H   H14       1.0  0.1570244616951585  0.24755230956524343  0.8162620667936693  1.0000
  H   H15       1.0  0.9365860399928894  0.8569214465195854  0.063587603125292  1.0000
  H   H16       1.0  0.9365895851535486  0.3569122789237583  0.9364114578747548  1.0000
  C   C1        1.0  0.789807541927793  0.40637871783194857  0.7115182902308703  1.0000
  C   C2        1.0  0.7897954935047338  0.9063658862267374  0.2884811085801715  1.0000
  C   C3        1.0  0.1201062704929683  0.7846702084813371  0.9489300019062411  1.0000
  C   C4        1.0  0.12011709890539632  0.2846684654795553  0.05106742410832509  1.0000
  C   C5        1.0  0.9928653363768092  0.8571384389920308  0.8823685791874639  1.0000
  C   C6        1.0  0.9928775197798387  0.35713598088850057  0.1176284343728611  1.0000
  C   C7        1.0  0.8407040504904091  0.35540049137222235  0.61831053034107  1.0000
  C   C8        1.0  0.8406982825583145  0.8553942438800914  0.3816877709923219  1.0000
  C   C9        1.0  0.7288167049482581  0.3978545633370984  0.5403815579539781  1.0000
  C   C10       1.0  0.7288201775653819  0.8978478062876862  0.45961853451304796  1.0000
  C   C11       1.0  0.006362957980599012  0.2693622049758489  0.6050763605769305  1.0000
  C   C12       1.0  0.006365351186417486  0.7693593236545337  0.39492314617838536  1.0000
  C   C13       1.0  0.2905349014062821  0.7058737235372234  0.9254252131364565  1.0000
  C   C14       1.0  0.29055173003489193  0.20587302121536055  0.07457621677653489  1.0000
  C   C15       1.0  0.05742303419971511  0.23148197055004965  0.5152040589575719  1.0000
  C   C16       1.0  0.057417670861070705  0.7314755996282256  0.4847942844772604  1.0000
  C   C17       1.0  0.7862700241471005  0.3534705412590355  0.4525208714144712  1.0000
  C   C18       1.0  0.7862713872582321  0.8534669007343537  0.5474787912879081  1.0000
  C   C19       1.0  0.4047703108131345  0.6475155129339641  0.9966352163206338  1.0000
  C   C20       1.0  0.40478208361542306  0.14751013709303612  0.0033672885561414996  1.0000
  C   C21       1.0  0.19117993049243862  0.7374907282498028  0.10974645396193239  1.0000
  C   C22       1.0  0.19117517616103902  0.23748385512628542  0.8902561349426037  1.0000
  C   C23       1.0  0.07014495434624018  0.7984133780472076  0.0434770337261199  1.0000
  C   C24       1.0  0.0701436461868852  0.2984101100778247  0.956525158298028  1.0000
  N   N1        1.0  0.8403614577726944  0.541763168116958  0.7393824053537443  1.0000
  N   N2        1.0  0.840355578597148  0.04175087807389842  0.2606188678782786  1.0000
  N   N3        1.0  0.857879907383982  0.9504270337689249  0.9093153321026718  1.0000
  N   N4        1.0  0.8578881631664501  0.4504268341701517  0.09068250326557602  1.0000
  N   N5        1.0  0.7619200865451107  0.549437827110907  0.8270093023856759  1.0000
  N   N6        1.0  0.7619210250560045  0.049436358242843384  0.17299187385724224  1.0000
  N   N7        1.0  0.8525408688061873  0.9318759526073136  0.7565962370000108  1.0000
  N   N8        1.0  0.8525392148817731  0.4318682707416883  0.2434030799792737  1.0000
  N   N9        1.0  0.9904393999242131  0.8459394234678681  0.788091560199625  1.0000
  N   N10       1.0  0.9904373464011658  0.3459352608063995  0.2119096842991439  1.0000
  N   N11       1.0  0.6674663554743817  0.4244413934173749  0.8518420078702107  1.0000
  N   N12       1.0  0.667467912638955  0.9244434561740533  0.1481558168750752  1.0000
  N   N13       1.0  0.683960347103259  0.33107592669639974  0.7810465876258235  1.0000
  N   N14       1.0  0.6839526184860178  0.8310704286189363  0.21895102369298775  1.0000
  N   N15       1.0  0.9500517147710499  0.2728992908601739  0.4400471498720719  1.0000
  N   N16       1.0  0.9500455941003525  0.7728899008821202  0.5599537365249888  1.0000
  N   N17       1.0  0.7749517451421611  0.9934244440161706  0.8297854447006118  1.0000
  N   N18       1.0  0.7749494780900508  0.4934228701795007  0.1702121124204368  1.0000
  N   N19       1.0  0.3574140210603859  0.6633517930755204  0.08754884148360283  1.0000
  N   N20       1.0  0.3574165084335947  0.16334180167132933  0.9124500681540937  1.0000
  Cl  Cl1       1.0  0.3707214963557917  0.6254821101083151  0.6697035252115314  1.0000
  Cl  Cl2       1.0  0.3707234595989704  0.1254851990174899  0.3302955850621743  1.0000
  Cl  Cl3       1.0  0.3828647399438552  0.050961422510880504  0.6698045126081739  1.0000
  Cl  Cl4       1.0  0.3828640818750558  0.5509591623719103  0.3301963742290539  1.0000
