data_image0
_chemical_formula_structural       Cd4H40C48N16O16
_chemical_formula_sum              "Cd4 H40 C48 N16 O16"
_cell_length_a       12.731695704274763
_cell_length_b       13.481103139875032
_cell_length_c       14.190078655492716
_cell_angle_alpha    77.77014856231634
_cell_angle_beta     63.339078270944896
_cell_angle_gamma    61.8161109969932

_space_group_name_H-M_alt    "P 1"
_space_group_IT_number       1

loop_
  _space_group_symop_operation_xyz
  'x, y, z'

loop_
  _atom_site_type_symbol
  _atom_site_label
  _atom_site_symmetry_multiplicity
  _atom_site_fract_x
  _atom_site_fract_y
  _atom_site_fract_z
  _atom_site_occupancy
  Cd  Cd1       1.0  0.16149680676435443  0.6770329833558009  0.2500155710713016  1.0000
  Cd  Cd2       1.0  0.5886168313486095  0.8229359440699326  0.24994897683586717  1.0000
  Cd  Cd3       1.0  0.8385045628646214  0.32296623181855466  0.7499839563145443  1.0000
  Cd  Cd4       1.0  0.4113876087690828  0.17706242933287802  0.750048810864307  1.0000
  H   H1        1.0  0.4733047312428554  0.35525270766203937  0.9689506474865867  1.0000
  H   H2        1.0  0.5579047505807965  0.14471905307557623  0.9690440043730959  1.0000
  H   H3        1.0  0.2973951563912466  0.14472959636641752  0.5309661736044049  1.0000
  H   H4        1.0  0.17168238125665178  0.3551941741434987  0.5310128204601056  1.0000
  H   H5        1.0  0.526692597905921  0.6447490323251017  0.031048132535239883  1.0000
  H   H6        1.0  0.442093543711543  0.8552843701152216  0.03096083607143638  1.0000
  H   H7        1.0  0.7026057599906467  0.8552713018301715  0.46903122874566333  1.0000
  H   H8        1.0  0.8283132034370342  0.6448075659467847  0.46898593608477057  1.0000
  H   H9        1.0  0.3952721446042773  0.48782718503404254  0.11118022050435165  1.0000
  H   H10       1.0  0.4936337518815463  0.012242909732151502  0.11131329704284101  1.0000
  H   H11       1.0  0.494206700656278  0.012239261363753  0.38863699050319406  1.0000
  H   H12       1.0  0.11701699338684808  0.4877955555106865  0.38886414072910475  1.0000
  H   H13       1.0  0.6047269638252005  0.5121720302624696  0.888818921390623  1.0000
  H   H14       1.0  0.5063670350817518  0.9877563055804613  0.8886894180374371  1.0000
  H   H15       1.0  0.5057953799389877  0.9877599537454953  0.611361836331767  1.0000
  H   H16       1.0  0.8829834062506451  0.5122053427049169  0.6111328996070428  1.0000
  H   H17       1.0  0.07017546909313661  0.46146452359838025  0.033667340777562116  1.0000
  H   H18       1.0  0.896270455809976  0.0386060138114175  0.03376536439616024  1.0000
  H   H19       1.0  0.06520341949287466  0.0385340794957685  0.4662783045819126  1.0000
  H   H20       1.0  0.46869994283257194  0.4612663324845841  0.46618417122913774  1.0000
  H   H21       1.0  0.9298210507664211  0.5385380580381351  0.9663335644208217  1.0000
  H   H22       1.0  0.1037317530859028  0.9613932013709816  0.9662359495823407  1.0000
  H   H23       1.0  0.9347986611023911  0.9614651356134728  0.5337205222530412  1.0000
  H   H24       1.0  0.5312966118525964  0.5387337245644518  0.5338170723654372  1.0000
  H   H25       1.0  0.9533712021947309  0.6516337053579377  0.246534342892346  1.0000
  H   H26       1.0  0.8001529110241916  0.8483947286337215  0.24656448011702978  1.0000
  H   H27       1.0  0.3515524737326885  0.848374545132259  0.25338287284508715  1.0000
  H   H28       1.0  0.39501883997420606  0.6515636807434433  0.25348159634786793  1.0000
  H   H29       1.0  0.04662832465622573  0.3483663515038272  0.7534665856422081  1.0000
  H   H30       1.0  0.19984939619462253  0.15160364496440346  0.7534354092358128  1.0000
  H   H31       1.0  0.6484475374610171  0.15162635317552295  0.7466162926206864  1.0000
  H   H32       1.0  0.604978939997693  0.3484380593439198  0.7465210953962397  1.0000
  H   H33       1.0  0.9088168540924711  0.611811615046598  0.16643188902947495  1.0000
  H   H34       1.0  0.9248903414238612  0.8881504562081661  0.16646802310668815  1.0000
  H   H35       1.0  0.18703709052774523  0.8881501822996684  0.3335131542844323  1.0000
  H   H36       1.0  0.47949218364048823  0.6117466803948305  0.33350701052994225  1.0000
  H   H37       1.0  0.09118011901416885  0.38818928356769083  0.8335711412046791  1.0000
  H   H38       1.0  0.07511148145219691  0.11184707594395597  0.8335336293149354  1.0000
  H   H39       1.0  0.812963858255799  0.11184987443188993  0.6664863731483379  1.0000
  H   H40       1.0  0.520506760544791  0.38825337660519216  0.666497105699051  1.0000
  C   C1        1.0  0.3147556460315571  0.3250533138919991  0.906096617235356  1.0000
  C   C2        1.0  0.7792763439952995  0.1749653200898464  0.9061665633925883  1.0000
  C   C3        1.0  0.04584792597475485  0.17490713638959926  0.5939189034134458  1.0000
  C   C4        1.0  0.36035033012925044  0.32493105570706154  0.5938508952574821  1.0000
  C   C5        1.0  0.6852436217942071  0.6749484259459139  0.0939011236986077  1.0000
  C   C6        1.0  0.22072237356643865  0.8250355784212926  0.09383649031851596  1.0000
  C   C7        1.0  0.9541531187077509  0.8250937618801332  0.4060809860801768  1.0000
  C   C8        1.0  0.6396514627691231  0.6750656347876358  0.4061468453949359  1.0000
  C   C9        1.0  0.2748348852669411  0.40207882078721013  0.9905070216059214  1.0000
  C   C10       1.0  0.734777516862025  0.09798230538973479  0.9906220574901923  1.0000
  C   C11       1.0  0.16731245627794067  0.09793399357389634  0.5094172124456122  1.0000
  C   C12       1.0  0.32344056833649387  0.4018642183065922  0.5093461452748613  1.0000
  C   C13       1.0  0.7251608912246751  0.597924602379443  0.00949245906064529  1.0000
  C   C14       1.0  0.2652228144302242  0.9020202760675601  0.009380319240825895  1.0000
  C   C15       1.0  0.8326886867274867  0.902066063111576  0.49058125242234485  1.0000
  C   C16       1.0  0.6765577332277319  0.5981341555168456  0.49065333511016007  1.0000
  C   C17       1.0  0.3699124123949529  0.4070737454277096  0.012373684309686514  1.0000
  C   C18       1.0  0.6177963527210936  0.0929874113567166  0.012520333518146761  1.0000
  C   C19       1.0  0.289266100645925  0.09296266076938761  0.4874949916069796  1.0000
  C   C20       1.0  0.22328879608712537  0.40694728008711667  0.487531618118318  1.0000
  C   C21       1.0  0.6300850126527848  0.5929288360976203  0.9876254577729852  1.0000
  C   C22       1.0  0.38220174977331584  0.9070143287577113  0.987483782804695  1.0000
  C   C23       1.0  0.7107363659691615  0.9070382373701379  0.5125034967848524  1.0000
  C   C24       1.0  0.7767090846316621  0.5930519352935306  0.5124678623136277  1.0000
  C   C25       1.0  0.3264980886544465  0.4796054892939807  0.09094964153416647  1.0000
  C   C26       1.0  0.5826199448028503  0.020480600923157503  0.09108394058415577  1.0000
  C   C27       1.0  0.3969699549876539  0.0204657972779643  0.4088972144886753  1.0000
  C   C28       1.0  0.19408863578794214  0.4795126260369997  0.40900953187026085  1.0000
  C   C29       1.0  0.6735006948285688  0.5203954090979224  0.9090498624685852  1.0000
  C   C30       1.0  0.4173809056577583  0.9795202973926678  0.9089170114742731  1.0000
  C   C31       1.0  0.603032125607612  0.9795334178312841  0.5911016123462787  1.0000
  C   C32       1.0  0.8059106320378218  0.5204891138009131  0.5909882090637097  1.0000
  C   C33       1.0  0.10647301871532021  0.5389857030882298  0.12861928704108297  1.0000
  C   C34       1.0  0.7650013363620044  0.961069097760458  0.12871919987438218  1.0000
  C   C35       1.0  0.27400332350423895  0.9610540483359955  0.3712761453571361  1.0000
  C   C36       1.0  0.35481418835007633  0.5388020712679236  0.3712675720843137  1.0000
  C   C37       1.0  0.8935247636805458  0.4610143538766778  0.8713816180165211  1.0000
  C   C38       1.0  0.23500090735949208  0.0389275928344617  0.8712824525003171  1.0000
  C   C39       1.0  0.7259973986557641  0.038946849906672305  0.6287223195577524  1.0000
  C   C40       1.0  0.645185179104601  0.4611954610524407  0.6287347574112515  1.0000
  C   C41       1.0  0.14405971282332794  0.46715019409217007  0.048217050108206594  1.0000
  C   C42       1.0  0.8078317987592101  0.0329204728801287  0.0483278054751182  1.0000
  C   C43       1.0  0.15931690702146994  0.03288805169322731  0.45169936361919133  1.0000
  C   C44       1.0  0.38917016462889376  0.4669021290821149  0.45160441965995807  1.0000
  C   C45       1.0  0.8559360636682884  0.5328532290744833  0.9517824305583602  1.0000
  C   C46       1.0  0.19217018351312717  0.9670795838133872  0.9516724459854943  1.0000
  C   C47       1.0  0.8406831041722357  0.9671128466145477  0.5482998018465823  1.0000
  C   C48       1.0  0.6108301715112817  0.5330970861302762  0.548394383698046  1.0000
  N   N1        1.0  0.19897563509822894  0.544778959778597  0.14740335796655293  1.0000
  N   N2        1.0  0.6537045715688095  0.9552899628116835  0.14751671230046529  1.0000
  N   N3        1.0  0.3910997258575649  0.9552760762330765  0.3524537608146474  1.0000
  N   N4        1.0  0.25644114491473163  0.5446568122972408  0.3525385724623078  1.0000
  N   N5        1.0  0.8010204987415082  0.4552219388276413  0.8525978856749459  1.0000
  N   N6        1.0  0.346298963360688  0.0447084107023201  0.8524828385154068  1.0000
  N   N7        1.0  0.6089027755831395  0.044722297318969616  0.6475450659733825  1.0000
  N   N8        1.0  0.7435566374811345  0.4553432446676667  0.6474623325952963  1.0000
  N   N9        1.0  0.9795165617038464  0.600480272595128  0.18899069425323503  1.0000
  N   N10       1.0  0.8316103918737667  0.8995149044441676  0.18902724105019078  1.0000
  N   N11       1.0  0.2689651167548277  0.8994934716900078  0.3109506371935283  1.0000
  N   N12       1.0  0.4201812213929088  0.6003526101258814  0.3109291562704827  1.0000
  N   N13       1.0  0.020481447315560834  0.39951894285866263  0.8110112733222508  1.0000
  N   N14       1.0  0.1683943096930776  0.10048010286004681  0.810971947564056  1.0000
  N   N15       1.0  0.7310354746805957  0.1005091096019584  0.6890471272643168  1.0000
  N   N16       1.0  0.5798193737724588  0.3996449221103616  0.6890728346881121  1.0000
  O   O1        1.0  0.23008303398327004  0.3317055496886212  0.8780350758851796  1.0000
  O   O2        1.0  0.8920649779191481  0.16823552826001992  0.8780020398191367  1.0000
  O   O3        1.0  0.9397305252993463  0.16827907452964297  0.6220611751653993  1.0000
  O   O4        1.0  0.4382080322372561  0.3316318214713334  0.6220746600227473  1.0000
  O   O5        1.0  0.7699130998564672  0.6682953489176171  0.12196616775631945  1.0000
  O   O6        1.0  0.10793402976344187  0.8317662117432146  0.12200031338799988  1.0000
  O   O7        1.0  0.06026977601521114  0.8317226652702275  0.37793728979640656  1.0000
  O   O8        1.0  0.5617945351247258  0.6683665519614764  0.3779206170569296  1.0000
  O   O9        1.0  0.4351476179734064  0.2539875433408342  0.8657963687555537  1.0000
  O   O10       1.0  0.6991373199781141  0.24606226281649415  0.865934840039877  1.0000
  O   O11       1.0  0.054925700491033284  0.24593321637850352  0.6342037994557259  1.0000
  O   O12       1.0  0.3109786308066376  0.2539133584458924  0.6341118903632079  1.0000
  O   O13       1.0  0.5648516150267469  0.7460167210845652  0.1342010337822187  1.0000
  O   O14       1.0  0.30086249699369466  0.7539386355373666  0.13406538799070938  1.0000
  O   O15       1.0  0.9450767026267428  0.7540659987578096  0.3657964519579621  1.0000
  O   O16       1.0  0.6890223528025102  0.7460841736981794  0.36588797546576063  1.0000
