data_image0
_chemical_formula_structural       Tl4H12C24N8O20
_chemical_formula_sum              "Tl4 H12 C24 N8 O20"
_cell_length_a       4.12881301848689
_cell_length_b       9.293745683290666
_cell_length_c       20.982851243203285
_cell_angle_alpha    89.99942281233524
_cell_angle_beta     90.00000084413954
_cell_angle_gamma    85.8352687991506

_space_group_name_H-M_alt    "P 1"
_space_group_IT_number       1

loop_
  _space_group_symop_operation_xyz
  'x, y, z'

loop_
  _atom_site_type_symbol
  _atom_site_label
  _atom_site_symmetry_multiplicity
  _atom_site_fract_x
  _atom_site_fract_y
  _atom_site_fract_z
  _atom_site_occupancy
  Tl  Tl1       1.0  0.4839584375426682  0.23321245851360567  0.472191235210083  1.0000
  Tl  Tl2       1.0  0.4839696224271677  0.7331910600915563  0.0278118585290699  1.0000
  Tl  Tl3       1.0  0.516042406816851  0.7668275211748536  0.5278143679318532  1.0000
  Tl  Tl4       1.0  0.5160456357591202  0.26680648027760867  0.9721885023443376  1.0000
  H   H1        1.0  0.4201740314424  0.9210544835745795  0.6909085863302521  1.0000
  H   H2        1.0  0.4201894787779993  0.42104058519005594  0.8090930184428159  1.0000
  H   H3        1.0  0.5798000039755777  0.07896055688200218  0.30909558713342017  1.0000
  H   H4        1.0  0.5798208944684973  0.578949584555687  0.19089256847945527  1.0000
  H   H5        1.0  0.28213652222341074  0.238861194306523  0.7259889356163143  1.0000
  H   H6        1.0  0.2821597823024788  0.7388409598576259  0.7740126113280894  1.0000
  H   H7        1.0  0.7178399576730358  0.7611580694042885  0.2740214333724396  1.0000
  H   H8        1.0  0.7178530153383846  0.261148053802394  0.22598250719035914  1.0000
  H   H9        1.0  0.5946763181304532  0.9794267425066819  0.8039898431344951  1.0000
  H   H10       1.0  0.5946869544400571  0.4794163265008676  0.6960105406223817  1.0000
  H   H11       1.0  0.405312231530381  0.020572755093695598  0.1960162366879032  1.0000
  H   H12       1.0  0.4053404257290864  0.5205754340313291  0.3039779057750636  1.0000
  C   C1        1.0  0.7065188934194211  0.07269388488563779  0.6425726938999219  1.0000
  C   C2        1.0  0.706527560233738  0.572674625986572  0.8574259372136693  1.0000
  C   C3        1.0  0.2934770378807841  0.9273311930078518  0.3574324326994399  1.0000
  C   C4        1.0  0.29348521732487143  0.4273090084328927  0.142562509203124  1.0000
  C   C5        1.0  0.5184954765485729  0.025255936715808502  0.7012488098746914  1.0000
  C   C6        1.0  0.5185138746775239  0.5252364469577983  0.7987519384944477  1.0000
  C   C7        1.0  0.4814834397948858  0.9747653986306304  0.2987572698921426  1.0000
  C   C8        1.0  0.4814940701552572  0.4747538028703103  0.2012384142239938  1.0000
  C   C9        1.0  0.7041622956804758  0.021757594755271708  0.7612354367591152  1.0000
  C   C10       1.0  0.7041807400746836  0.521745751762893  0.7387629733466525  1.0000
  C   C11       1.0  0.2958092872244081  0.9782510706580823  0.23876921330004564  1.0000
  C   C12       1.0  0.2958223881001203  0.47825541697611124  0.26122356670676783  1.0000
  C   C13       1.0  0.9880634553695418  0.08402078736196467  0.7674703926595114  1.0000
  C   C14       1.0  0.9880746208451685  0.5840103844407449  0.7325310820556152  1.0000
  C   C15       1.0  0.011912988376991503  0.9159887936154973  0.23253807003494836  1.0000
  C   C16       1.0  0.0119357524003547  0.4159797852529367  0.26745974724286004  1.0000
  C   C17       1.0  0.18680328376012764  0.1356934244889061  0.7137134491064998  1.0000
  C   C18       1.0  0.18681442133961926  0.6356798020208956  0.7862876491329729  1.0000
  C   C19       1.0  0.8131828856877095  0.8643190635491321  0.2862954901610165  1.0000
  C   C20       1.0  0.8131983923683849  0.36431351510351107  0.21370556305604538  1.0000
  C   C21       1.0  0.986986217446592  0.15261870931698954  0.6546523780640284  1.0000
  C   C22       1.0  0.9869827787933331  0.6526086978880412  0.8453482752365958  1.0000
  C   C23       1.0  0.013024220062995098  0.8473886739928388  0.3453551314791241  1.0000
  C   C24       1.0  0.013020285113533701  0.3473752570265346  0.1546425540769576  1.0000
  N   N1        1.0  0.07535233938712341  0.12404761358362748  0.831952405988808  1.0000
  N   N2        1.0  0.0753732825063835  0.624048929612208  0.6680506407944974  1.0000
  N   N3        1.0  0.924628896917568  0.8759445933336918  0.1680579630682644  1.0000
  N   N4        1.0  0.9246589906381503  0.375952353384477  0.33194066505730285  1.0000
  N   N5        1.0  0.0980235255821214  0.2506660460186865  0.6120496584276012  1.0000
  N   N6        1.0  0.09802734839257002  0.7506527962190573  0.887950849174288  1.0000
  N   N7        1.0  0.9019796266891618  0.749341577689691  0.3879568979550995  1.0000
  N   N8        1.0  0.9019829726348477  0.24932338722008746  0.11204569911517129  1.0000
  O   O1        1.0  0.6013549028506445  0.03996159774197139  0.5887092593109031  1.0000
  O   O2        1.0  0.6013659139086301  0.5399239749962349  0.9112885678192341  1.0000
  O   O3        1.0  0.3986265342900097  0.9600844023050711  0.41129491407553326  1.0000
  O   O4        1.0  0.39863953021167486  0.46004698950434897  0.0886970191509278  1.0000
  O   O5        1.0  0.29066418451490256  0.21231584502129416  0.8371888571791075  1.0000
  O   O6        1.0  0.2906729754542354  0.7123144381020835  0.6628171135566632  1.0000
  O   O7        1.0  0.7093194802022609  0.7876762817473946  0.16282341819696458  1.0000
  O   O8        1.0  0.7093471275083233  0.2876797144614684  0.33717943468837314  1.0000
  O   O9        1.0  0.9268668323310935  0.07937319113606377  0.8784357769346299  1.0000
  O   O10       1.0  0.9268684095070511  0.579387906042996  0.6215652355647379  1.0000
  O   O11       1.0  0.0731386399021261  0.9206053041810589  0.1215712561010776  1.0000
  O   O12       1.0  0.07315660249962261  0.4206200725346251  0.3784236873714377  1.0000
  O   O13       1.0  0.9677984215581928  0.2720511463469606  0.557279227886454  1.0000
  O   O14       1.0  0.9678337292303355  0.7720185530864256  0.9427246352149936  1.0000
  O   O15       1.0  0.0321804867514359  0.7279680372530849  0.44272923478405346  1.0000
  O   O16       1.0  0.032203195886665995  0.22792770063137613  0.05727572578884121  1.0000
  O   O17       1.0  0.33255385093743683  0.3239946845552808  0.628039691880474  1.0000
  O   O18       1.0  0.33255766760553473  0.8239785247724569  0.8719633409634466  1.0000
  O   O19       1.0  0.6674298981308766  0.6760200353304525  0.37196972396090894  1.0000
  O   O20       1.0  0.6674308137725192  0.17600268324153487  0.1280370199490406  1.0000
