data_image0
_chemical_formula_structural       Cs2H20C10Cl2O10
_chemical_formula_sum              "Cs2 H20 C10 Cl2 O10"
_cell_length_a       5.364244690906885
_cell_length_b       7.608258302578199
_cell_length_c       11.822676840559904
_cell_angle_alpha    96.07710981623369
_cell_angle_beta     102.78073388276503
_cell_angle_gamma    91.6076268308634

_space_group_name_H-M_alt    "P 1"
_space_group_IT_number       1

loop_
  _space_group_symop_operation_xyz
  'x, y, z'

loop_
  _atom_site_type_symbol
  _atom_site_label
  _atom_site_symmetry_multiplicity
  _atom_site_fract_x
  _atom_site_fract_y
  _atom_site_fract_z
  _atom_site_occupancy
  Cs  Cs1       1.0  0.6955667346530348  0.18986017700742513  0.03697393468055311  1.0000
  Cs  Cs2       1.0  0.7103586967438885  0.49739045292335493  0.5292654378399887  1.0000
  H   H1        1.0  0.0331263138573377  0.1930300667638249  0.4331084291181709  1.0000
  H   H2        1.0  0.0487969034441846  0.3235690975333227  0.8555983295597258  1.0000
  H   H3        1.0  0.35970618264585136  0.2325504533750689  0.3081243525629133  1.0000
  H   H4        1.0  0.797957400394864  0.5427796657082453  0.23931114566962455  1.0000
  H   H5        1.0  0.7940193963874194  0.9170710472276226  0.41435767982630967  1.0000
  H   H6        1.0  0.5924211260286186  0.687897087509775  0.9589316344810468  1.0000
  H   H7        1.0  0.3956904023087731  0.4252098882212891  0.7277532383354169  1.0000
  H   H8        1.0  0.24315725102847102  0.583638461393761  0.0111205163266206  1.0000
  H   H9        1.0  0.8392000398660214  0.7638736294931547  0.8038301670191499  1.0000
  H   H10       1.0  0.7407733737156831  0.9091625278655401  0.22122722724147076  1.0000
  H   H11       1.0  0.4764696430857213  0.1507910704372364  0.7259481468082923  1.0000
  H   H12       1.0  0.2326301656460217  0.9397791838569772  0.2983864979523999  1.0000
  H   H13       1.0  0.35266844300091543  0.607485798722834  0.22172932033235773  1.0000
  H   H14       1.0  0.8959114789573377  0.16259236458158452  0.6943504114547067  1.0000
  H   H15       1.0  0.23740596446523202  0.8829849406316015  0.8066541397249479  1.0000
  H   H16       1.0  0.4051239577473779  0.09208979959744569  0.5146741988405734  1.0000
  H   H17       1.0  0.0340473056973636  0.8698791215850363  0.9844533995547519  1.0000
  H   H18       1.0  0.9949218409993178  0.7803382082916103  0.1138099102286461  1.0000
  H   H19       1.0  0.21006464410293543  0.7839409878808893  0.49589266052592496  1.0000
  H   H20       1.0  0.4319124856870643  0.8454535591960237  0.6337514128448659  1.0000
  C   C1        1.0  0.33848873396766516  0.7092906120755557  0.057976441232931095  1.0000
  C   C2        1.0  0.5861534871168316  0.849533646206737  0.255279530087435  1.0000
  C   C3        1.0  0.28542534716389406  0.17728229730033723  0.6745613357133918  1.0000
  C   C4        1.0  0.3770666259755585  0.9841150922081212  0.2515291218685291  1.0000
  C   C5        1.0  0.48641986222382627  0.6758883883013805  0.17951303013732195  1.0000
  C   C6        1.0  0.085184253475596  0.12578233762042146  0.7413267661372132  1.0000
  C   C7        1.0  0.06525255710157303  0.9260121120671061  0.7474148604677707  1.0000
  C   C8        1.0  0.24579716447502153  0.0646190161265991  0.5564911385699033  1.0000
  C   C9        1.0  0.1343930905781576  0.8385293637868542  0.07050732262511158  1.0000
  C   C10       1.0  0.24475939183015072  0.8713266019932746  0.5785050291561402  1.0000
  Cl  Cl1       1.0  0.10253094888272328  0.4063116760007972  0.3433603553398682  1.0000
  Cl  Cl2       1.0  0.7599240436900699  0.510201523907277  0.8434740089716397  1.0000
  O   O1        1.0  0.0062353904830132  0.09640689341064501  0.4804674532406778  1.0000
  O   O2        1.0  0.24752121882647055  0.004363427386046201  0.1334749453320967  1.0000
  O   O3        1.0  0.1462969396815694  0.2150046501653762  0.8577137590147428  1.0000
  O   O4        1.0  0.49603517952031245  0.14796260402503947  0.30120480542304756  1.0000
  O   O5        1.0  0.039740111837325294  0.8301035940313424  0.6331040118285286  1.0000
  O   O6        1.0  0.6889976759980526  0.5646726804018203  0.16368842049106996  1.0000
  O   O7        1.0  0.6835308765714245  0.8125991600164183  0.3722216512612916  1.0000
  O   O8        1.0  0.49945389724536676  0.7836991538588195  0.9913858786370607  1.0000
  O   O9        1.0  0.2761898665535795  0.3612902878954359  0.6588812715447501  1.0000
  O   O10       1.0  0.8422274660650331  0.8879780915209209  0.7846989219877114  1.0000
