data_image0
_chemical_formula_structural       Mg3H66C60N6O24
_chemical_formula_sum              "Mg3 H66 C60 N6 O24"
_cell_length_a       7.945746819510365
_cell_length_b       17.795512511799476
_cell_length_c       17.795449910272996
_cell_angle_alpha    119.99388184685029
_cell_angle_beta     90.00997695743371
_cell_angle_gamma    89.99016327220497

_space_group_name_H-M_alt    "P 1"
_space_group_IT_number       1

loop_
  _space_group_symop_operation_xyz
  'x, y, z'

loop_
  _atom_site_type_symbol
  _atom_site_label
  _atom_site_symmetry_multiplicity
  _atom_site_fract_x
  _atom_site_fract_y
  _atom_site_fract_z
  _atom_site_occupancy
  Mg  Mg1       1.0  0.6664839717194582  0.540480872812509  0.99998588623275  1.0000
  Mg  Mg2       1.0  0.3335343373424635  0.9999842994897321  0.5404810877374828  1.0000
  Mg  Mg3       1.0  0.9999890306221106  0.45956363726499205  0.45956226067294637  1.0000
  H   H1        1.0  0.5485387827280733  0.8077955422441718  0.11578992071823525  1.0000
  H   H2        1.0  0.6685862101443903  0.9739895335831862  0.4239832512521672  1.0000
  H   H3        1.0  0.5262762568722364  0.2049377657308324  0.9650420029572826  1.0000
  H   H4        1.0  0.3351392032937923  0.5760047091763453  0.5500121651076169  1.0000
  H   H5        1.0  0.8820750027123482  0.30802293905025374  0.19222469176250453  1.0000
  H   H6        1.0  0.8527615427644549  0.5788471354080966  0.44840120591823746  1.0000
  H   H7        1.0  0.14058236135765872  0.7950118126794263  0.7601122755401233  1.0000
  H   H8        1.0  0.8139309601493565  0.2564595286513977  0.6410617802637403  1.0000
  H   H9        1.0  0.4807457679406397  0.1303957737171402  0.5515972388068775  1.0000
  H   H10       1.0  0.14713175115370797  0.38462074537886076  0.7435257068039504  1.0000
  H   H11       1.0  0.3466283051021933  0.329867327880237  0.7207714469861415  1.0000
  H   H12       1.0  0.9958401133087804  0.6624121243852272  0.2163180346729162  1.0000
  H   H13       1.0  0.33711909856715744  0.23666521210648037  0.5474594639244259  1.0000
  H   H14       1.0  0.1557771107115755  0.31785691487291245  0.909353548720489  1.0000
  H   H15       1.0  0.6625590180843589  0.7836371220840164  0.44597664512482976  1.0000
  H   H16       1.0  0.8138647087839033  0.4212454457091822  0.8696148591887648  1.0000
  H   H17       1.0  0.6708050121443065  0.3376186090021489  0.5539459264366184  1.0000
  H   H18       1.0  0.4514678320687224  0.11579268935473411  0.8077986692787604  1.0000
  H   H19       1.0  0.5400963780845133  0.5479518467100348  0.7501972202290119  1.0000
  H   H20       1.0  0.8442365960344774  0.909354475734922  0.3178537195728453  1.0000
  H   H21       1.0  0.31987623967530254  0.6700559549914401  0.3908528704092971  1.0000
  H   H22       1.0  0.0035806806125222995  0.4525673322778798  0.6892784902254758  1.0000
  H   H23       1.0  0.0135612171066839  0.2791682034158355  0.6091404057573014  1.0000
  H   H24       1.0  0.6648402589653059  0.5500106202064216  0.5760124303243117  1.0000
  H   H25       1.0  0.9964038550797127  0.6892797311073763  0.4525655475122645  1.0000
  H   H26       1.0  0.1928141655775732  0.03498228302113657  0.23991471591180158  1.0000
  H   H27       1.0  0.025574230983266895  0.31858069097422975  0.8278455087483039  1.0000
  H   H28       1.0  0.986444046906982  0.6091304044184439  0.2791623712374116  1.0000
  H   H29       1.0  0.1774810174609556  0.4085554882435573  0.0905679770702433  1.0000
  H   H30       1.0  0.0041638673624931  0.21632892257508726  0.6624291057116096  1.0000
  H   H31       1.0  0.8225320326672616  0.09056456685094356  0.40856636860891626  1.0000
  H   H32       1.0  0.7842794773860006  0.6920353303272789  0.8841285160075854  1.0000
  H   H33       1.0  0.35895316720699094  0.5092101010569009  0.6813505015240364  1.0000
  H   H34       1.0  0.4890471368361275  0.5914486439106381  0.6820870098110844  1.0000
  H   H35       1.0  0.974429194928277  0.8278443092279346  0.31857712636517005  1.0000
  H   H36       1.0  0.12642199491538264  0.4519832603951314  0.2021530490262363  1.0000
  H   H37       1.0  0.8071781535416777  0.239925209130007  0.03498902128203696  1.0000
  H   H38       1.0  0.20675032917112188  0.24974432699376334  0.7977538869652108  1.0000
  H   H39       1.0  0.3314292063928193  0.42398450345586974  0.9739929029608801  1.0000
  H   H40       1.0  0.5192513986617017  0.5516057151036192  0.1303956073213328  1.0000
  H   H41       1.0  0.6533710908025298  0.7207707845101367  0.32985434269144764  1.0000
  H   H42       1.0  0.6628758196634621  0.5474713566533181  0.23666610531509474  1.0000
  H   H43       1.0  0.4598961219427408  0.750191499853038  0.5479493066603636  1.0000
  H   H44       1.0  0.6410352747805775  0.6813434224736953  0.5092117905518947  1.0000
  H   H45       1.0  0.307588444610488  0.49076805921880146  0.17211119717613585  1.0000
  H   H46       1.0  0.4737247145494479  0.9650346541224835  0.20493070232721763  1.0000
  H   H47       1.0  0.21573011589301674  0.884126336187762  0.6920343863219854  1.0000
  H   H48       1.0  0.32918389975970547  0.553938299542061  0.33761645584544187  1.0000
  H   H49       1.0  0.48056153049495265  0.3589092714421157  0.6153707884006607  1.0000
  H   H50       1.0  0.6801244453023685  0.39085425827774145  0.670062564364457  1.0000
  H   H51       1.0  0.670453925487351  0.31079616776214186  0.7633323765309825  1.0000
  H   H52       1.0  0.7932540932476116  0.7977573910526273  0.24973874575681496  1.0000
  H   H53       1.0  0.692423778616508  0.17210801216980084  0.4907795477276905  1.0000
  H   H54       1.0  0.1472302432089378  0.4483938118027807  0.5788422880293068  1.0000
  H   H55       1.0  0.8594296925278826  0.7601176179478769  0.795013150689705  1.0000
  H   H56       1.0  0.33744210929547347  0.4459902359027694  0.7836446488781306  1.0000
  H   H57       1.0  0.9983399570603738  0.02597153323364409  0.4500697319461722  1.0000
  H   H58       1.0  0.1178965158818883  0.1922128594854796  0.30801112219868537  1.0000
  H   H59       1.0  0.5194364099468843  0.6153628777607025  0.3589109218045221  1.0000
  H   H60       1.0  0.8735813946301858  0.20215210828302327  0.45199243002145545  1.0000
  H   H61       1.0  0.18613783866087633  0.8696155575042039  0.42124087221230133  1.0000
  H   H62       1.0  0.8528716249013045  0.7435218344160718  0.38460602952549994  1.0000
  H   H63       1.0  0.18607055204640943  0.6410581462883798  0.2564574896318275  1.0000
  H   H64       1.0  0.3295417591581468  0.7633294326273441  0.3107932848665198  1.0000
  H   H65       1.0  0.5109377480063273  0.6820828702010785  0.5914521689368682  1.0000
  H   H66       1.0  0.0016944248621015999  0.45005772620583423  0.025961436179301155  1.0000
  C   C1        1.0  0.9762035827661819  0.645892092768321  0.6923487839135518  1.0000
  C   C2        1.0  0.0237965733804373  0.6923444561385281  0.6458871461113275  1.0000
  C   C3        1.0  0.2732455201291018  0.38578508017788943  0.7689209437382017  1.0000
  C   C4        1.0  0.6429213983642867  0.30767471977767263  0.953536358180557  1.0000
  C   C5        1.0  0.05993231693452122  0.6168930092977333  0.23103807103660032  1.0000
  C   C6        1.0  0.026468543245656  0.7131854643899371  0.5204871748476092  1.0000
  C   C7        1.0  0.1500620238418691  0.8224833212766995  0.65539301117699  1.0000
  C   C8        1.0  0.8924095124858623  0.6926332383332721  0.7725596138140245  1.0000
  C   C9        1.0  0.5112196586192753  0.6865711698093476  0.5321918825246994  1.0000
  C   C10       1.0  0.4933781561423416  0.6825134024003817  0.15624315965689542  1.0000
  C   C11       1.0  0.826858034606886  0.4737535346618741  0.3175060326960874  1.0000
  C   C12       1.0  0.16043038009373586  0.8437594737633133  0.52630680330234  1.0000
  C   C13       1.0  0.3596288346255889  0.8072992464576314  0.286853465054463  1.0000
  C   C14       1.0  0.10760104645919452  0.7725638670737567  0.6926365212652286  1.0000
  C   C15       1.0  0.7267554093744337  0.7689166378342449  0.3857725883721697  1.0000
  C   C16       1.0  0.30702645401952816  0.1927050678361439  0.4795463755493187  1.0000
  C   C17       1.0  0.35163728278694606  0.10506760756417317  0.44169863845684176  1.0000
  C   C18       1.0  0.1554180323496013  0.31335990035817207  0.8455988876483927  1.0000
  C   C19       1.0  0.6507015150240959  0.9185742966728653  0.43473531222373635  1.0000
  C   C20       1.0  0.8499422749594103  0.6553961772095745  0.8224810040681729  1.0000
  C   C21       1.0  0.5570598541986486  0.20766002506329062  0.7758328203205593  1.0000
  C   C22       1.0  0.7763641518977238  0.4318457980333291  0.22418833273642477  1.0000
  C   C23       1.0  0.6827637628945099  0.48383726692973267  0.5652488615829369  1.0000
  C   C24       1.0  0.8164819114918205  0.3446484635527369  0.16716703467283614  1.0000
  C   C25       1.0  0.983776379276641  0.5162188519979765  0.08138730417921627  1.0000
  C   C26       1.0  0.6929681693279975  0.47955683206321  0.19270426317599018  1.0000
  C   C27       1.0  0.48876634064970403  0.5321902447263295  0.686578366401484  1.0000
  C   C28       1.0  0.1777727902627007  0.4677861003018934  0.15432802019815736  1.0000
  C   C29       1.0  0.34930371486395734  0.43473521657940484  0.9185729687612535  1.0000
  C   C30       1.0  0.0162633581573246  0.08139391177199667  0.5162321951488166  1.0000
  C   C31       1.0  0.6403694194979863  0.28685525566951486  0.8072991983712966  1.0000
  C   C32       1.0  0.981803107004815  0.6634063841940402  0.5583207754499283  1.0000
  C   C33       1.0  0.8445879430340568  0.8456013148758642  0.31335674747622  1.0000
  C   C34       1.0  0.774136087529925  0.3074150133499031  0.07999703425900852  1.0000
  C   C35       1.0  0.39332238166581135  0.6141567155234071  0.3831083821752442  1.0000
  C   C36       1.0  0.5169876366667979  0.1774818156278428  0.8328605695759776  1.0000
  C   C37       1.0  0.22362036141073827  0.2241839395642699  0.43183529636143436  1.0000
  C   C38       1.0  0.5592743471073903  0.22742917221035697  0.920028782965133  1.0000
  C   C39       1.0  0.9735300798962427  0.5204830939682736  0.7131863600429398  1.0000
  C   C40       1.0  0.8395711181038337  0.5263078680992093  0.8437580475073216  1.0000
  C   C41       1.0  0.6904139328078713  0.354151289588863  0.04648049140818235  1.0000
  C   C42       1.0  0.9400728409490994  0.23104398764640866  0.6169042984571077  1.0000
  C   C43       1.0  0.31509839526776773  0.8949420893321188  0.33664947663245187  1.0000
  C   C44       1.0  0.018200515988994005  0.5583241392622682  0.6634004212127919  1.0000
  C   C45       1.0  0.5066194256914044  0.1562428466579887  0.6825151956273814  1.0000
  C   C46       1.0  0.35708232997180994  0.9535347287181181  0.30767034479205774  1.0000
  C   C47       1.0  0.18349718956670807  0.16715297210122765  0.34463833720170806  1.0000
  C   C48       1.0  0.6066680676565853  0.38310749444031694  0.6141628466069944  1.0000
  C   C49       1.0  0.4830154308012312  0.8328572456341375  0.17747710610528583  1.0000
  C   C50       1.0  0.6483620457327817  0.44170728256467834  0.10507378177435092  1.0000
  C   C51       1.0  0.10994619644373668  0.7923354918366597  0.5682014290434763  1.0000
  C   C52       1.0  0.6849052551447415  0.3366555480708797  0.8949459948845941  1.0000
  C   C53       1.0  0.22585149462086918  0.07999203044831661  0.3074097619099518  1.0000
  C   C54       1.0  0.31722430632338927  0.5652438238424295  0.4838413157508866  1.0000
  C   C55       1.0  0.44073033992055605  0.9200238451777736  0.22742122290885175  1.0000
  C   C56       1.0  0.1731205429700893  0.3175010689259564  0.4737453739127203  1.0000
  C   C57       1.0  0.8900527594469239  0.5682059289051296  0.7923368293447054  1.0000
  C   C58       1.0  0.4429418839657302  0.7758303518565484  0.2076561081606767  1.0000
  C   C59       1.0  0.8222405836689078  0.15432654695710818  0.4677972586209904  1.0000
  C   C60       1.0  0.309577459020602  0.046474425435008015  0.3541411137320551  1.0000
  N   N1        1.0  0.7422708003191332  0.848690305819275  0.382566060480414  1.0000
  N   N2        1.0  0.2577403999212677  0.38257767726801734  0.8486971607585474  1.0000
  N   N3        1.0  0.5911335277132255  0.46609033361722413  0.6173778916572061  1.0000
  N   N4        1.0  0.4088546317386772  0.6173702731671327  0.4660899354150202  1.0000
  N   N5        1.0  0.9245957978818352  0.1512565066022091  0.5339362662965783  1.0000
  N   N6        1.0  0.07541774138592672  0.5339230119039868  0.15125148901562807  1.0000
  O   O1        1.0  0.22851050255378877  0.9233495510923573  0.41214087589646164  1.0000
  O   O2        1.0  0.8684135540843911  0.4444992727473646  0.8106067180463368  1.0000
  O   O3        1.0  0.11658603609950553  0.07695787571960723  0.5682751049657853  1.0000
  O   O4        1.0  0.8951168552962088  0.5879335969817917  0.5112344559222208  1.0000
  O   O5        1.0  0.4383261678471512  0.07667637701412391  0.48878650983873223  1.0000
  O   O6        1.0  0.5504632110159521  0.9230412078731192  0.49124685297957166  1.0000
  O   O7        1.0  0.1048726028075251  0.5112333323522621  0.5879332415610605  1.0000
  O   O8        1.0  0.7830830797802831  0.43183859248978956  0.5087784402382879  1.0000
  O   O9        1.0  0.7714946790921146  0.4121440590598411  0.9233449713837628  1.0000
  O   O10       1.0  0.7692570051921878  0.5730922266795843  0.9165784000976201  1.0000
  O   O11       1.0  0.449552248283389  0.49125350898019327  0.9230487214313994  1.0000
  O   O12       1.0  0.2307422908170409  0.9165828953498404  0.5730925638102348  1.0000
  O   O13       1.0  0.5616769840216734  0.4887958513225286  0.07667550579746761  1.0000
  O   O14       1.0  0.1028975809640613  0.34357652364851526  0.4269550029428756  1.0000
  O   O15       1.0  0.2168996688610179  0.5087668628073274  0.4318332520862567  1.0000
  O   O16       1.0  0.20181428070851126  0.3661100169482409  0.5555688650973066  1.0000
  O   O17       1.0  0.8970595472932175  0.42695974234906225  0.3435799632144095  1.0000
  O   O18       1.0  0.4646907921146735  0.633873593910387  0.1894279205538679  1.0000
  O   O19       1.0  0.4364412482424385  0.0833827134427665  0.6564605717424996  1.0000
  O   O20       1.0  0.8834550839481069  0.568263838221533  0.07694631811533253  1.0000
  O   O21       1.0  0.5352979382221575  0.18943165098092157  0.6338742028298796  1.0000
  O   O22       1.0  0.5635812436979891  0.6564596073873403  0.08338427414378899  1.0000
  O   O23       1.0  0.1315838652394987  0.8106092852599714  0.44449778206225665  1.0000
  O   O24       1.0  0.7981784844275878  0.5555787333773026  0.36611634511911706  1.0000
