data_image0
_chemical_formula_structural       Zn4H34C63N16
_chemical_formula_sum              "Zn4 H34 C63 N16"
_cell_length_a       19.165184575676133
_cell_length_b       20.222581842806935
_cell_length_c       20.32422809115567
_cell_angle_alpha    106.7002389571589
_cell_angle_beta     109.38461966260185
_cell_angle_gamma    110.50900268849294

_space_group_name_H-M_alt    "P 1"
_space_group_IT_number       1

loop_
  _space_group_symop_operation_xyz
  'x, y, z'

loop_
  _atom_site_type_symbol
  _atom_site_label
  _atom_site_symmetry_multiplicity
  _atom_site_fract_x
  _atom_site_fract_y
  _atom_site_fract_z
  _atom_site_occupancy
  Zn  Zn1       1.0  0.09826607474317942  0.503359478141192  0.09913538446200938  1.0000
  Zn  Zn2       1.0  0.8903483764382685  0.499866962212586  0.8865128593147205  1.0000
  Zn  Zn3       1.0  0.8801281217929359  0.38931341600740427  0.9891073234855983  1.0000
  Zn  Zn4       1.0  0.10823317358355702  0.6121844482359722  0.991807500302372  1.0000
  H   H1        1.0  0.12893438618575465  0.3666928239433744  0.14637368137466925  1.0000
  H   H2        1.0  0.14834314843488988  0.4558790366106038  0.47701025318181683  1.0000
  H   H3        1.0  0.8748883830968951  0.4643871163452927  0.7027005166130208  1.0000
  H   H4        1.0  0.14819473257315247  0.4597468818991998  0.6002183300927442  1.0000
  H   H5        1.0  0.5077321080660298  0.8578847084886405  0.48233093789158954  1.0000
  H   H6        1.0  0.6343192078309484  0.9725714670599854  0.6039792671310592  1.0000
  H   H7        1.0  0.6630700588520143  0.1106567447848905  0.4783036283462466  1.0000
  H   H8        1.0  0.5364373804601572  0.995969137899607  0.35660519562281945  1.0000
  H   H9        1.0  0.1282954910805429  0.1403170208552282  0.1593487523778023  1.0000
  H   H10       1.0  0.13034776584148489  0.020731958876353918  0.1672393602561613  1.0000
  H   H11       1.0  0.8565059305439818  0.8961728128185342  0.05794526458119981  1.0000
  H   H12       1.0  0.7122908058440771  0.5157983453349216  0.8802957348500229  1.0000
  H   H13       1.0  0.8546311329347915  0.01583696876743091  0.05005604810950357  1.0000
  H   H14       1.0  0.7481359059525517  0.20505598341051037  0.8326107329606673  1.0000
  H   H15       1.0  0.29608177684674086  0.6294062721650989  0.9979168722707854  1.0000
  H   H16       1.0  0.8647105269798414  0.3525879048554188  0.7404573220549224  1.0000
  H   H17       1.0  0.20122685931553264  0.4287553278057175  0.04435295815213895  1.0000
  H   H18       1.0  0.12188376436620978  0.5015918132346968  0.8509732362863716  1.0000
  H   H19       1.0  0.8790355907388656  0.22372068763279188  0.9414266040413679  1.0000
  H   H20       1.0  0.2655581198485849  0.6433508041273797  0.26947981159567297  1.0000
  H   H21       1.0  0.22727149389958617  0.973880346930521  0.06624774835068337  1.0000
  H   H22       1.0  0.24205774495281698  0.9141741963466146  0.9946524205320134  1.0000
  H   H23       1.0  0.8578098002527952  0.3325976860461992  0.12570732718730676  1.0000
  H   H24       1.0  0.17760902413937182  0.9570650470551172  0.9677111310311802  1.0000
  H   H25       1.0  0.08511170444025858  0.8121303228082795  0.924235982015624  1.0000
  H   H26       1.0  0.0711421080683011  0.8722291216109923  0.9954512458190977  1.0000
  H   H27       1.0  0.17331289620246085  0.8601524325537752  0.09999810659496687  1.0000
  H   H28       1.0  0.18532665041018256  0.7975431846356855  0.028066748252164996  1.0000
  H   H29       1.0  0.8813503092911431  0.6376142938870399  0.010205136729766254  1.0000
  H   H30       1.0  0.10344162116487612  0.5472315994590532  0.26132090718586914  1.0000
  H   H31       1.0  0.22662085483155903  0.7797786256570518  0.14522351033183886  1.0000
  H   H32       1.0  0.8102544911209291  0.47701908703150053  0.08279111754593774  1.0000
  H   H33       1.0  0.8752679049118511  0.3125457986383753  0.4731010245367672  1.0000
  H   H34       1.0  0.8755349110617416  0.30845833744820067  0.34988029792179276  1.0000
  C   C1        1.0  0.06936934080312804  0.34333942428252584  0.0943460797275151  1.0000
  C   C2        1.0  0.041233736981638645  0.49702889547896234  0.21651175362430317  1.0000
  C   C3        1.0  0.22281866657435517  0.734403433148799  0.16441636393709305  1.0000
  C   C4        1.0  0.9343010954345274  0.47997567733605706  0.7505767842078654  1.0000
  C   C5        1.0  0.795869545636094  0.48347177188750107  0.029411494679088344  1.0000
  C   C6        1.0  0.2812215963052367  0.7412766356707507  0.23391457181524097  1.0000
  C   C7        1.0  0.735524815032015  0.5030812765450392  0.991328106776251  1.0000
  C   C8        1.0  0.9876347429032677  0.4326768160565564  0.2223903664652697  1.0000
  C   C9        1.0  0.9985876360862206  0.7452917149276459  0.040185516537192836  1.0000
  C   C10       1.0  0.35260327814474834  0.5193495316498158  0.028987063730291255  1.0000
  C   C11       1.0  0.4185152752944532  0.5204118301905111  0.03292879404871477  1.0000
  C   C12       1.0  0.0014630394768032908  0.46797985893755367  0.7469411188251128  1.0000
  C   C13       1.0  0.48903339709384835  0.5214151109047122  0.03370519988843059  1.0000
  C   C14       1.0  0.5528588881963898  0.5223275394938298  0.03095141904711342  1.0000
  C   C15       1.0  0.6184750803057213  0.520064582574456  0.022398013217255763  1.0000
  C   C16       1.0  0.7822245991064777  0.25302621677589343  0.8221907783905494  1.0000
  C   C17       1.0  0.6756681991214106  0.5146297600391421  0.010593009522963864  1.0000
  C   C18       1.0  0.9350483221967067  0.34162405848164923  0.40494468937995987  1.0000
  C   C19       1.0  0.011399644933689572  0.38610875600990363  0.4059143389825551  1.0000
  C   C20       1.0  0.08868026127021984  0.4246486980899745  0.4764683418563679  1.0000
  C   C21       1.0  0.0886025480014824  0.4267485800634461  0.5452725015185749  1.0000
  C   C22       1.0  0.011251870986647816  0.3906152875062149  0.5461244004282264  1.0000
  C   C23       1.0  0.7929786417651883  0.24873343789949603  0.7560756500461425  1.0000
  C   C24       1.0  0.9349620924975712  0.343933722947405  0.4737589872739961  1.0000
  C   C25       1.0  0.008368546960866849  0.39792855930281945  0.3399689602847928  1.0000
  C   C26       1.0  0.009097226305925793  0.4087000803778267  0.6178832057785258  1.0000
  C   C27       1.0  0.007175158311810064  0.43491472574739726  0.6790914714758358  1.0000
  C   C28       1.0  0.26101919813186913  0.5823912413554523  0.008855021672907406  1.0000
  C   C29       1.0  0.0006067092519828171  0.41525904237649763  0.2860719120084028  1.0000
  C   C30       1.0  0.6126637132328837  0.9774460054841467  0.5496623064019843  1.0000
  C   C31       1.0  0.655136972064163  0.05094173215519521  0.5505703739262773  1.0000
  C   C32       1.0  0.6288330538279112  0.055164313226967465  0.47891004300868184  1.0000
  C   C33       1.0  0.557944077789891  0.9911210070567192  0.41095124712021663  1.0000
  C   C34       1.0  0.28056309785941386  0.5252003348369031  0.02362999140920856  1.0000
  C   C35       1.0  0.5107309918197985  0.9200829213980269  0.41178686161401146  1.0000
  C   C36       1.0  0.541894812266172  0.9134375144508768  0.4817581500698439  1.0000
  C   C37       1.0  0.7152895282394952  0.1200121379298339  0.6227242243147019  1.0000
  C   C38       1.0  0.43194188681027873  0.8583775408496875  0.34641517350985407  1.0000
  C   C39       1.0  0.36088886205268983  0.8058321176871389  0.29379876479909234  1.0000
  C   C40       1.0  0.8417834063886148  0.32898088289687893  0.7752401583659749  1.0000
  C   C41       1.0  0.7557412676174877  0.18042863925342814  0.6851012310103073  1.0000
  C   C42       1.0  0.0700225306888171  0.0198100843028897  0.1415086483533301  1.0000
  C   C43       1.0  0.9932284038130843  0.948648682334216  0.10936451775692284  1.0000
  C   C44       1.0  0.9158986020207108  0.949769669414266  0.0801206773047908  1.0000
  C   C45       1.0  0.24306246392943368  0.6649536525020494  0.22834119202741487  1.0000
  C   C46       1.0  0.9148676335980496  0.01659021258210911  0.07557486069918441  1.0000
  C   C47       1.0  0.991070337360291  0.08503840031168866  0.10046355854214543  1.0000
  C   C48       1.0  0.06894979040687592  0.08662405564175661  0.137110398597116  1.0000
  C   C49       1.0  0.993804681029836  0.8764215047904641  0.09771550173539366  1.0000
  C   C50       1.0  0.9901600012092043  0.14844573035490777  0.08460774751227967  1.0000
  C   C51       1.0  0.992391024477193  0.2011128366827606  0.06589228025720935  1.0000
  C   C52       1.0  0.21242126697124775  0.47952316592724026  0.03257282914292864  1.0000
  C   C53       1.0  0.9929993779436188  0.8131139347013986  0.07423317217146776  1.0000
  C   C54       1.0  0.060512266087173236  0.4985341751543973  0.8264159159089461  1.0000
  C   C55       1.0  0.941271290611887  0.27049182567957797  0.9897139414649844  1.0000
  C   C56       1.0  0.7452414279246258  0.5026153106177562  0.9252062215687292  1.0000
  C   C57       1.0  0.9996717559999908  0.2655355843418761  0.04979706393374532  1.0000
  C   C58       1.0  0.14037394583848348  0.8159098980514655  0.03790459237698944  1.0000
  C   C59       1.0  0.11739280878043001  0.8558153760747587  0.9863034327921696  1.0000
  C   C60       1.0  0.19533405079263141  0.9291684647939177  0.004670236074019818  1.0000
  C   C61       1.0  0.9153698849195421  0.38738356892415743  0.14740796952535365  1.0000
  C   C62       1.0  0.06437369105835694  0.7459084884204258  0.022580486502576394  1.0000
  C   C63       1.0  0.9409742169478789  0.6641883529153247  0.009628794195599385  1.0000
  N   N1        1.0  0.05212048017054374  0.3892875759478969  0.0628515113566976  1.0000
  N   N2        1.0  0.8199670966529882  0.3293923217665483  0.8746215294501669  1.0000
  N   N3        1.0  0.18844931660868974  0.5711193016712881  0.00999812204005221  1.0000
  N   N4        1.0  0.8574998386942454  0.3769803706800374  0.8461362067597308  1.0000
  N   N5        1.0  0.15780855819235032  0.5079393509212622  0.024634228863099912  1.0000
  N   N6        1.0  0.030731566696914576  0.5263175497974615  0.8728607454477243  1.0000
  N   N7        1.0  0.9730584280251763  0.34536282106083177  0.998455620715774  1.0000
  N   N8        1.0  0.1695389810486461  0.6178437616183672  0.1606896228995254  1.0000
  N   N9        1.0  0.8049505312569565  0.4829758773718141  0.9242174538243049  1.0000
  N   N10       1.0  0.9265945076286143  0.4224561885396697  0.10205250578977153  1.0000
  N   N11       1.0  0.04501180360452378  0.670364513738292  0.983439891674827  1.0000
  N   N12       1.0  0.9688536901015256  0.6193987149937284  0.9754043874187418  1.0000
  N   N13       1.0  0.004522350777556104  0.49004567518623077  0.14368244730358987  1.0000
  N   N14       1.0  0.15636737973289178  0.6599167728342862  0.12046917571699114  1.0000
  N   N15       1.0  0.8366005825154801  0.4712844245625122  0.9885275105475415  1.0000
  N   N16       1.0  0.9525998754840828  0.5148854001682254  0.8258030657672181  1.0000
