data_image0
_chemical_formula_structural       Na2P4H16C4N2O12
_chemical_formula_sum              "Na2 P4 H16 C4 N2 O12"
_cell_length_a       5.497084029363167
_cell_length_b       8.114055146232596
_cell_length_c       9.000763608902838
_cell_angle_alpha    99.19710281985415
_cell_angle_beta     102.79098300129826
_cell_angle_gamma    100.70155516350046

_space_group_name_H-M_alt    "P 1"
_space_group_IT_number       1

loop_
  _space_group_symop_operation_xyz
  'x, y, z'

loop_
  _atom_site_type_symbol
  _atom_site_label
  _atom_site_symmetry_multiplicity
  _atom_site_fract_x
  _atom_site_fract_y
  _atom_site_fract_z
  _atom_site_occupancy
  Na  Na1       1.0  0.44341527040458567  0.6262399191306046  0.1574298983650806  1.0000
  Na  Na2       1.0  0.556586317694233  0.37375663031806994  0.8425661490647585  1.0000
  P   P1        1.0  0.8584878327179695  0.9955645875680758  0.2673513238352855  1.0000
  P   P2        1.0  0.14154117504933336  0.0044513753922216966  0.7326653750937807  1.0000
  P   P3        1.0  0.9039182359149437  0.3454065751292178  0.15667162199870435  1.0000
  P   P4        1.0  0.09607682194395303  0.6545925855919138  0.8433261429058163  1.0000
  H   H1        1.0  0.7516998158334472  0.9159314377552976  0.4726312347077198  1.0000
  H   H2        1.0  0.24829473092112414  0.08407159053920311  0.5273680946894004  1.0000
  H   H3        1.0  0.3716943136113642  0.07998869122450714  0.2591968547954551  1.0000
  H   H4        1.0  0.6283050022506131  0.9200066113788525  0.7408009492460012  1.0000
  H   H5        1.0  0.3971435363901464  0.2696638205799147  0.21262637433572712  1.0000
  H   H6        1.0  0.6028519956880274  0.730331440134826  0.787367594612526  1.0000
  H   H7        1.0  0.01187618755525225  0.33473273276916166  0.49554137273570825  1.0000
  H   H8        1.0  0.9881176387179663  0.6652574621764203  0.5044561355270716  1.0000
  H   H9        1.0  0.7260756889944843  0.4093887219689166  0.44559932457881507  1.0000
  H   H10       1.0  0.2739237375226224  0.5906066779335148  0.5544051738536453  1.0000
  H   H11       1.0  0.7176462334307131  0.2129920911340122  0.5092981848480846  1.0000
  H   H12       1.0  0.2823461735081524  0.7869993898508342  0.49069931036905257  1.0000
  H   H13       1.0  0.41445941875848996  0.10535291298204191  0.08196368619741182  1.0000
  H   H14       1.0  0.5855430406853231  0.8946461855677228  0.9180317073070015  1.0000
  H   H15       1.0  0.9901772720912446  0.18192097012388334  0.9550114928064204  1.0000
  H   H16       1.0  0.009817925748294116  0.8180731052311289  0.04498893962963997  1.0000
  C   C1        1.0  0.7553820292253305  0.20041384687539224  0.27130850051969446  1.0000
  C   C2        1.0  0.24461343664228255  0.7995865640715182  0.7286872638243552  1.0000
  C   C3        1.0  0.8060069559450582  0.29496322879135306  0.4406296120803077  1.0000
  C   C4        1.0  0.19398810191383128  0.7050359319297785  0.5593681528242129  1.0000
  N   N1        1.0  0.4726159654290071  0.1589908128705489  0.20094352393123674  1.0000
  N   N2        1.0  0.5273868173704415  0.8410146699206538  0.7990505486766749  1.0000
  O   O1        1.0  0.6784447984824452  0.8878714551220526  0.3517310847862731  1.0000
  O   O2        1.0  0.32155736360778053  0.11212649050100511  0.6482730036696083  1.0000
  O   O3        1.0  0.7971827619775452  0.8972681024459065  0.10054817353812247  1.0000
  O   O4        1.0  0.20282678325508388  0.10272976478927381  0.8994524277858176  1.0000
  O   O5        1.0  0.13800302005586929  0.0342867753770122  0.3585808382905427  1.0000
  O   O6        1.0  0.8619837680589201  0.9657368349349726  0.6414224654307078  1.0000
  O   O7        1.0  0.7433023655257928  0.47599929653026873  0.13959619564643327  1.0000
  O   O8        1.0  0.2567131033063461  0.5240101599031918  0.8604100749506856  1.0000
  O   O9        1.0  0.8432509440702347  0.2281666953673565  0.985003295456039  1.0000
  O   O10       1.0  0.15673428154372718  0.7718363498294353  0.01499481419683245  1.0000
  O   O11       1.0  0.1895989048997322  0.4037945983451792  0.22992306942217064  1.0000
  O   O12       1.0  0.8104083974215756  0.5961968393794878  0.7700752616539219  1.0000
