data_image0
_chemical_formula_structural       Cu2H14C20N10O12
_chemical_formula_sum              "Cu2 H14 C20 N10 O12"
_cell_length_a       7.783103034189629
_cell_length_b       8.579373575733259
_cell_length_c       10.822078345638324
_cell_angle_alpha    92.97125830477604
_cell_angle_beta     96.77792765710858
_cell_angle_gamma    100.73910065962879

_space_group_name_H-M_alt    "P 1"
_space_group_IT_number       1

loop_
  _space_group_symop_operation_xyz
  'x, y, z'

loop_
  _atom_site_type_symbol
  _atom_site_label
  _atom_site_symmetry_multiplicity
  _atom_site_fract_x
  _atom_site_fract_y
  _atom_site_fract_z
  _atom_site_occupancy
  Cu  Cu1       1.0  0.9059124975176049  0.8703754768948712  0.03564556788792571  1.0000
  Cu  Cu2       1.0  0.09410177033250733  0.1295937068338802  0.9643446659992633  1.0000
  H   H1        1.0  0.10539948689788055  0.9073231057190654  0.42175567248349916  1.0000
  H   H2        1.0  0.8946136919889156  0.0926925305752846  0.5782397432965353  1.0000
  H   H3        1.0  0.3960293174631175  0.3406018654357226  0.308133605337602  1.0000
  H   H4        1.0  0.6039663031499671  0.6594104283621788  0.6918589672321431  1.0000
  H   H5        1.0  0.5735236804469181  0.3940030471798294  0.5230298215331501  1.0000
  H   H6        1.0  0.42647848528238097  0.6060259908995819  0.47695968379141357  1.0000
  H   H7        1.0  0.2765193414896814  0.9661518417452725  0.6387970856694452  1.0000
  H   H8        1.0  0.7234899268987647  0.033857903058851904  0.36119669952405076  1.0000
  H   H9        1.0  0.463119550151447  0.818272631350993  0.8621929489161814  1.0000
  H   H10       1.0  0.5369163873895816  0.1817068422531705  0.1378508298719723  1.0000
  H   H11       1.0  0.47229176417145885  0.7616772351266262  0.017468962222807204  1.0000
  H   H12       1.0  0.5276811596462141  0.23829927488045394  0.9825295941636581  1.0000
  H   H13       1.0  0.26345107972591125  0.6008512717354649  0.6849151175097461  1.0000
  H   H14       1.0  0.7365607439800853  0.3991308354559848  0.3150838943095735  1.0000
  C   C1        1.0  0.2380348943204922  0.8469278036409733  0.9559465999057295  1.0000
  C   C2        1.0  0.7619584221697336  0.15304138089134506  0.04405080464347579  1.0000
  C   C3        1.0  0.20790153715768162  0.013490942766445396  0.44545804632526387  1.0000
  C   C4        1.0  0.7921152205880235  0.9865194792644304  0.5545522318324245  1.0000
  C   C5        1.0  0.15236101101641708  0.07926883950418069  0.2219569638694949  1.0000
  C   C6        1.0  0.8476114848279579  0.9206896101199008  0.7780470427053103  1.0000
  C   C7        1.0  0.37363382342181245  0.2580468791769306  0.38039654265621436  1.0000
  C   C8        1.0  0.6263363939923181  0.7419660446966746  0.619581532514232  1.0000
  C   C9        1.0  0.4701667617659595  0.288931662895486  0.4984636435059571  1.0000
  C   C10       1.0  0.5298071520507578  0.711103727398431  0.5015215610336909  1.0000
  C   C11       1.0  0.3028682294179887  0.044211722002380306  0.5643411332626513  1.0000
  C   C12       1.0  0.6971307086259202  0.9558168289556332  0.43566743895758003  1.0000
  C   C13       1.0  0.3850557424474773  0.758379309089797  0.9298227917533667  1.0000
  C   C14       1.0  0.6149269533339564  0.24159566572366484  0.07018496833008209  1.0000
  C   C15       1.0  0.244979728536812  0.11861075740397811  0.3527981337618513  1.0000
  C   C16       1.0  0.7550221765073886  0.881361927244157  0.6471993859805707  1.0000
  C   C17       1.0  0.2605668909795966  0.5320138560074594  0.766123410554293  1.0000
  C   C18       1.0  0.739462180877048  0.4680058096126983  0.23389413355418037  1.0000
  C   C19       1.0  0.43456256552973127  0.18041352949607153  0.588024603228881  1.0000
  C   C20       1.0  0.5654419609619694  0.8196084243389308  0.411961054309792  1.0000
  N   N1        1.0  0.2285686894670746  0.34676234382497023  0.8890718508076105  1.0000
  N   N2        1.0  0.7714399494979106  0.6532341137423572  0.1109276232069121  1.0000
  N   N3        1.0  0.3178170226680167  0.5938837072468673  0.884384727050815  1.0000
  N   N4        1.0  0.6821991221629988  0.4061085063842427  0.1156365214662287  1.0000
  N   N5        1.0  0.2961210381925668  0.47552091661299994  0.961024319926743  1.0000
  N   N6        1.0  0.7038929126394678  0.5244667028259472  0.03899091608371919  1.0000
  N   N7        1.0  0.5413917371334733  0.2115442005469177  0.7109696010462159  1.0000
  N   N8        1.0  0.45861336455434554  0.7884801567963251  0.2890153192060155  1.0000
  N   N9        1.0  0.2043814442863123  0.37686221685519417  0.7665594118550629  1.0000
  N   N10       1.0  0.7956433193974705  0.623160136172892  0.2334486073046946  1.0000
  O   O1        1.0  0.2036451377258288  0.1746401752533302  0.1414370600792694  1.0000
  O   O2        1.0  0.796359354072621  0.82535408771453  0.8586007100584395  1.0000
  O   O3        1.0  0.10242585547457142  0.7664976756541789  0.9921312084665174  1.0000
  O   O4        1.0  0.8975650966966384  0.23349630813310537  0.007877474079272402  1.0000
  O   O5        1.0  0.2710384311029017  0.9942337613804852  0.939150617416324  1.0000
  O   O6        1.0  0.7289786802350307  0.005730667603714297  0.0608377914840403  1.0000
  O   O7        1.0  0.033790653237687644  0.9536490425283116  0.20379812458826752  1.0000
  O   O8        1.0  0.9661506569360795  0.046331358627803396  0.7961559151202665  1.0000
  O   O9        1.0  0.5384843680977198  0.0989765587786309  0.7788717433462296  1.0000
  O   O10       1.0  0.4615106919406031  0.9010628729749257  0.22113333684210087  1.0000
  O   O11       1.0  0.6289376124979141  0.3475589093222879  0.7399023157764901  1.0000
  O   O12       1.0  0.3710455085380674  0.6524706074812697  0.2600760864914875  1.0000
