data_image0
_chemical_formula_structural       Cd4H40C32N24O24
_chemical_formula_sum              "Cd4 H40 C32 N24 O24"
_cell_length_a       9.878763758276737
_cell_length_b       11.176036807442877
_cell_length_c       12.554496236421551
_cell_angle_alpha    108.82417648203003
_cell_angle_beta     90.04259828353908
_cell_angle_gamma    89.98438937165035

_space_group_name_H-M_alt    "P 1"
_space_group_IT_number       1

loop_
  _space_group_symop_operation_xyz
  'x, y, z'

loop_
  _atom_site_type_symbol
  _atom_site_label
  _atom_site_symmetry_multiplicity
  _atom_site_fract_x
  _atom_site_fract_y
  _atom_site_fract_z
  _atom_site_occupancy
  Cd  Cd1       1.0  0.6400645523411085  0.3788585137812177  0.6416506831372004  1.0000
  Cd  Cd2       1.0  0.3599338603040323  0.6211399702333011  0.35835010820169794  1.0000
  Cd  Cd3       1.0  0.1401016440572249  0.12149682929050698  0.8583638513984723  1.0000
  Cd  Cd4       1.0  0.8599018310330565  0.87850354209872  0.141637444779569  1.0000
  H   H1        1.0  0.3342312101478413  0.27375684787104854  0.18821458353330195  1.0000
  H   H2        1.0  0.6657712500784357  0.7262397689313644  0.8117865134537964  1.0000
  H   H3        1.0  0.20030450390656543  0.22958520458406895  0.09204758186393042  1.0000
  H   H4        1.0  0.7996959328576595  0.7704133032855153  0.9079540144542617  1.0000
  H   H5        1.0  0.6997161853406054  0.2701934255267702  0.40778086130178787  1.0000
  H   H6        1.0  0.3002832422475379  0.7298058784160445  0.5922161642485192  1.0000
  H   H7        1.0  0.8332632727498251  0.22562181174361473  0.31142761417587644  1.0000
  H   H8        1.0  0.16673817810576003  0.7743775658743887  0.6885718231648781  1.0000
  H   H9        1.0  0.47677428450643333  0.5884255711103847  0.7761360484278299  1.0000
  H   H10       1.0  0.5232261561268104  0.41157661714333216  0.22386333607771994  1.0000
  H   H11       1.0  0.4735308800802826  0.5893573326858856  0.6473710581261826  1.0000
  H   H12       1.0  0.5264705699236528  0.41064209475224084  0.35262998602571827  1.0000
  H   H13       1.0  0.9769874396589272  0.9118742795891063  0.7239092584197448  1.0000
  H   H14       1.0  0.023015022617464402  0.08812514732152009  0.27609178651902505  1.0000
  H   H15       1.0  0.9733282052794509  0.9110136821507805  0.8526716509623778  1.0000
  H   H16       1.0  0.026674257422769194  0.0889857198497879  0.1473285905708153  1.0000
  H   H17       1.0  0.23268841398401457  0.0128135023832598  0.3260699846044516  1.0000
  H   H18       1.0  0.7673099985455212  0.9871840117151006  0.6739297528764607  1.0000
  H   H19       1.0  0.37166953912138473  0.998636168726918  0.4112406304050039  1.0000
  H   H20       1.0  0.6283308981842736  0.0013632841487592029  0.5887612163656044  1.0000
  H   H21       1.0  0.865126613437873  0.23363476776398065  0.7342037688840931  1.0000
  H   H22       1.0  0.13486977528278746  0.7663617276530984  0.2657933063539629  1.0000
  H   H23       1.0  0.7330966750675431  0.4872397831819271  0.1740396578785663  1.0000
  H   H24       1.0  0.2669047751676104  0.5127615840885013  0.8259634939893059  1.0000
  H   H25       1.0  0.8719689849246423  0.5014701302644369  0.08891686098913003  1.0000
  H   H26       1.0  0.1280324668191994  0.4985331021081194  0.9110859883779838  1.0000
  H   H27       1.0  0.9006195849666839  0.3419383182761279  0.19596724815870906  1.0000
  H   H28       1.0  0.09938389012359751  0.6580620531130916  0.804034048019332  1.0000
  H   H29       1.0  0.7722589493022838  0.24763642722993498  0.11041643666558089  1.0000
  H   H30       1.0  0.22774351448279623  0.7523648647828196  0.8895843057724305  1.0000
  H   H31       1.0  0.3997897631766634  0.1584500681698771  0.3043598427733015  1.0000
  H   H32       1.0  0.6002066263956395  0.8415463774270792  0.6956356256536083  1.0000
  H   H33       1.0  0.27149639305550727  0.2525304992366202  0.3900138211385026  1.0000
  H   H34       1.0  0.7285020202100654  0.7474659951254665  0.6099832556732778  1.0000
  H   H35       1.0  0.365188391697842  0.26661059241083507  0.765674977447041  1.0000
  H   H36       1.0  0.6348110360425139  0.7333935860228066  0.23432812079876436  1.0000
  H   H37       1.0  0.33470759693729957  0.05125714148747558  0.621257254095589  1.0000
  H   H38       1.0  0.665289804828454  0.9487422382405057  0.3787421800977098  1.0000
  H   H39       1.0  0.8348485120502789  0.44892582335462805  0.8789565021993792  1.0000
  H   H40       1.0  0.16515496056405962  0.5510717628364361  0.12104564943257398  1.0000
  C   C1        1.0  0.3738023415902063  0.2949092738292123  0.03733973542249908  1.0000
  C   C2        1.0  0.6261970830171677  0.7050902044840228  0.9626629139668166  1.0000
  C   C3        1.0  0.8733684118351804  0.2049403323775394  0.4624787000742713  1.0000
  C   C4        1.0  0.12662899035640146  0.7950590224403841  0.5375199307134507  1.0000
  C   C5        1.0  0.0733823039638111  0.13716807081812019  0.5074662878497448  1.0000
  C   C6        1.0  0.9266140862655307  0.8628302897010868  0.4925304848875668  1.0000
  C   C7        1.0  0.5737213359581047  0.36279095503393677  0.9924799665859253  1.0000
  C   C8        1.0  0.4262791043649301  0.6372122280459962  0.007521275183187031  1.0000
  C   C9        1.0  0.5349497261970201  0.3367308713568207  0.8788617171813867  1.0000
  C   C10       1.0  0.46504868656372617  0.6632685825738419  0.12114012801549022  1.0000
  C   C11       1.0  0.0347535887864936  0.1633885300912397  0.62108726186743  1.0000
  C   C12       1.0  0.9652448254463267  0.836608884366882  0.3789092619911968  1.0000
  C   C13       1.0  0.2922034878823965  0.0627166429772501  0.40116779277111897  1.0000
  C   C14       1.0  0.7077969501592991  0.9372817901621527  0.5988313933303571  1.0000
  C   C15       1.0  0.9055605848730013  0.2116568032381778  0.6492583249141717  1.0000
  C   C16       1.0  0.0944368165459295  0.7883396667413437  0.3507379477051771  1.0000
  C   C17       1.0  0.7925975983074167  0.43735153781391733  0.09897586454361831  1.0000
  C   C18       1.0  0.2074018287759003  0.5626507256974802  0.9010259293917924  1.0000
  C   C19       1.0  0.8522631779042056  0.31727742464422437  0.1127378141728244  1.0000
  C   C20       1.0  0.14773827360841096  0.6827238678960227  0.8872629274783249  1.0000
  C   C21       1.0  0.35161566674894124  0.18293379758831918  0.3875838356596119  1.0000
  C   C22       1.0  0.648387807568689  0.8170636889625058  0.6124151023500488  1.0000
  C   C23       1.0  0.40571091469703185  0.2885070258427476  0.8506235216368548  1.0000
  C   C24       1.0  0.5942874993777921  0.7114962579324171  0.1493809321808115  1.0000
  C   C25       1.0  0.2380829102363151  0.08700273268480879  0.6039653374147135  1.0000
  C   C26       1.0  0.7619155041121175  0.9129956516894635  0.396032240301892  1.0000
  C   C27       1.0  0.7382656683329145  0.41311084106521884  0.8961447929003723  1.0000
  C   C28       1.0  0.2617307219330343  0.5868914240286571  0.10385699867444488  1.0000
  C   C29       1.0  0.9579966205521657  0.251862694516042  0.026662838955289214  1.0000
  C   C30       1.0  0.042006854538115604  0.7481376768731849  0.9733384572227518  1.0000
  C   C31       1.0  0.45751006511901693  0.24830642896269234  0.47366449352487183  1.0000
  C   C32       1.0  0.542489360534617  0.7516910347880525  0.5263336379317564  1.0000
  N   N1        1.0  0.20280398365400742  0.08910043447797021  0.4989108484350877  1.0000
  N   N2        1.0  0.7971944297271706  0.9108970298002673  0.5010872822346782  1.0000
  N   N3        1.0  0.2918756762729515  0.2735939245376144  0.11468481993966859  1.0000
  N   N4        1.0  0.7081247590981975  0.7264036881460001  0.8853181327372607  1.0000
  N   N5        1.0  0.7911963376222885  0.2260372580437461  0.3850880545919181  1.0000
  N   N6        1.0  0.2088030889986001  0.7739611258030336  0.6149095239115566  1.0000
  N   N7        1.0  0.7031395165150796  0.4108555152393193  0.0011484952171655805  1.0000
  N   N8        1.0  0.296859912618352  0.589149558380292  0.9988532466699026  1.0000
  N   N9        1.0  0.32640391557385573  0.2666358656503007  0.929253166113092  1.0000
  N   N10       1.0  0.6735944985799661  0.7333644834663388  0.0707473227250546  1.0000
  N   N11       1.0  0.8261238480072065  0.23339960590116254  0.5705593024575748  1.0000
  N   N12       1.0  0.1738755779566432  0.7665968630233736  0.42943697173550527  1.0000
  N   N13       1.0  0.49677953843728767  0.3465128845883498  0.07308777588080059  1.0000
  N   N14       1.0  0.5032178646425507  0.6534903249841263  0.9269142669332878  1.0000
  N   N15       1.0  0.1408547866203875  0.1303195443008747  0.6792282656937301  1.0000
  N   N16       1.0  0.859140591026282  0.8696798115720411  0.3207703635202676  1.0000
  N   N17       1.0  0.9963341064158797  0.1533220766881627  0.4267742344822948  1.0000
  N   N18       1.0  0.0036653196635754006  0.8466753621525244  0.5732230935687638  1.0000
  N   N19       1.0  0.6409886250479174  0.36988275697260065  0.8208070043507261  1.0000
  N   N20       1.0  0.35901080137836067  0.6301175916165391  0.17919348527428267  1.0000
  N   N21       1.0  0.8827096078877756  0.5572798279917351  0.6722056314310051  1.0000
  N   N22       1.0  0.11728779399359011  0.44272052165240444  0.3277948566202724  1.0000
  N   N23       1.0  0.3828016761013656  0.942017739963319  0.826542758714801  1.0000
  N   N24       1.0  0.617203827828675  0.05798628584498999  0.17345552381875248  1.0000
  O   O1        1.0  0.47358134907134547  0.21859270477984444  0.5624741437816496  1.0000
  O   O2        1.0  0.5264201005857672  0.7814038129098221  0.43752373879630096  1.0000
  O   O3        1.0  0.973991533128995  0.2816763593660879  0.9379085706497746  1.0000
  O   O4        1.0  0.026008905800956907  0.718325928527868  0.0620940274780679  1.0000
  O   O5        1.0  0.5311028827855324  0.334038798974106  0.45419552579999584  1.0000
  O   O6        1.0  0.46889350829545867  0.6659595117249777  0.5457996401261695  1.0000
  O   O7        1.0  0.031518969451831004  0.16599252858805605  0.04606671386117258  1.0000
  O   O8        1.0  0.9684855186469505  0.8340068225373966  0.9539319224346058  1.0000
  O   O9        1.0  0.7726708065210558  0.534355317710961  0.612366125131764  1.0000
  O   O10       1.0  0.22732558277763812  0.46564602728687987  0.3876362193962065  1.0000
  O   O11       1.0  0.47029200137026805  0.5341503082131994  0.695716948775761  1.0000
  O   O12       1.0  0.529706411700694  0.46584815089126147  0.30428303915756766  1.0000
  O   O13       1.0  0.9701897650139698  0.9661958524544901  0.8042886343758724  1.0000
  O   O14       1.0  0.029814722774588593  0.033804493497179094  0.19571185918345435  1.0000
  O   O15       1.0  0.9119250484089109  0.4898447782475728  0.7324327446655942  1.0000
  O   O16       1.0  0.08807336423622301  0.510153705766939  0.267568046673304  1.0000
  O   O17       1.0  0.2726176204074592  0.9650343966806147  0.8860863638752432  1.0000
  O   O18       1.0  0.7273909187522561  0.0349706971016062  0.1139161884991751  1.0000
  O   O19       1.0  0.4132763497827341  0.010367424357674801  0.76750096854699  1.0000
  O   O20       1.0  0.5867200453984865  0.9896365065578505  0.23249409328249718  1.0000
  O   O21       1.0  0.9554697219320474  0.6471908885507887  0.6684559572230312  1.0000
  O   O22       1.0  0.044526665857965504  0.35280859134492465  0.33154668980569096  1.0000
  O   O23       1.0  0.45441266755240417  0.8509993400586922  0.8294307291515037  1.0000
  O   O24       1.0  0.5455968896466955  0.1490073691975553  0.17056348745330743  1.0000
