data_image0
_chemical_formula_structural       Ag2H16C28N10
_chemical_formula_sum              "Ag2 H16 C28 N10"
_cell_length_a       7.27414469577311
_cell_length_b       9.242994603867384
_cell_length_c       10.001356728465367
_cell_angle_alpha    86.5920944847846
_cell_angle_beta     81.35812212101807
_cell_angle_gamma    66.78302906123436

_space_group_name_H-M_alt    "P 1"
_space_group_IT_number       1

loop_
  _space_group_symop_operation_xyz
  'x, y, z'

loop_
  _atom_site_type_symbol
  _atom_site_label
  _atom_site_symmetry_multiplicity
  _atom_site_fract_x
  _atom_site_fract_y
  _atom_site_fract_z
  _atom_site_occupancy
  Ag  Ag1       1.0  0.07638641180414404  0.8465680919025471  0.2501719937676725  1.0000
  Ag  Ag2       1.0  0.9236180555418655  0.1534427933560991  0.7498229330080974  1.0000
  H   H1        1.0  0.9390785470222484  0.6150205215009662  0.4254717642869039  1.0000
  H   H2        1.0  0.5543600960221227  0.3849894420474981  0.9248694627610944  1.0000
  H   H3        1.0  0.060931500861485785  0.3849821220219737  0.5745259875869024  1.0000
  H   H4        1.0  0.4456460869094416  0.6150014324882064  0.07512846705550659  1.0000
  H   H5        1.0  0.7256694017746952  0.6045897508345276  0.6405502728242142  1.0000
  H   H6        1.0  0.32990453239730044  0.39534395020601915  0.1396927150587146  1.0000
  H   H7        1.0  0.2743387646456058  0.39540818574283065  0.3594449906888073  1.0000
  H   H8        1.0  0.6701017966891955  0.604649278995339  0.8603020547737968  1.0000
  H   H9        1.0  0.5745426015143026  0.10406408187698447  0.6828077728706106  1.0000
  H   H10       1.0  0.678956584807942  0.8957725394552724  0.18215304672155946  1.0000
  H   H11       1.0  0.4254520359646463  0.8959303279346358  0.31718933604454946  1.0000
  H   H12       1.0  0.3210434908618538  0.10421951367997197  0.8178475485887163  1.0000
  H   H13       1.0  0.7843877552595301  0.09401682791321518  0.4626905900245291  1.0000
  H   H14       1.0  0.8790638709076718  0.9058266663652714  0.9622051697367696  1.0000
  H   H15       1.0  0.21560305905502028  0.9059881756988162  0.5373103394775995  1.0000
  H   H16       1.0  0.12093820650761697  0.0941642088714261  0.037796255297067205  1.0000
  C   C1        1.0  0.5609776741026097  0.5596116573402056  0.3119324428842916  1.0000
  C   C2        1.0  0.12236293147199014  0.44066743040366413  0.8109988987243283  1.0000
  C   C3        1.0  0.43902684020454813  0.44039215918689917  0.6880939053267525  1.0000
  C   C4        1.0  0.8776225587838484  0.5593481685337025  0.1890010323963622  1.0000
  C   C5        1.0  0.8425741632042261  0.31289054569494107  0.2504649261070284  1.0000
  C   C6        1.0  0.15741843220767046  0.6871132821706283  0.7495268597172924  1.0000
  C   C7        1.0  0.7599537321912424  0.47809067565933105  0.2503877979686564  1.0000
  C   C8        1.0  0.24003413042122182  0.5219343376180846  0.7496172776058785  1.0000
  C   C9        1.0  0.855148229673809  0.7206036627654341  0.48629002673365546  1.0000
  C   C10       1.0  0.5759332923712249  0.2794062189310793  0.9856697637050046  1.0000
  C   C11       1.0  0.14485541033952395  0.2793978061978492  0.5137065692369518  1.0000
  C   C12       1.0  0.42407036589886365  0.7205870100919965  0.014330328292743394  1.0000
  C   C13       1.0  0.7374744603482669  0.7155780885129132  0.60785399591078  1.0000
  C   C14       1.0  0.452924890810017  0.2843458423332236  0.1070556828941918  1.0000
  C   C15       1.0  0.2625287990959464  0.2844186719798714  0.3921449306674559  1.0000
  C   C16       1.0  0.5470676787289932  0.7156497460225566  0.8929376042769945  1.0000
  C   C17       1.0  0.6333063787648002  0.8539700050931882  0.6843106706084471  1.0000
  C   C18       1.0  0.48740497765824403  0.14598517629870855  0.1835937447111533  1.0000
  C   C19       1.0  0.3666939192123523  0.14601851829400658  0.31568311140024713  1.0000
  C   C20       1.0  0.5125989150260326  0.8540104065292055  0.8164071766630556  1.0000
  C   C21       1.0  0.649750183568749  0.9922766113683464  0.6297040742074671  1.0000
  C   C22       1.0  0.642459523541227  0.007639246447716597  0.12913600020620208  1.0000
  C   C23       1.0  0.35024495476137213  0.007716622069636999  0.37028904546284025  1.0000
  C   C24       1.0  0.3575481161550231  0.992351626993482  0.8708647538985305  1.0000
  C   C25       1.0  0.7686617335351261  0.987977673987842  0.5064746467488277  1.0000
  C   C26       1.0  0.7572366860630096  0.011964650788918596  0.005976840298288343  1.0000
  C   C27       1.0  0.2313260469680003  0.012033216657314898  0.493522292814255  1.0000
  C   C28       1.0  0.24277651591420138  0.9880262208567742  0.9940232428773399  1.0000
  N   N1        1.0  0.392856658106922  0.6273813291386005  0.3618433392071622  1.0000
  N   N2        1.0  0.021937352475163197  0.3729951558339195  0.8607950342517015  1.0000
  N   N3        1.0  0.6071336978268818  0.372628378012628  0.6381803609230373  1.0000
  N   N4        1.0  0.9780742769460247  0.6269910058532985  0.13921652332506076  1.0000
  N   N5        1.0  0.9118872934805893  0.17476912286721807  0.2503240313028172  1.0000
  N   N6        1.0  0.08810865226625704  0.8252452944023149  0.7496807098484624  1.0000
  N   N7        1.0  0.8722257779458857  0.8538680065626281  0.4356468356545022  1.0000
  N   N8        1.0  0.7266365775720445  0.14610572352545148  0.9351898239590852  1.0000
  N   N9        1.0  0.1277737923820226  0.14613581884335503  0.5643451088485776  1.0000
  N   N10       1.0  0.2733702165347723  0.8538839735605848  0.06480910331335113  1.0000
