data_image0
_chemical_formula_structural       Cd4H14C12S2N10O12
_chemical_formula_sum              "Cd4 H14 C12 S2 N10 O12"
_cell_length_a       7.022727336052001
_cell_length_b       7.623128175838325
_cell_length_c       11.475543226741285
_cell_angle_alpha    102.35930048796715
_cell_angle_beta     90.00020278598986
_cell_angle_gamma    89.99956904351146

_space_group_name_H-M_alt    "P 1"
_space_group_IT_number       1

loop_
  _space_group_symop_operation_xyz
  'x, y, z'

loop_
  _atom_site_type_symbol
  _atom_site_label
  _atom_site_symmetry_multiplicity
  _atom_site_fract_x
  _atom_site_fract_y
  _atom_site_fract_z
  _atom_site_occupancy
  Cd  Cd1       1.0  0.7499999152127256  0.056033136841364205  0.8361657752761719  1.0000
  Cd  Cd2       1.0  0.2500005592508217  0.943967088157244  0.16383597869234737  1.0000
  Cd  Cd3       1.0  0.4999987974814956  0.499998284286768  0.9999995185224367  1.0000
  Cd  Cd4       1.0  7.43721273e-07  0.5000012268513815  0.9999993633124621  1.0000
  H   H1        1.0  0.749999881468632  0.39607772124907115  0.8190620391979384  1.0000
  H   H2        1.0  0.24999916904435784  0.6039224760200598  0.18093883959365095  1.0000
  H   H3        1.0  0.867395783744058  0.7019333885952294  0.7338917724854926  1.0000
  H   H4        1.0  0.36738954295707055  0.2980686594528379  0.2661069806690791  1.0000
  H   H5        1.0  0.1326018428160296  0.29806675321039217  0.26610735595318163  1.0000
  H   H6        1.0  0.6326080835928564  0.701934167620351  0.733892493584911  1.0000
  H   H7        1.0  0.043861572739878285  0.16495568921663312  0.6404965329238836  1.0000
  H   H8        1.0  0.5438717209642334  0.8350430310473343  0.3595002288040449  1.0000
  H   H9        1.0  0.956140325635566  0.8350567304175701  0.3595102779184531  1.0000
  H   H10       1.0  0.4561301774795082  0.16494354573664793  0.6404927946808956  1.0000
  H   H11       1.0  0.058105763869164696  0.2729559064498445  0.44908734817278184  1.0000
  H   H12       1.0  0.558115037649017  0.7270480931927992  0.550910123880364  1.0000
  H   H13       1.0  0.9418989823905759  0.7270577726069265  0.5509170100511159  1.0000
  H   H14       1.0  0.4418897086853021  0.27294262241954215  0.449086919033384  1.0000
  C   C1        1.0  0.9145885742198699  0.19152239848907024  0.5944273515590697  1.0000
  C   C2        1.0  0.4145959749480069  0.8084767176938643  0.40557286808051185  1.0000
  C   C3        1.0  0.0854104762923669  0.8084805949837489  0.40557737375180386  1.0000
  C   C4        1.0  0.5854030756271412  0.1915115900094619  0.5944325807740898  1.0000
  C   C5        1.0  0.9212435553112569  0.25326348884939165  0.4890028501331189  1.0000
  C   C6        1.0  0.4212719969330863  0.7467435295425702  0.5109949149967578  1.0000
  C   C7        1.0  0.0787469514718637  0.7467474495173223  0.510999411914135  1.0000
  C   C8        1.0  0.5787213577639604  0.2532549923026153  0.48899528877154824  1.0000
  C   C9        1.0  0.7500049516350556  0.2854347316607218  0.4340675450586177  1.0000
  C   C10       1.0  0.2500054904854991  0.7145629189745504  0.5659373638050839  1.0000
  C   C11       1.0  0.7499901290063561  0.35094298233726573  0.32342265864393493  1.0000
  C   C12       1.0  0.25000322569152184  0.6490611596493352  0.6765761133389179  1.0000
  S   S1        1.0  0.750001423428344  0.911855890524592  0.10327000335477272  1.0000
  S   S2        1.0  0.250000474988866  0.0881415937338303  0.8967296544473772  1.0000
  N   N1        1.0  0.7499918293082075  0.16052573343041127  0.6468987498418388  1.0000
  N   N2        1.0  0.25000579724952837  0.839474380641178  0.3530995034208433  1.0000
  N   N3        1.0  0.6558392837184925  0.4434346051374121  0.17060237923786306  1.0000
  N   N4        1.0  0.15584404032556168  0.5565675096180841  0.8293976737054866  1.0000
  N   N5        1.0  0.34415549496238634  0.5565629346118541  0.8293990289115957  1.0000
  N   N6        1.0  0.844150738332658  0.443435372932278  0.17060355089861198  1.0000
  N   N7        1.0  0.5924626978375184  0.3867432989781178  0.265029894894056  1.0000
  N   N8        1.0  0.0924707244265477  0.6132605362608601  0.7349693726028835  1.0000
  N   N9        1.0  0.40753777663618956  0.6132542407529302  0.7349715132591402  1.0000
  N   N10       1.0  0.907528326063783  0.38674500380935933  0.26503132264335255  1.0000
  O   O1        1.0  0.4206306065697375  0.0732824398554826  0.818706004918113  1.0000
  O   O2        1.0  0.920626175485168  0.9267164712936378  0.18128897158776885  1.0000
  O   O3        1.0  0.579372715758545  0.9267216188971262  0.18129014154330755  1.0000
  O   O4        1.0  0.07937572297267789  0.07327027189453619  0.8187093029531102  1.0000
  O   O5        1.0  0.7500016576949093  0.3638514359403189  0.8967162842407963  1.0000
  O   O6        1.0  0.2499988167639415  0.6361487335902256  0.10328371937573176  1.0000
  O   O7        1.0  0.7499994785310874  0.7725221654347367  0.7244406032011671  1.0000
  O   O8        1.0  0.24999814802391998  0.22747931900466511  0.2755586981451686  1.0000
  O   O9        1.0  0.7500005043596044  0.05626650706253861  0.034477602100501804  1.0000
  O   O10       1.0  0.25001563353460193  0.9437323197841039  0.9655222286186532  1.0000
  O   O11       1.0  0.2499985448722342  0.2688723311661221  0.9830067764498697  1.0000
  O   O12       1.0  0.7499976577552586  0.7311223846408693  0.016989910005250394  1.0000
