data_image0
_chemical_formula_structural       Zn2H28C28N8Cl4
_chemical_formula_sum              "Zn2 H28 C28 N8 Cl4"
_cell_length_a       7.653786053443829
_cell_length_b       8.89975075318673
_cell_length_c       11.00611519103671
_cell_angle_alpha    89.99982509251976
_cell_angle_beta     90.0002609743982
_cell_angle_gamma    97.2360464650387

_space_group_name_H-M_alt    "P 1"
_space_group_IT_number       1

loop_
  _space_group_symop_operation_xyz
  'x, y, z'

loop_
  _atom_site_type_symbol
  _atom_site_label
  _atom_site_symmetry_multiplicity
  _atom_site_fract_x
  _atom_site_fract_y
  _atom_site_fract_z
  _atom_site_occupancy
  Zn  Zn1       1.0  0.19485243167106597  0.802581295256452  0.5007763759005143  1.0000
  Zn  Zn2       1.0  0.8051470185449219  0.1974177259400775  0.0007742455683298999  1.0000
  H   H1        1.0  0.844587842147938  0.8599693035364736  0.0235035788330009  1.0000
  H   H2        1.0  0.1554119190329715  0.14003077969030636  0.5235008645620453  1.0000
  H   H3        1.0  0.6522654802692925  0.6276765660052207  0.8972841658279903  1.0000
  H   H4        1.0  0.34773410521933096  0.37232350181565005  0.39728286956365366  1.0000
  H   H5        1.0  0.4432841222402857  0.7797346483042273  0.74377534729188  1.0000
  H   H6        1.0  0.5567154929706389  0.22026362457762616  0.2437750940213945  1.0000
  H   H7        1.0  0.4892094773753756  0.18377457326145927  0.8334172338987784  1.0000
  H   H8        1.0  0.510789548191198  0.8162245603213876  0.33341899224723187  1.0000
  H   H9        1.0  0.3778776267567352  0.04672453176083018  0.7329503510819676  1.0000
  H   H10       1.0  0.6221209642504562  0.9532760465374321  0.2329539420750351  1.0000
  H   H11       1.0  0.6516153149232764  0.9356050626922894  0.5891487201929735  1.0000
  H   H12       1.0  0.34838405825352237  0.06439822103487099  0.0891490973738414  1.0000
  H   H13       1.0  0.8507912598064562  0.0376260755072551  0.4226645218895015  1.0000
  H   H14       1.0  0.1492060415864245  0.9623750591725726  0.9226661108523047  1.0000
  H   H15       1.0  0.943354750235329  0.3112422381417019  0.40469704631935605  1.0000
  H   H16       1.0  0.056643921412174246  0.6887600784453266  0.9046972007742653  1.0000
  H   H17       1.0  0.6324771283989536  0.38948984512207835  0.720315538256493  1.0000
  H   H18       1.0  0.3675239972626585  0.6105107593546037  0.22031553223032316  1.0000
  H   H19       1.0  0.7742984402958157  0.6020144710565701  0.6115268886775667  1.0000
  H   H20       1.0  0.22570559684741906  0.39798418648705786  0.11152786551913609  1.0000
  H   H21       1.0  0.9927350038370263  0.5597247984461404  0.5927958843911724  1.0000
  H   H22       1.0  0.007268134669850169  0.4402773217105746  0.09279515141740549  1.0000
  H   H23       1.0  0.642039529153351  0.4671449033267335  0.3531404886880054  1.0000
  H   H24       1.0  0.3579610947527883  0.5328552950850137  0.8531383557188476  1.0000
  H   H25       1.0  0.02276905269799554  0.8414224136804334  0.2361277239184787  1.0000
  H   H26       1.0  0.9772305162295253  0.15857588295915545  0.7361266754145319  1.0000
  H   H27       1.0  0.7323143294792728  0.6496702177449405  0.155600224344667  1.0000
  H   H28       1.0  0.2676834465604259  0.3503283355810324  0.6556000728575241  1.0000
  C   C1        1.0  0.7463835929365247  0.8646581289606485  0.9530775507060482  1.0000
  C   C2        1.0  0.25361519805937155  0.13534290471196894  0.4530756328096075  1.0000
  C   C3        1.0  0.64783710129236  0.7485341126235595  0.8875775869510178  1.0000
  C   C4        1.0  0.3521624254505725  0.2514659853520698  0.38757478701892717  1.0000
  C   C5        1.0  0.5414250153393283  0.8219940689558667  0.8109244851188251  1.0000
  C   C6        1.0  0.4585737006699375  0.17800400187419999  0.3109231150317129  1.0000
  C   C7        1.0  0.5080727271354277  0.094891095332855  0.7673513746244325  1.0000
  C   C8        1.0  0.4919257251890414  0.9051071108492933  0.26735194406422375  1.0000
  C   C9        1.0  0.6280956725586648  0.1567096435696342  0.6651801073540824  1.0000
  C   C10       1.0  0.37190642499717086  0.8432911256450026  0.1651777214917871  1.0000
  C   C11       1.0  0.6900545805201901  0.05750978601614069  0.5814159867195484  1.0000
  C   C12       1.0  0.3099471835574548  0.9424923760279212  0.0814158833272955  1.0000
  C   C13       1.0  0.8027287806606935  0.11420430710226981  0.48841870492522316  1.0000
  C   C14       1.0  0.1972731821942162  0.885798868968557  0.9884170024897471  1.0000
  C   C15       1.0  0.8553262474829069  0.2694975757418163  0.47849138795765356  1.0000
  C   C16       1.0  0.14467678743043416  0.73050449199998  0.9784899025105673  1.0000
  C   C17       1.0  0.7940553781348926  0.37005078573713485  0.5612260802989225  1.0000
  C   C18       1.0  0.2059472224643386  0.6299491672296539  0.06122551094449589  1.0000
  C   C19       1.0  0.6794439643518899  0.3126337267452896  0.6539925791060952  1.0000
  C   C20       1.0  0.3205584123616775  0.6873693424782275  0.15399132435802437  1.0000
  C   C21       1.0  0.8581617992225787  0.5372606795827577  0.5561169974283402  1.0000
  C   C22       1.0  0.14184207602233553  0.46273928271660475  0.056116637885473594  1.0000
  C   C23       1.0  0.7485871581709561  0.5578749019934718  0.3409600449056072  1.0000
  C   C24       1.0  0.2514119130302035  0.442124208164678  0.8409577969713452  1.0000
  C   C25       1.0  0.9448519529682998  0.7488714681412176  0.283048679365443  1.0000
  C   C26       1.0  0.0551454622102909  0.2511278284489933  0.7830471873722686  1.0000
  C   C27       1.0  0.7968560542650353  0.6526124811672602  0.243191629269127  1.0000
  C   C28       1.0  0.20314242527836512  0.34738693269481746  0.7431912792850852  1.0000
  N   N1        1.0  0.7047684687733948  0.0005838899324004  0.9181079956505371  1.0000
  N   N2        1.0  0.29523272172993825  0.9994172392909418  0.4181077043297279  1.0000
  N   N3        1.0  0.5780290916810102  0.9724502691590049  0.8318309164293395  1.0000
  N   N4        1.0  0.42197122984332935  0.027548862816701096  0.3318307109258285  1.0000
  N   N5        1.0  0.8642272311288439  0.596484072406838  0.4319695869027314  1.0000
  N   N6        1.0  0.1357738698276094  0.40351588113013986  0.931967974489993  1.0000
  N   N7        1.0  0.9853569299259985  0.7139448945336753  0.39777137351386216  1.0000
  N   N8        1.0  0.014642311652124776  0.2860529065165735  0.8977696658600038  1.0000
  Cl  Cl1       1.0  0.392124626603973  0.6367386523388132  0.5199598678448325  1.0000
  Cl  Cl2       1.0  0.607874592854607  0.3632580440044677  0.0199603320537278  1.0000
  Cl  Cl3       1.0  0.08740424804016553  0.8734333367924093  0.6788752886269619  1.0000
  Cl  Cl4       1.0  0.9125936688511871  0.12656514423298398  0.1788745849800222  1.0000
