data_image0
_chemical_formula_structural       Dy2H40C42N8O18
_chemical_formula_sum              "Dy2 H40 C42 N8 O18"
_cell_length_a       9.873642359756268
_cell_length_b       11.475694866049194
_cell_length_c       13.49655294648455
_cell_angle_alpha    67.09743110972143
_cell_angle_beta     86.18196709549792
_cell_angle_gamma    76.30018634859789

_space_group_name_H-M_alt    "P 1"
_space_group_IT_number       1

loop_
  _space_group_symop_operation_xyz
  'x, y, z'

loop_
  _atom_site_type_symbol
  _atom_site_label
  _atom_site_symmetry_multiplicity
  _atom_site_fract_x
  _atom_site_fract_y
  _atom_site_fract_z
  _atom_site_occupancy
  Dy  Dy1       1.0  0.23731912121162677  0.027211836632680803  0.002757375861420997  1.0000
  Dy  Dy2       1.0  0.7626808773312065  0.9727855344153723  0.9972419564474391  1.0000
  H   H1        1.0  0.9933652780348583  0.6302299805237155  0.4565532643771917  1.0000
  H   H2        1.0  0.006648439133044815  0.3697772328134974  0.5434503116567058  1.0000
  H   H3        1.0  0.03543454545492617  0.7502355460327121  0.26320337643729635  1.0000
  H   H4        1.0  0.9645700864960677  0.24977160767982554  0.7367969111914617  1.0000
  H   H5        1.0  0.4512492454508745  0.5063676550198579  0.31457484380270273  1.0000
  H   H6        1.0  0.5487506846687255  0.4936305305476407  0.6854101391778329  1.0000
  H   H7        1.0  0.2939010471185597  0.33689940752906716  0.6668235784464613  1.0000
  H   H8        1.0  0.7061058121336503  0.663115438218881  0.3331658756656283  1.0000
  H   H9        1.0  0.703788668810418  0.083823131115679  0.7065353533656732  1.0000
  H   H10       1.0  0.2962095420473151  0.9161732640043282  0.29346438499676003  1.0000
  H   H11       1.0  0.730577006926474  0.19181164278924004  0.507176719994213  1.0000
  H   H12       1.0  0.2694384670679782  0.8081926403658667  0.4928262823864031  1.0000
  H   H13       1.0  0.32570257708800915  0.10871932775226872  0.5425743094435304  1.0000
  H   H14       1.0  0.6742874395963909  0.8912975453267575  0.4574255717588828  1.0000
  H   H15       1.0  0.2570941631398185  0.0687158366813705  0.7335951180652104  1.0000
  H   H16       1.0  0.7429128151995459  0.9312777252444843  0.266411117885504  1.0000
  H   H17       1.0  0.8990975303595052  0.9539342361340243  0.6671677677235621  1.0000
  H   H18       1.0  0.1009163443029735  0.046043790057012805  0.3328441304819236  1.0000
  H   H19       1.0  0.22103291858946517  0.14694957533392028  0.20240814026180226  1.0000
  H   H20       1.0  0.7789402666278634  0.8530614465985877  0.7975959241277834  1.0000
  H   H21       1.0  0.5037932015372989  0.36349706699800066  0.11332728820707424  1.0000
  H   H22       1.0  0.4961990927146546  0.6364905401607713  0.8866734393906768  1.0000
  H   H23       1.0  0.34725071291870085  0.4866844214299276  0.08507973912097101  1.0000
  H   H24       1.0  0.6527475525524125  0.5133119239971079  0.9149155677136703  1.0000
  H   H25       1.0  0.3880955979702635  0.3859187814586633  0.007575082726688732  1.0000
  H   H26       1.0  0.6118900500287909  0.6140668926192133  0.9924288075870037  1.0000
  H   H27       1.0  0.23512032796749344  0.3877937960436455  0.2683994998736239  1.0000
  H   H28       1.0  0.7648710969496265  0.6122133479242889  0.7316028492589268  1.0000
  H   H29       1.0  0.4047898652055082  0.285563072765818  0.3069429447673784  1.0000
  H   H30       1.0  0.5951974707517138  0.7144401569969077  0.6930594165586542  1.0000
  H   H31       1.0  0.2569629236699527  0.2150225350651666  0.32275732360469084  1.0000
  H   H32       1.0  0.7430218858528123  0.7849865819320242  0.6772483558435171  1.0000
  H   H33       1.0  0.04686061321332599  0.277681537159296  0.965014514597378  1.0000
  H   H34       1.0  0.9531444726087985  0.7223118964866159  0.03498073243045502  1.0000
  H   H35       1.0  0.9614203723476037  0.20789397309403776  0.9173710822727017  1.0000
  H   H36       1.0  0.03857858991356984  0.7920994815379314  0.08262738879677317  1.0000
  H   H37       1.0  0.49223787041036365  0.8888807930743212  0.9378734748562964  1.0000
  H   H38       1.0  0.507758226322352  0.11112823023401572  0.0621213699291161  1.0000
  H   H39       1.0  0.406784066167802  0.785518947689134  0.007928612023143109  1.0000
  H   H40       1.0  0.5932170814352986  0.21448617134569764  0.9920651018331057  1.0000
  C   C1        1.0  0.28352428270748226  0.709884856874666  0.1592991184778541  1.0000
  C   C2        1.0  0.7164735217887781  0.2901173467057205  0.840696462230504  1.0000
  C   C3        1.0  0.0944973829279051  0.6054412604889519  0.4227474011743126  1.0000
  C   C4        1.0  0.9055148334316315  0.39456396362889007  0.5772532041303151  1.0000
  C   C5        1.0  0.11761690645030858  0.6729430035193288  0.31449809466916184  1.0000
  C   C6        1.0  0.8823882537430029  0.3270621650213598  0.6854991323337245  1.0000
  C   C7        1.0  0.24807232991443592  0.6378575568249615  0.27378389955537596  1.0000
  C   C8        1.0  0.7519300154143524  0.3621427110894473  0.7262121336737478  1.0000
  C   C9        1.0  0.3482916771230579  0.5359074809415246  0.34304922557215894  1.0000
  C   C10       1.0  0.6517112455110522  0.4640946913468725  0.6569424374548801  1.0000
  C   C11       1.0  0.31487019133627564  0.4720807740613324  0.4502200352744481  1.0000
  C   C12       1.0  0.6851375534567126  0.5279223885085642  0.549771825442086  1.0000
  C   C13       1.0  0.4184217784330926  0.36089507668503273  0.5248777927499475  1.0000
  C   C14       1.0  0.5815892457511326  0.6391110593144305  0.47511737123024733  1.0000
  C   C15       1.0  0.39224521126369893  0.30225674370123556  0.6346743758604063  1.0000
  C   C16       1.0  0.6077620143892091  0.6977483957583387  0.3653198068940213  1.0000
  C   C17       1.0  0.49502157719691536  0.1999484775731659  0.7011172661365279  1.0000
  C   C18       1.0  0.5049782654522519  0.8000537217725846  0.29887748608726383  1.0000
  C   C19       1.0  0.6202802954454115  0.16046321189615753  0.6558401377495925  1.0000
  C   C20       1.0  0.37972225484003996  0.8395361172663769  0.3441591659883727  1.0000
  C   C21       1.0  0.6353364775991112  0.2222904760957646  0.545403503675395  1.0000
  C   C22       1.0  0.36467296385667675  0.7777137452237923  0.4545953368672144  1.0000
  C   C23       1.0  0.47302250241919813  0.12990645376221008  0.8187839247162001  1.0000
  C   C24       1.0  0.5269781169415851  0.8701006504444635  0.18121284976591312  1.0000
  C   C25       1.0  0.021332922834893988  0.9881651393513875  0.8268224219764235  1.0000
  C   C26       1.0  0.9786732024231596  0.0118196530142072  0.1731853170560811  1.0000
  C   C27       1.0  0.23161653263355933  0.0733329725214489  0.5733183980825629  1.0000
  C   C28       1.0  0.7683799558080298  0.9266741898474606  0.4266844648964678  1.0000
  C   C29       1.0  0.19454467909753254  0.051088334029088876  0.6797322175625877  1.0000
  C   C30       1.0  0.8054620487740181  0.9489062080594478  0.32027444081911227  1.0000
  C   C31       1.0  0.07226715185836953  0.007821316180695698  0.71523867460683  1.0000
  C   C32       1.0  0.927742289199827  0.9921664164858225  0.28476941333747874  1.0000
  C   C33       1.0  0.9948960580931046  0.9872746176190076  0.6434913228547715  1.0000
  C   C34       1.0  0.0051151215871812015  0.012710201429726498  0.3565176686121773  1.0000
  C   C35       1.0  0.040572711375936904  0.011002779017303501  0.5386393041771456  1.0000
  C   C36       1.0  0.9594325283413314  0.9889936965263431  0.4613660282509289  1.0000
  C   C37       1.0  0.2729396919373173  0.21235039281786064  0.1369500275917446  1.0000
  C   C38       1.0  0.7270399650372071  0.7876509184045304  0.863057018574459  1.0000
  C   C39       1.0  0.3938586574740768  0.38883077096339486  0.08723995683926944  1.0000
  C   C40       1.0  0.6061286258682728  0.611164638296863  0.9127613306993894  1.0000
  C   C41       1.0  0.3034532252727829  0.2956117832844924  0.27154873287481246  1.0000
  C   C42       1.0  0.6965333501787683  0.7043943952484283  0.7284556343321427  1.0000
  N   N1        1.0  0.18972366021006337  0.5070764291254263  0.48984433486874224  1.0000
  N   N2        1.0  0.8102893475136883  0.4929297523323725  0.5101544321546783  1.0000
  N   N3        1.0  0.5374958592951274  0.3197539212177674  0.4806642504231887  1.0000
  N   N4        1.0  0.4625169126134097  0.6802492928817543  0.5193310784916818  1.0000
  N   N5        1.0  0.15753208960354928  0.0546294150434079  0.5033959179035107  1.0000
  N   N6        1.0  0.8424643988380399  0.9453777473255014  0.4966069450755128  1.0000
  N   N7        1.0  0.32133762884568995  0.2955898270113408  0.16346332918153192  1.0000
  N   N8        1.0  0.6786443167495478  0.7044104998137399  0.8365424660691331  1.0000
  O   O1        1.0  0.3969124418334147  0.6664205651562228  0.12370956942091746  1.0000
  O   O2        1.0  0.6030874589809941  0.33358551545320125  0.8762831346386831  1.0000
  O   O3        1.0  0.19447566365126792  0.8152940154214502  0.10378997466801837  1.0000
  O   O4        1.0  0.8055208449932961  0.18470526018769823  0.8962059058199046  1.0000
  O   O5        1.0  0.5796040638970512  0.052117768441775084  0.8762726461192399  1.0000
  O   O6        1.0  0.42039396020847164  0.9478795488657851  0.12372234455842356  1.0000
  O   O7        1.0  0.3506342303744816  0.1465387587229401  0.8535267189487783  1.0000
  O   O8        1.0  0.6493681493647047  0.8534693462582652  0.1464718652436617  1.0000
  O   O9        1.0  0.9025752564853777  0.9614957714515455  0.8496542471987566  1.0000
  O   O10       1.0  0.097428634765329  0.03848995561839529  0.15035031122150846  1.0000
  O   O11       1.0  0.09818176956604671  0.0015891634238939995  0.8911587903879976  1.0000
  O   O12       1.0  0.9018203375514205  0.998399518674638  0.1088485574494415  1.0000
  O   O13       1.0  0.05579021362791539  0.22251583390755064  0.9245735241269273  1.0000
  O   O14       1.0  0.9442084946135838  0.7774746699304628  0.075422986009933  1.0000
  O   O15       1.0  0.3986953300005923  0.8718116908049038  0.9452304952867934  1.0000
  O   O16       1.0  0.6013030062898393  0.1281924585602781  0.05476440815930061  1.0000
  O   O17       1.0  0.28226037125565284  0.20585664840836426  0.04554782173138958  1.0000
  O   O18       1.0  0.7177245324436756  0.7941398280708183  0.9544621026024628  1.0000
