data_image0
_chemical_formula_structural       Ag4H24C32S4N28O12
_chemical_formula_sum              "Ag4 H24 C32 S4 N28 O12"
_cell_length_a       3.888801896693565
_cell_length_b       12.975057631163528
_cell_length_c       23.18771088902736
_cell_angle_alpha    89.99964146004189
_cell_angle_beta     94.0457824102024
_cell_angle_gamma    90.0004740615876

_space_group_name_H-M_alt    "P 1"
_space_group_IT_number       1

loop_
  _space_group_symop_operation_xyz
  'x, y, z'

loop_
  _atom_site_type_symbol
  _atom_site_label
  _atom_site_symmetry_multiplicity
  _atom_site_fract_x
  _atom_site_fract_y
  _atom_site_fract_z
  _atom_site_occupancy
  Ag  Ag1       1.0  0.5886222735096496  0.8365539974115067  0.7320745831299788  1.0000
  Ag  Ag2       1.0  0.9113987828418857  0.33656027130453486  0.7679254114636508  1.0000
  Ag  Ag3       1.0  0.41136968955262887  0.16344260105892525  0.2679242174559064  1.0000
  Ag  Ag4       1.0  0.0886061368946116  0.6634409514260188  0.2320756874611192  1.0000
  H   H1        1.0  0.17716900873104172  0.6250690640946388  0.7676307943751227  1.0000
  H   H2        1.0  0.3228128298239028  0.12507012129376704  0.7323695080638545  1.0000
  H   H3        1.0  0.8228229006424638  0.37493524148024443  0.23236628053376757  1.0000
  H   H4        1.0  0.6771507363092508  0.8749295599883881  0.2676276874847332  1.0000
  H   H5        1.0  0.36133044910780393  0.8944008765821467  0.8664487098822846  1.0000
  H   H6        1.0  0.13870496197505128  0.3944064364891063  0.6335542621162418  1.0000
  H   H7        1.0  0.6386822579835324  0.10559572189101374  0.1335541994737852  1.0000
  H   H8        1.0  0.8613077183630296  0.6056009519216518  0.3664477843902745  1.0000
  H   H9        1.0  0.0058401570608808025  0.9255720564120441  0.9550096706525011  1.0000
  H   H10       1.0  0.49415200701182016  0.42557101060436514  0.5449849561578972  1.0000
  H   H11       1.0  0.9941491878241918  0.07442762490048692  0.0449878074268639  1.0000
  H   H12       1.0  0.5058140831862588  0.5744271292714417  0.4550105419815367  1.0000
  H   H13       1.0  0.7869981242757191  0.883485737806126  0.05913403177633819  1.0000
  H   H14       1.0  0.7129809333726058  0.3834757121938496  0.44086125973614537  1.0000
  H   H15       1.0  0.2129989945774398  0.11651394350833041  0.9408648253107827  1.0000
  H   H16       1.0  0.2869955489707649  0.616519344841784  0.5591369399175505  1.0000
  H   H17       1.0  0.39279930648688577  0.47593205158740676  0.1449206701615893  1.0000
  H   H18       1.0  0.10720027843129289  0.9759306131968021  0.3550809962385699  1.0000
  H   H19       1.0  0.6072004440517275  0.524069171139466  0.8550799408408452  1.0000
  H   H20       1.0  0.8928020095893742  0.024066755992869608  0.6449183487745672  1.0000
  H   H21       1.0  0.39896329662260394  0.798980440187478  0.1261765826799817  1.0000
  H   H22       1.0  0.10100581984462308  0.2989770527657072  0.37382407124447775  1.0000
  H   H23       1.0  0.6010467788744049  0.20102155325862733  0.8738245727497115  1.0000
  H   H24       1.0  0.8989835250100737  0.7010203164183649  0.6261734068385749  1.0000
  C   C1        1.0  0.1705255663931737  0.6806108101767737  0.8025799315806879  1.0000
  C   C2        1.0  0.3294629410238486  0.18061073345466377  0.6974219759077586  1.0000
  C   C3        1.0  0.8294715256054771  0.3193919539804143  0.19741806266916478  1.0000
  C   C4        1.0  0.6705058481174574  0.8193904892405546  0.3025774332254016  1.0000
  C   C5        1.0  0.26706032442581307  0.8193738140951937  0.8518949477456061  1.0000
  C   C6        1.0  0.23296532794724814  0.319380215560095  0.6481064530897171  1.0000
  C   C7        1.0  0.7329445818125533  0.18062355509032102  0.1481057197691342  1.0000
  C   C8        1.0  0.7670370005273098  0.6806256314267359  0.3518941861584253  1.0000
  C   C9        1.0  0.9696344232534455  0.7610022091009443  0.9378290268474813  1.0000
  C   C10       1.0  0.5303692075663164  0.2610021334700575  0.5621719020055734  1.0000
  C   C11       1.0  0.030360184982285394  0.23899901361745898  0.0621719590649761  1.0000
  C   C12       1.0  0.46962796508697824  0.7389983185442972  0.4378286807450209  1.0000
  C   C13       1.0  0.944405239761835  0.8490686562822846  0.9704348864424189  1.0000
  C   C14       1.0  0.5555876810007873  0.3490597595037458  0.5295613061527717  1.0000
  C   C15       1.0  0.05558675023594619  0.15093102502129344  0.029564776970893502  1.0000
  C   C16       1.0  0.4443913658310236  0.6509399217942401  0.4704364903304565  1.0000
  C   C17       1.0  0.8200438133483556  0.8271178181589252  0.0252074171278736  1.0000
  C   C18       1.0  0.6799390265499952  0.32710501889555144  0.4747915619824568  1.0000
  C   C19       1.0  0.17995591030537375  0.1728841752822277  0.9747923310409875  1.0000
  C   C20       1.0  0.3200580922626557  0.6728915795809554  0.5252072951095813  1.0000
  C   C21       1.0  0.7512288919906212  0.7236021679953596  0.030992294568122202  1.0000
  C   C22       1.0  0.7487539270532224  0.22359499898498578  0.4690109256443407  1.0000
  C   C23       1.0  0.2487708719549957  0.2763959718911694  0.9690087478554048  1.0000
  C   C24       1.0  0.251238089768691  0.7763992873473955  0.530989600609928  1.0000
  C   C25       1.0  0.4453696310258123  0.552327243578617  0.12875527601966752  1.0000
  C   C26       1.0  0.0546265170860494  0.052322228579619406  0.3712465317769542  1.0000
  C   C27       1.0  0.5546352618561768  0.44767706199466784  0.8712449600678411  1.0000
  C   C28       1.0  0.9453757978397445  0.9476759113147469  0.628753676067305  1.0000
  C   C29       1.0  0.4412495261548769  0.7172090180225936  0.12059982409059701  1.0000
  C   C30       1.0  0.0587251754150557  0.2172046926767592  0.3794011753644853  1.0000
  C   C31       1.0  0.5587501974887275  0.2827922047090752  0.8793999240794933  1.0000
  C   C32       1.0  0.9412693789901636  0.7827934472132868  0.6205980848881865  1.0000
  S   S1        1.0  0.8422093606270592  0.6502339521145972  0.9718415550833583  1.0000
  S   S2        1.0  0.6577863250480359  0.15023149003845762  0.5281635532540108  1.0000
  S   S3        1.0  0.15779295431898527  0.3497657291987366  0.0281586527584423  1.0000
  S   S4        1.0  0.34221860811571486  0.8497681912707196  0.4718379770893861  1.0000
  N   N1        1.0  0.3207439656917757  0.7761681912288555  0.801058895789602  1.0000
  N   N2        1.0  0.17926507074316322  0.2761723493984718  0.6989420418978297  1.0000
  N   N3        1.0  0.6792583492745192  0.22383303150345313  0.19894131204974028  1.0000
  N   N4        1.0  0.8207269058577393  0.7238311854549409  0.301057190093168  1.0000
  N   N5        1.0  0.025820698632827502  0.6627476230195201  0.8515658939996129  1.0000
  N   N6        1.0  0.47416989044863556  0.162749994515238  0.6484352358715455  1.0000
  N   N7        1.0  0.974173842345138  0.3372520582918952  0.1484329348344318  1.0000
  N   N8        1.0  0.5258065919656116  0.837250457486796  0.35156296377355284  1.0000
  N   N9        1.0  0.08842215976608969  0.7516735291198274  0.8825665867777773  1.0000
  N   N10       1.0  0.4115862868507207  0.25167609229788473  0.6174361546906226  1.0000
  N   N11       1.0  0.9115801417223321  0.248325381486417  0.117433189649077  1.0000
  N   N12       1.0  0.5884031253224931  0.7483274425500925  0.3825634804634674  1.0000
  N   N13       1.0  0.6060499658701487  0.6746801747612852  0.0771012964983129  1.0000
  N   N14       1.0  0.8939418657926766  0.17467079870312574  0.42290176132653556  1.0000
  N   N15       1.0  0.39394978468871494  0.32532258938455544  0.9228993145016701  1.0000
  N   N16       1.0  0.10606046257050389  0.8253265704793549  0.5770988779351214  1.0000
  N   N17       1.0  0.6096183097482636  0.5692910268327722  0.0815848130627046  1.0000
  N   N18       1.0  0.8903862335875413  0.06928400423200291  0.4184191817800951  1.0000
  N   N19       1.0  0.3903866234256128  0.43070942518589556  0.9184167172794631  1.0000
  N   N20       1.0  0.10962382839108638  0.9307125942501031  0.5815815422420273  1.0000
  N   N21       1.0  0.33829022315384794  0.6411558611819499  0.154177033177767  1.0000
  N   N22       1.0  0.16169538300261618  0.14115370817096112  0.34582478148971063  1.0000
  N   N23       1.0  0.6617146696876401  0.35884536155339225  0.8458232029146515  1.0000
  N   N24       1.0  0.8382991848096067  0.8588413488787411  0.6541749101840537  1.0000
  N   N25       1.0  0.9040985862968682  0.04985450447114201  0.8193182625398309  1.0000
  N   N26       1.0  0.5959123591919704  0.5498549893442117  0.6806826180975492  1.0000
  N   N27       1.0  0.09592709084532199  0.9501413232933302  0.18068737657989692  1.0000
  N   N28       1.0  0.4041182317771614  0.45015085769279756  0.3193153120212315  1.0000
  O   O1        1.0  0.8711915765117907  0.009531994039107903  0.7692737874721941  1.0000
  O   O2        1.0  0.6288080652703626  0.5095335419537009  0.7307292658209477  1.0000
  O   O3        1.0  0.1288289582971487  0.9904615215884365  0.23073222656124406  1.0000
  O   O4        1.0  0.3712069910784805  0.4904622858537522  0.2692663377144697  1.0000
  O   O5        1.0  0.7724933755464816  0.007439647107865701  0.862056865449631  1.0000
  O   O6        1.0  0.727524269779927  0.5074370828462946  0.6379468237103012  1.0000
  O   O7        1.0  0.2275452312939237  0.9925546392456329  0.1379502091864708  1.0000
  O   O8        1.0  0.27252950872979637  0.492577242024801  0.3620509292564833  1.0000
  O   O9        1.0  0.0707487593703817  0.13344920597533874  0.8265979712245296  1.0000
  O   O10       1.0  0.42926419349304  0.6334475158152347  0.6734013492828836  1.0000
  O   O11       1.0  0.9292510449582423  0.8665520167419487  0.17340436544260032  1.0000
  O   O12       1.0  0.5707587176101541  0.366556019074622  0.3265982217450443  1.0000
