data_image0
_chemical_formula_structural       Cu4H16C24N16O8
_chemical_formula_sum              "Cu4 H16 C24 N16 O8"
_cell_length_a       5.907148681155016
_cell_length_b       10.157872895330026
_cell_length_c       12.457333102501703
_cell_angle_alpha    90.00399193789488
_cell_angle_beta     90.00036403971312
_cell_angle_gamma    89.99941764446103

_space_group_name_H-M_alt    "P 1"
_space_group_IT_number       1

loop_
  _space_group_symop_operation_xyz
  'x, y, z'

loop_
  _atom_site_type_symbol
  _atom_site_label
  _atom_site_symmetry_multiplicity
  _atom_site_fract_x
  _atom_site_fract_y
  _atom_site_fract_z
  _atom_site_occupancy
  Cu  Cu1       1.0  0.20678200537952307  0.1889693959222143  0.9873366305198203  1.0000
  Cu  Cu2       1.0  0.29331396187465236  0.8110417022702379  0.48733101565022713  1.0000
  Cu  Cu3       1.0  0.7932329060972734  0.688992693694665  0.5126755936900338  1.0000
  Cu  Cu4       1.0  0.7067790544408795  0.31100194877360815  0.012649914218251002  1.0000
  H   H1        1.0  0.21690246530567237  0.9705115281334427  0.2812536365956575  1.0000
  H   H2        1.0  0.28311964128164385  0.0294821024110306  0.7812567710658059  1.0000
  H   H3        1.0  0.7831360683521568  0.47052705871860195  0.21874605962732832  1.0000
  H   H4        1.0  0.7168668026764635  0.529487021750576  0.7187631771421154  1.0000
  H   H5        1.0  0.6783568108794996  0.24521495449072006  0.3447720442059605  1.0000
  H   H6        1.0  0.8217120775287939  0.7547428651921635  0.8447943509637954  1.0000
  H   H7        1.0  0.3216879388218459  0.7452913159994096  0.1552235823938801  1.0000
  H   H8        1.0  0.17835956467651934  0.25478515406052077  0.6551991636446958  1.0000
  H   H9        1.0  0.7100895550006926  0.1841513181345675  0.5412008300996122  1.0000
  H   H10       1.0  0.7898550732576198  0.8158516507075644  0.04120993002781861  1.0000
  H   H11       1.0  0.2898390810710438  0.6841453620673833  0.958803089837069  1.0000
  H   H12       1.0  0.2100855245122872  0.31586823942159004  0.4587728821439754  1.0000
  H   H13       1.0  0.9928416062064613  0.0148345928428881  0.5948603822630005  1.0000
  H   H14       1.0  0.5071037406847267  0.9851670165949216  0.0948454135944417  1.0000
  H   H15       1.0  0.0071010076126825  0.5148163864419644  0.9051812031541646  1.0000
  H   H16       1.0  0.49282118689114907  0.48518774763030587  0.4051519108865804  1.0000
  C   C1        1.0  0.10359017468112341  0.020503407308055395  0.3367863109695506  1.0000
  C   C2        1.0  0.3964394472176806  0.9794929614035933  0.8367887997520782  1.0000
  C   C3        1.0  0.8964184630708658  0.5204894611582984  0.16320688059730767  1.0000
  C   C4        1.0  0.6035751997921394  0.4795031757662115  0.663221597773152  1.0000
  C   C5        1.0  0.9512656395954623  0.11516212923899621  0.2993095635382161  1.0000
  C   C6        1.0  0.5487704752097359  0.8848262929860836  0.7993304687365497  1.0000
  C   C7        1.0  0.04870117996486561  0.6151627008310143  0.20067941609324447  1.0000
  C   C8        1.0  0.45127244708047703  0.3848359136471372  0.7006825351672248  1.0000
  C   C9        1.0  0.8032671161545223  0.1741003838284882  0.372726420686341  1.0000
  C   C10       1.0  0.6967564392435152  0.8258676807433291  0.8727379742794383  1.0000
  C   C11       1.0  0.1967311272660339  0.6741310219559652  0.12728600342884283  1.0000
  C   C12       1.0  0.30328045198195497  0.32591354595530925  0.6272507831716965  1.0000
  C   C13       1.0  0.8191860554342727  0.1399304233584431  0.48073172974632433  1.0000
  C   C14       1.0  0.6807847747922721  0.8600684538240769  0.9807299408386285  1.0000
  C   C15       1.0  0.18077537450096773  0.6399333227204168  0.0192843559708322  1.0000
  C   C16       1.0  0.3191670435761722  0.36009027721413395  0.5192455222283385  1.0000
  C   C17       1.0  0.9768280545176252  0.045226258435611996  0.511377870196938  1.0000
  C   C18       1.0  0.5231568028383009  0.954777134776812  0.011364420489648802  1.0000
  C   C19       1.0  0.0231581916899728  0.5452199282171648  0.9886413737910617  1.0000
  C   C20       1.0  0.4768074424090898  0.45479128046022765  0.4886215307177011  1.0000
  C   C21       1.0  0.949742738809107  0.15272313510219246  0.18285312617824453  1.0000
  C   C22       1.0  0.5502952017810047  0.8472632916143394  0.6828758986962244  1.0000
  C   C23       1.0  0.0502185301749662  0.6527247060230579  0.3171291742484641  1.0000
  C   C24       1.0  0.4497431139863152  0.3472503076157949  0.8171325453036291  1.0000
  N   N1        1.0  0.113814789422392  0.9847135664167013  0.44044927787233235  1.0000
  N   N2        1.0  0.3861738993872166  0.0152866666185147  0.9404430797202609  1.0000
  N   N3        1.0  0.8861880157984531  0.48470694696857203  0.059552033676460815  1.0000
  N   N4        1.0  0.6137754798887728  0.5152808415795747  0.5595624086478567  1.0000
  N   N5        1.0  0.8822666446200458  0.17484327748216796  0.928482752719944  1.0000
  N   N6        1.0  0.617730571451176  0.8251944879264955  0.42850390899202045  1.0000
  N   N7        1.0  0.1177501374603267  0.6748057970466022  0.5715101978054165  1.0000
  N   N8        1.0  0.38226408118822525  0.3251306758102571  0.0714938852934708  1.0000
  N   N9        1.0  0.8592905081553753  0.16530579310506974  0.8322299011692067  1.0000
  N   N10       1.0  0.6406834112502436  0.8347454716730522  0.3322492649709404  1.0000
  N   N11       1.0  0.14072131534508261  0.665247748460409  0.667770530000148  1.0000
  N   N12       1.0  0.35930265696099895  0.334692945425722  0.1677434573776253  1.0000
  N   N13       1.0  0.8348924109822916  0.1530435115081303  0.7401616532592501  1.0000
  N   N14       1.0  0.6650768896583513  0.8469645086062982  0.24017697509340513  1.0000
  N   N15       1.0  0.16515003772529013  0.653042308551953  0.7598300499889562  1.0000
  N   N16       1.0  0.33492087463746145  0.34698002326037164  0.259814040718922  1.0000
  O   O1        1.0  0.10947768472714611  0.10717691945220756  0.1248172679590809  1.0000
  O   O2        1.0  0.3905186266772843  0.8927985307915377  0.6248669531301658  1.0000
  O   O3        1.0  0.8905044707884427  0.607210519123164  0.37518008551181486  1.0000
  O   O4        1.0  0.6094632526387684  0.3927941780039106  0.8751778136697794  1.0000
  O   O5        1.0  0.7910241996608463  0.22943540196898476  0.15347319273092813  1.0000
  O   O6        1.0  0.7090438187278209  0.7705859438033613  0.6534984736143559  1.0000
  O   O7        1.0  0.2090088985151013  0.7294185704617959  0.3464741659114807  1.0000
  O   O8        1.0  0.29103270369413536  0.27053235114448165  0.8465071838639705  1.0000
