data_image0
_chemical_formula_structural       Cd4H28C32S8N12O4
_chemical_formula_sum              "Cd4 H28 C32 S8 N12 O4"
_cell_length_a       7.438330188246792
_cell_length_b       7.712979471006572
_cell_length_c       19.84068638207822
_cell_angle_alpha    89.99990078097643
_cell_angle_beta     99.34589615455133
_cell_angle_gamma    89.99990554664879

_space_group_name_H-M_alt    "P 1"
_space_group_IT_number       1

loop_
  _space_group_symop_operation_xyz
  'x, y, z'

loop_
  _atom_site_type_symbol
  _atom_site_label
  _atom_site_symmetry_multiplicity
  _atom_site_fract_x
  _atom_site_fract_y
  _atom_site_fract_z
  _atom_site_occupancy
  Cd  Cd1       1.0  0.3084314867841514  0.32465273159478863  0.4808376838417132  1.0000
  Cd  Cd2       1.0  0.6915711819667582  0.8246534877215905  0.019162532745511406  1.0000
  Cd  Cd3       1.0  0.6915664119700298  0.67534820513859  0.519162756894019  1.0000
  Cd  Cd4       1.0  0.3084321491728233  0.17534744900899568  0.9808372178450495  1.0000
  H   H1        1.0  0.571157575985197  0.625688208558351  0.36029951405873817  1.0000
  H   H2        1.0  0.42884000768136604  0.12568877842146253  0.13969801988353936  1.0000
  H   H3        1.0  0.4288416852184939  0.3743088386262696  0.6397010064093179  1.0000
  H   H4        1.0  0.5711619784107146  0.8743108617922957  0.8603026600450148  1.0000
  H   H5        1.0  0.6495225254427767  0.5605475633879632  0.2424240145218873  1.0000
  H   H6        1.0  0.3504806416494476  0.0605451406090083  0.2575738903841867  1.0000
  H   H7        1.0  0.3504780982037803  0.4394520768270667  0.757576585675899  1.0000
  H   H8        1.0  0.6495199732987589  0.9394544996071444  0.7424262052794786  1.0000
  H   H9        1.0  0.7616705238667479  0.26504304450770644  0.21902880981679113  1.0000
  H   H10       1.0  0.23833360352976746  0.7650420614318559  0.2809700205204847  1.0000
  H   H11       1.0  0.23833146222666818  0.7349552991902184  0.7809718701122818  1.0000
  H   H12       1.0  0.7616642778316989  0.2349549857562891  0.7190294111485541  1.0000
  H   H13       1.0  0.7302160294482861  0.13506170327094214  0.4294058756725504  1.0000
  H   H14       1.0  0.2697801986354663  0.6350641991607514  0.07059308465226617  1.0000
  H   H15       1.0  0.2697846028979499  0.8649366404271174  0.5705952290598759  1.0000
  H   H16       1.0  0.7302217613589054  0.3649380340880626  0.9294060816728871  1.0000
  H   H17       1.0  0.8620148136139252  0.9238503210347204  0.3579754888445094  1.0000
  H   H18       1.0  0.1379835729918355  0.4238474544599809  0.14202491383906587  1.0000
  H   H19       1.0  0.13798445628545866  0.07614931918043769  0.6420255361566374  1.0000
  H   H20       1.0  0.8620143170653238  0.5761521857587011  0.857975022363064  1.0000
  H   H21       1.0  0.9188553997735202  0.9888797990292415  0.2776638730057356  1.0000
  H   H22       1.0  0.08114421586029862  0.48888185175046317  0.22233655745593234  1.0000
  H   H23       1.0  0.0811452412697378  0.011119841183521795  0.7223377362603002  1.0000
  H   H24       1.0  0.9188536654931883  0.5111229745326753  0.7776628742100085  1.0000
  H   H25       1.0  0.695980308852576  0.9153960411499679  0.28264914241552924  1.0000
  H   H26       1.0  0.3040208199840606  0.4153977609178768  0.21735142648170575  1.0000
  H   H27       1.0  0.30402168593919043  0.0846023025468341  0.717352042047672  1.0000
  H   H28       1.0  0.6959770700730915  0.5846018793008056  0.782648509720431  1.0000
  C   C1        1.0  0.4118755363802436  0.9446272171979472  0.41581847552461665  1.0000
  C   C2        1.0  0.5881186941624891  0.44463037331521343  0.08418015776364027  1.0000
  C   C3        1.0  0.5881223275805355  0.055373719539957685  0.584179947074631  1.0000
  C   C4        1.0  0.411877842143504  0.5553731564510967  0.9158202032402869  1.0000
  C   C5        1.0  0.9718808065234162  0.3665048339752984  0.5692242377195312  1.0000
  C   C6        1.0  0.028122760035792303  0.8665087053819605  0.9307728760249175  1.0000
  C   C7        1.0  0.028118454674960006  0.6334973992726559  0.4307762827464572  1.0000
  C   C8        1.0  0.9718805363077226  0.1334948243848116  0.06922485642811436  1.0000
  C   C9        1.0  0.6234412810522302  0.5018813094188841  0.3457384987822109  1.0000
  C   C10       1.0  0.3765565740106639  0.0018806012857411  0.15426014313562314  1.0000
  C   C11       1.0  0.3765579888498111  0.4981157377646141  0.6542625262199733  1.0000
  C   C12       1.0  0.6234453946847155  0.9981190389302766  0.8457395277246957  1.0000
  C   C13       1.0  0.6662516495080839  0.461806112239735  0.28221902244656144  1.0000
  C   C14       1.0  0.33374796948479013  0.9618026652542538  0.21777840244116922  1.0000
  C   C15       1.0  0.3337462405490684  0.5381935279789403  0.7177809137555683  1.0000
  C   C16       1.0  0.6662539992132539  0.03819438193010428  0.7822212684201799  1.0000
  C   C17       1.0  0.7292754136389662  0.2969489165912336  0.26930466364862576  1.0000
  C   C18       1.0  0.27072455226536374  0.7969481055979911  0.23069339747321038  1.0000
  C   C19       1.0  0.27072383886504536  0.7030494271103507  0.7306953522847903  1.0000
  C   C20       1.0  0.7292760539858211  0.203050238103465  0.7693061936568525  1.0000
  C   C21       1.0  0.7520889286919543  0.17188816192384587  0.32135829367798857  1.0000
  C   C22       1.0  0.2479072064448858  0.6718889154078055  0.17863962815938086  1.0000
  C   C23       1.0  0.24791031511503553  0.8281088852630345  0.6786412177218252  1.0000
  C   C24       1.0  0.7520934085046563  0.3281094282925208  0.8213604675048031  1.0000
  C   C25       1.0  0.7134561809999412  0.2198124622086297  0.38506478425693996  1.0000
  C   C26       1.0  0.2865384933764831  0.7198082515271477  0.11493301956590327  1.0000
  C   C27       1.0  0.2865457963937886  0.7801871780062581  0.614935391137493  1.0000
  C   C28       1.0  0.7134621302714026  0.2801900921720488  0.8850675806324086  1.0000
  C   C29       1.0  0.8118021822961696  0.9900777935830474  0.3097427913629217  1.0000
  C   C30       1.0  0.18819741348453797  0.4900785219415764  0.19025662907397126  1.0000
  C   C31       1.0  0.1881984500500735  0.009920550115012399  0.6902583133695115  1.0000
  C   C32       1.0  0.8117991054274116  0.5099224147953265  0.8097427228627436  1.0000
  S   S1        1.0  0.25461363527106334  0.0828294493960797  0.3842072972315761  1.0000
  S   S2        1.0  0.7453826912760209  0.5828283933159922  0.11579120028781624  1.0000
  S   S3        1.0  0.7453856085306119  0.9171727838541343  0.6157922141661628  1.0000
  S   S4        1.0  0.25461384502997225  0.417175136450318  0.8842091607161108  1.0000
  S   S5        1.0  0.8538280185792007  0.4647534876927819  0.6202912019561564  1.0000
  S   S6        1.0  0.14617674365506164  0.964757398203055  0.879707931166706  1.0000
  S   S7        1.0  0.14617396751155107  0.5352474490368095  0.379709477971886  1.0000
  S   S8        1.0  0.8538279412276994  0.0352474280749036  0.12029139461894536  1.0000
  N   N1        1.0  0.5283706632682766  0.8452335806149165  0.43695317994077226  1.0000
  N   N2        1.0  0.47162377988668447  0.34523571987670454  0.06304603728555237  1.0000
  N   N3        1.0  0.4716272093921818  0.15476605960602538  0.5630457471931151  1.0000
  N   N4        1.0  0.5283741275631828  0.654767809887218  0.9369549079832707  1.0000
  N   N5        1.0  0.05820181757888323  0.2947616435122739  0.5324961506922603  1.0000
  N   N6        1.0  0.9417978349265186  0.794763895629252  0.9675022947770625  1.0000
  N   N7        1.0  0.9417974262241204  0.7052392932221067  0.46750336070599713  1.0000
  N   N8        1.0  0.05820274522429261  0.2052396341389127  0.032495782748554795  1.0000
  N   N9        1.0  0.6479481306044763  0.38006573707625785  0.39574911556766773  1.0000
  N   N10       1.0  0.3520475687419805  0.8800679521313267  0.10424813542620366  1.0000
  N   N11       1.0  0.35205113059921456  0.6199313101083631  0.6042514049003882  1.0000
  N   N12       1.0  0.6479557624002583  0.11993039156759978  0.8957516151653946  1.0000
  O   O1        1.0  0.6039842368126005  0.4150767496923675  0.4568593883506863  1.0000
  O   O2        1.0  0.3960141156012044  0.915075277047684  0.043137994136621685  1.0000
  O   O3        1.0  0.3960150156900825  0.5849228905250498  0.5431406275822183  1.0000
  O   O4        1.0  0.6039878617911968  0.08492565968303717  0.9568621812572997  1.0000
