data_image0
_chemical_formula_structural       Cd2H34C40N6O8
_chemical_formula_sum              "Cd2 H34 C40 N6 O8"
_cell_length_a       7.5418950056784935
_cell_length_b       10.678788029924775
_cell_length_c       12.166907050495196
_cell_angle_alpha    102.19986564762638
_cell_angle_beta     107.35324882720145
_cell_angle_gamma    90.9689115831757

_space_group_name_H-M_alt    "P 1"
_space_group_IT_number       1

loop_
  _space_group_symop_operation_xyz
  'x, y, z'

loop_
  _atom_site_type_symbol
  _atom_site_label
  _atom_site_symmetry_multiplicity
  _atom_site_fract_x
  _atom_site_fract_y
  _atom_site_fract_z
  _atom_site_occupancy
  Cd  Cd1       1.0  0.28983883999536886  0.5331106032163221  0.06161832181588519  1.0000
  Cd  Cd2       1.0  0.7101596679415395  0.466887098807149  0.9383800527463818  1.0000
  H   H1        1.0  0.1268534614319279  0.9455431518637668  0.11219896281085784  1.0000
  H   H2        1.0  0.8731465408009456  0.054455513960292  0.8877990381901881  1.0000
  H   H3        1.0  0.9770133388394201  0.1518020206597299  0.13997584476555863  1.0000
  H   H4        1.0  0.0229907503410516  0.8481956874012795  0.8600251780354923  1.0000
  H   H5        1.0  0.6534616031196022  0.1488832740823938  0.15167783814942473  1.0000
  H   H6        1.0  0.3465424860608763  0.8511144339786157  0.8483231846516261  1.0000
  H   H7        1.0  0.4807278261615053  0.9411639089944688  0.13472744490439936  1.0000
  H   H8        1.0  0.5192735294239483  0.0588347599341148  0.865268334147764  1.0000
  H   H9        1.0  0.0332226009936818  0.5062322999958653  0.2521017158283669  1.0000
  H   H10       1.0  0.9667781869590968  0.493772132283354  0.7479032554863991  1.0000
  H   H11       1.0  0.3539643196655006  0.20157995342414387  0.35199464308751516  1.0000
  H   H12       1.0  0.6460395978226074  0.7984273671523212  0.6480114294924775  1.0000
  H   H13       1.0  0.4604791681760502  0.28929294774514597  0.1771480476467886  1.0000
  H   H14       1.0  0.5395201015045785  0.710710521644991  0.8228556492242945  1.0000
  H   H15       1.0  0.806808244734313  0.3960317945174836  0.30315169951062165  1.0000
  H   H16       1.0  0.19318904110691906  0.6039784035626498  0.6968512519179342  1.0000
  H   H17       1.0  0.6293184875472805  0.34598386665127384  0.43177467741445236  1.0000
  H   H18       1.0  0.37068332683261923  0.6540176829982441  0.5682291188080554  1.0000
  H   H19       1.0  0.12094221360511881  0.22224120661798713  0.6539262857955563  1.0000
  H   H20       1.0  0.8790536686295738  0.7777574521712651  0.3460742610398738  1.0000
  H   H21       1.0  0.30181253829304217  0.2763574216718396  0.5284131057947831  1.0000
  H   H22       1.0  0.698184757234678  0.7236412379431769  0.47158933910402817  1.0000
  H   H23       1.0  0.8364695954955365  0.18609301213913199  0.6863745627818431  1.0000
  H   H24       1.0  0.1635275590887915  0.8139046867798143  0.31362603372930653  1.0000
  H   H25       1.0  0.6764895355000747  0.3041950167555711  0.6578136257556721  1.0000
  H   H26       1.0  0.3235061247882883  0.6958017183627875  0.34218734431669157  1.0000
  H   H27       1.0  0.7692214152776559  0.9738168726375279  0.5341268625875912  1.0000
  H   H28       1.0  0.23077741958471168  0.0261837151201689  0.4658704651180514  1.0000
  H   H29       1.0  0.7387947179592159  0.05462240503565141  0.41660865774097994  1.0000
  H   H30       1.0  0.2612040239121142  0.9453772202029638  0.583390117586802  1.0000
  H   H31       1.0  0.4403904614270786  0.15903737919901323  0.6571182112497098  1.0000
  H   H32       1.0  0.5596079535187926  0.8409593603053767  0.3428816109346968  1.0000
  H   H33       1.0  0.5887565815622721  0.032863571514972996  0.6724233240504347  1.0000
  H   H34       1.0  0.4112404081024793  0.9671331676194158  0.32757377606814225  1.0000
  C   C1        1.0  0.9834348938117259  0.7072305314425266  0.08751262774585905  1.0000
  C   C2        1.0  0.016567863078663002  0.2927681387675705  0.9124842253672298  1.0000
  C   C3        1.0  0.8886471433502197  0.8285701263742952  0.10555855165625158  1.0000
  C   C4        1.0  0.11135582349841402  0.17143046796244482  0.8944370542174553  1.0000
  C   C5        1.0  0.9854295479111529  0.9465588243957441  0.11773277820615385  1.0000
  C   C6        1.0  0.0145718196623932  0.053439844077090015  0.882263824848458  1.0000
  C   C7        1.0  0.9021100892621946  0.0613899484686584  0.1342979727232105  1.0000
  C   C8        1.0  0.0978939399778369  0.9386077618711256  0.8656989300655837  1.0000
  C   C9        1.0  0.720265747122461  0.05945458996579591  0.14058918833680417  1.0000
  C   C10       1.0  0.2797356204510848  0.9405440785070313  0.8594074147178076  1.0000
  C   C11       1.0  0.6231917682739977  0.9432601007036678  0.13062598842034126  1.0000
  C   C12       1.0  0.3768097162667559  0.056739529376734814  0.8693708150170278  1.0000
  C   C13       1.0  0.7055304774048068  0.8271038589192301  0.112466378657416  1.0000
  C   C14       1.0  0.294468063582677  0.17289480790209671  0.8875264282704477  1.0000
  C   C15       1.0  0.5854682858794433  0.7072024424153227  0.09761409494682026  1.0000
  C   C16       1.0  0.41453288372394337  0.29279430147509794  0.9023845793496292  1.0000
  C   C17       1.0  0.13565295525831536  0.43601905942876584  0.25548220885347206  1.0000
  C   C18       1.0  0.864347832694463  0.5639853728504535  0.7445227624612939  1.0000
  C   C19       1.0  0.3052816649898986  0.2767273795447309  0.30537154514911435  1.0000
  C   C20       1.0  0.6947196028198164  0.723280898709028  0.6946350516991443  1.0000
  C   C21       1.0  0.35768156234474463  0.3207758515498327  0.2207087296696457  1.0000
  C   C22       1.0  0.6423162250280043  0.6792266535839603  0.7792961647651069  1.0000
  C   C23       1.0  0.0640400686530995  0.33457082931396087  0.4058105811193968  1.0000
  C   C24       1.0  0.9359605903443724  0.6654326418134388  0.5941933658101561  1.0000
  C   C25       1.0  0.8760571667598284  0.35853028250686253  0.38039558471607643  1.0000
  C   C26       1.0  0.12394218392374512  0.6414741498581124  0.6196058405304115  1.0000
  C   C27       1.0  0.7766572854796864  0.3300466675164913  0.4530050630534745  1.0000
  C   C28       1.0  0.22334207719197252  0.6699577643927342  0.546997186195469  1.0000
  C   C29       1.0  0.8597178496205802  0.2748643044413015  0.5487788386714243  1.0000
  C   C30       1.0  0.14027974885641473  0.7251372418194464  0.4512209113658656  1.0000
  C   C31       1.0  0.05070231232816981  0.259373078317239  0.5767172468391593  1.0000
  C   C32       1.0  0.949297620889851  0.7406246240762329  0.4232838497889303  1.0000
  C   C33       1.0  0.15349932737050406  0.2899619241095621  0.506458226619543  1.0000
  C   C34       1.0  0.8465000472892469  0.7100425073439068  0.4935448466318418  1.0000
  C   C35       1.0  0.7435365913920506  0.2258457257094904  0.6149624881937826  1.0000
  C   C36       1.0  0.2564636687514295  0.7741548624182076  0.38503756157768976  1.0000
  C   C37       1.0  0.6662738995868622  0.0198512831180011  0.4718758047664267  1.0000
  C   C38       1.0  0.3337246083500389  0.9801464189054703  0.5281225697958405  1.0000
  C   C39       1.0  0.4926155913493204  0.0787176496488016  0.6064401043801197  1.0000
  C   C40       1.0  0.5073842939163384  0.9212800545676814  0.39355769623816167  1.0000
  N   N1        1.0  0.25174080187196074  0.4199290490356234  0.19097834081190262  1.0000
  N   N2        1.0  0.7482583508414535  0.5800734587469449  0.809025155676423  1.0000
  N   N3        1.0  0.16469604411421562  0.35107087235485324  0.3270763170211666  1.0000
  N   N4        1.0  0.8353034834770127  0.6489345193389228  0.6729294286203427  1.0000
  N   N5        1.0  0.5941196480943917  0.12812608197261713  0.5367358070838719  1.0000
  N   N6        1.0  0.40588036612657413  0.8718725833956855  0.46326301791962277  1.0000
  O   O1        1.0  0.13410541780137922  0.7133384781792885  0.06124452488408845  1.0000
  O   O2        1.0  0.8658929942308049  0.2866592274902118  0.938747257658562  1.0000
  O   O3        1.0  0.9106032682538655  0.6047106809854839  0.10142673343911932  1.0000
  O   O4        1.0  0.0894064352207664  0.3952879979109127  0.8985713699663266  1.0000
  O   O5        1.0  0.5050054675663134  0.6401017669330216  0.991682879741063  1.0000
  O   O6        1.0  0.4949975712108595  0.3598988246692016  0.008317670147349077  1.0000
  O   O7        1.0  0.5515319620079425  0.6832316359345826  0.18693239234746528  1.0000
  O   O8        1.0  0.4484689856491145  0.3167631842849373  0.8130667051859106  1.0000
