data_image0
_chemical_formula_structural       Cd2H16C20N4Cl4
_chemical_formula_sum              "Cd2 H16 C20 N4 Cl4"
_cell_length_a       7.148763288070945
_cell_length_b       9.301179396527333
_cell_length_c       9.651636116606843
_cell_angle_alpha    118.69583985563835
_cell_angle_beta     106.74563668011703
_cell_angle_gamma    90.10391191101291

_space_group_name_H-M_alt    "P 1"
_space_group_IT_number       1

loop_
  _space_group_symop_operation_xyz
  'x, y, z'

loop_
  _atom_site_type_symbol
  _atom_site_label
  _atom_site_symmetry_multiplicity
  _atom_site_fract_x
  _atom_site_fract_y
  _atom_site_fract_z
  _atom_site_occupancy
  Cd  Cd1       1.0  0.24982432635052026  0.9139374606053822  6.999887585121401e-05  1.0000
  Cd  Cd2       1.0  0.7501796192568405  0.08606230231339401  0.9999304739404591  1.0000
  H   H1        1.0  0.9175962595263557  0.6454549535321661  0.6507161727992212  1.0000
  H   H2        1.0  0.5817903148813102  0.9947228958927995  0.3494538310074871  1.0000
  H   H3        1.0  0.08240359914759675  0.3545536035190581  0.34929150898403083  1.0000
  H   H4        1.0  0.41821508989686873  0.005276859377616494  0.65054695989388  1.0000
  H   H5        1.0  0.7927132438563405  0.33522058828288687  0.4715994523953879  1.0000
  H   H6        1.0  0.7072301134189019  0.863379176400784  0.5285256137313893  1.0000
  H   H7        1.0  0.20727827116617448  0.664783066485576  0.5284062532067819  1.0000
  H   H8        1.0  0.2927654885370287  0.1366156842352382  0.47147288290383915  1.0000
  H   H9        1.0  0.1633888587799177  0.28400939470417813  0.8785160181230294  1.0000
  H   H10       1.0  0.3371962886080198  0.4053427860887737  0.12160500792026596  1.0000
  H   H11       1.0  0.8366252556143792  0.715982802144062  0.12148017575240298  1.0000
  H   H12       1.0  0.6628064087760066  0.5946507149188848  0.8783892581293172  1.0000
  H   H13       1.0  0.9237078552685816  0.15516653612081646  0.5945430256016875  1.0000
  H   H14       1.0  0.5769308867890857  0.5603010581061412  0.40552330984341717  1.0000
  H   H15       1.0  0.07629350732042181  0.8448419505508299  0.40546081094154823  1.0000
  H   H16       1.0  0.4230653285539603  0.4396961473297268  0.5944670530195706  1.0000
  C   C1        1.0  0.17490107330633012  0.534290617942105  0.9149963619368147  1.0000
  C   C2        1.0  0.3249775439166172  0.6193153228833951  0.08518989065941436  1.0000
  C   C3        1.0  0.8250910298144234  0.465694290879128  0.08499584094541753  1.0000
  C   C4        1.0  0.6750277937452225  0.3806845264838472  0.9148171452295555  1.0000
  C   C5        1.0  0.9698170190794217  0.5593240664648605  0.6943258316283404  1.0000
  C   C6        1.0  0.5297918197014795  0.864933773238761  0.3058407873660299  1.0000
  C   C7        1.0  0.030173580126273705  0.4406609127359502  0.3056702164939081  1.0000
  C   C8        1.0  0.4702167575224648  0.13505366285802714  0.6941644748111171  1.0000
  C   C9        1.0  0.9014802996674617  0.388620587917174  0.5966624345553766  1.0000
  C   C10       1.0  0.598475642505754  0.7917752732606403  0.40346239353461016  1.0000
  C   C11       1.0  0.09851657580068722  0.6114016253770416  0.403347637794276  1.0000
  C   C12       1.0  0.4015199840744756  0.20823310285922497  0.5965308031869936  1.0000
  C   C13       1.0  0.10935616782717973  0.36237767592280085  0.8258015026086623  1.0000
  C   C14       1.0  0.3908547421123744  0.5364644807694462  0.17434797619331732  1.0000
  C   C15       1.0  0.8906457410325999  0.6376332496455248  0.1742004451499426  1.0000
  C   C16       1.0  0.6091413070274072  0.46353893149468933  0.8256441120262747  1.0000
  C   C17       1.0  0.9730356201727731  0.2892902007677876  0.6649579313269312  1.0000
  C   C18       1.0  0.5272228617808353  0.6241206093580304  0.335159770454645  1.0000
  C   C19       1.0  0.026955302505577063  0.7106959273087411  0.3350324886622999  1.0000
  C   C20       1.0  0.4727892030922334  0.37587679423634773  0.6648528263067702  1.0000
  N   N1        1.0  0.10352170348672023  0.6295868123281141  0.8482751766423956  1.0000
  N   N2        1.0  0.39604959261018285  0.7813608326290407  0.1519487579541233  1.0000
  N   N3        1.0  0.896472385620278  0.3704216812197246  0.15172498781303276  1.0000
  N   N4        1.0  0.6039529839793972  0.21864638773890022  0.8480537389883124  1.0000
  Cl  Cl1       1.0  0.5062950596704922  0.18287602804998926  0.1952320031384999  1.0000
  Cl  Cl2       1.0  0.9938579238059548  0.9876020468968323  0.804538441628672  1.0000
  Cl  Cl3       1.0  0.49370812805402414  0.8171199902683597  0.804765578282783  1.0000
  Cl  Cl4       1.0  0.0061426019332202  0.012395229690774598  0.1954591204770891  1.0000
