data_image0
_chemical_formula_structural       FeH16PdC20S2N12
_chemical_formula_sum              "Fe1 H16 Pd1 C20 S2 N12"
_cell_length_a       7.12070587734704
_cell_length_b       7.411506939865843
_cell_length_c       12.399821418246256
_cell_angle_alpha    103.81385467668211
_cell_angle_beta     100.05226168928256
_cell_angle_gamma    87.54870305306726

_space_group_name_H-M_alt    "P 1"
_space_group_IT_number       1

loop_
  _space_group_symop_operation_xyz
  'x, y, z'

loop_
  _atom_site_type_symbol
  _atom_site_label
  _atom_site_symmetry_multiplicity
  _atom_site_fract_x
  _atom_site_fract_y
  _atom_site_fract_z
  _atom_site_occupancy
  Fe  Fe1       1.0  0.9894078294944606  0.49159519649848704  0.0006751787474783737  1.0000
  H   H1        1.0  0.1307645488698483  0.5966299345431026  0.43067206808694186  1.0000
  H   H2        1.0  0.8658535883240148  0.4024195859904864  0.571956899755044  1.0000
  H   H3        1.0  0.23015647180857  0.8537358024078757  0.5442177522556337  1.0000
  H   H4        1.0  0.7707177431103602  0.14295409329895392  0.454218552736144  1.0000
  H   H5        1.0  0.11381949032334401  0.8918110118235207  0.17499686569756537  1.0000
  H   H6        1.0  0.8813693535245906  0.09521904597094992  0.8215319480098274  1.0000
  H   H7        1.0  0.46089072447180257  0.39551071030167156  0.8530416836062501  1.0000
  H   H8        1.0  0.530558010669516  0.6009303688482248  0.146011456012566  1.0000
  H   H9        1.0  0.34901747977038877  0.0558826392153051  0.7494653880590931  1.0000
  H   H10       1.0  0.6482674102852712  0.939063122842839  0.2478727580799998  1.0000
  H   H11       1.0  0.35277374126179245  0.7466691323981821  0.7599074862822096  1.0000
  H   H12       1.0  0.6368466627896439  0.249511800924715  0.2376910695265693  1.0000
  H   H13       1.0  0.47781890688768414  0.7158375872245913  0.6432322328878685  1.0000
  H   H14       1.0  0.5233045903354495  0.28224425114908774  0.3589925654648668  1.0000
  H   H15       1.0  0.5993597632548245  0.692764398415541  0.7767800047335742  1.0000
  H   H16       1.0  0.3909871336495954  0.3053085889347642  0.22800021643079302  1.0000
  Pd  Pd1       1.0  0.5165795202660561  0.017047940171735807  0.0026953091508445976  1.0000
  C   C1        1.0  0.709770780504215  0.816995934467336  0.997264720271396  1.0000
  C   C2        1.0  0.3102181627395452  0.20367495867742497  0.006095710148883897  1.0000
  C   C3        1.0  0.32803352546607556  0.822619068052802  0.9866343610288129  1.0000
  C   C4        1.0  0.7062369496707391  0.21317372518821998  0.017060996557461277  1.0000
  C   C5        1.0  0.11430257419389282  0.6293679524704885  0.34904270946812943  1.0000
  C   C6        1.0  0.8806125463684893  0.3667246559568583  0.6527160663767335  1.0000
  C   C7        1.0  0.30626735865183724  0.1421329536951959  0.5901809010144632  1.0000
  C   C8        1.0  0.6933249893244381  0.8542365611430682  0.40767309970963345  1.0000
  C   C9        1.0  0.24150436112620347  0.9753464569429866  0.5096902994101528  1.0000
  C   C10       1.0  0.7592393556765912  0.020706936125229405  0.48814329245771404  1.0000
  C   C11       1.0  0.1045662072989018  0.7811824163350423  0.2171719541859503  1.0000
  C   C12       1.0  0.8897403192470251  0.20888737644116873  0.7815953198764803  1.0000
  C   C13       1.0  0.41787442918388257  0.3488389009332167  0.7622724116344771  1.0000
  C   C14       1.0  0.5765973504063737  0.6473526022810532  0.23657623489774693  1.0000
  C   C15       1.0  0.41586098265437244  0.4646314024367584  0.68947687342056  1.0000
  C   C16       1.0  0.5794317942902509  0.5324482181570076  0.309989227439452  1.0000
  C   C17       1.0  0.3564409330108874  0.16682726162621006  0.7064563455000085  1.0000
  C   C18       1.0  0.6406522934688966  0.8289893472315057  0.29153070417881116  1.0000
  C   C19       1.0  0.46392961081718204  0.665817720484249  0.7178612770709665  1.0000
  C   C20       1.0  0.5301459415675539  0.33169531623058657  0.2831979332784443  1.0000
  S   S1        1.0  0.3385141308806753  0.3475073268314618  0.5515329177171538  1.0000
  S   S2        1.0  0.6600706278095103  0.6500524339474438  0.44739874395300927  1.0000
  N   N1        1.0  0.8100483945256228  0.6868629548102376  0.9932674676006314  1.0000
  N   N2        1.0  0.1869108402096131  0.3135735177786572  0.0080477424868093  1.0000
  N   N3        1.0  0.05798133612653801  0.6057003585650876  0.16945329258442143  1.0000
  N   N4        1.0  0.9310228047342833  0.3846706764003684  0.8317379980357914  1.0000
  N   N5        1.0  0.0631434970902305  0.5092785059546756  0.2521602195113389  1.0000
  N   N6        1.0  0.9263642236583184  0.4849377252301181  0.7509437575829667  1.0000
  N   N7        1.0  0.1425673070599132  0.802403989099375  0.33125434370275303  1.0000
  N   N8        1.0  0.8554521180328009  0.19118556146904814  0.6678274094436675  1.0000
  N   N9        1.0  0.22025944726503613  0.703532712359305  0.978151158581234  1.0000
  N   N10       1.0  0.8139564663278096  0.3291171417740771  0.018041460999597806  1.0000
  N   N11       1.0  0.2000115885163112  0.9707862571515448  0.4027510608836168  1.0000
  N   N12       1.0  0.8004441908051093  0.0236093607878942  0.5948486510874248  1.0000
