data_image0
_chemical_formula_structural       Zn4H24C44N8O16
_chemical_formula_sum              "Zn4 H24 C44 N8 O16"
_cell_length_a       5.218991138205651
_cell_length_b       9.047207321866566
_cell_length_c       23.659150776039624
_cell_angle_alpha    84.4199379469111
_cell_angle_beta     83.65540041286391
_cell_angle_gamma    73.22989243114449

_space_group_name_H-M_alt    "P 1"
_space_group_IT_number       1

loop_
  _space_group_symop_operation_xyz
  'x, y, z'

loop_
  _atom_site_type_symbol
  _atom_site_label
  _atom_site_symmetry_multiplicity
  _atom_site_fract_x
  _atom_site_fract_y
  _atom_site_fract_z
  _atom_site_occupancy
  Zn  Zn1       1.0  0.887168478757033  0.6676707014875163  0.6791442897070042  1.0000
  Zn  Zn2       1.0  0.23366447747081762  0.8326334471441471  0.8208171678918535  1.0000
  Zn  Zn3       1.0  0.11283459858741197  0.33233046739945854  0.3208558383937756  1.0000
  Zn  Zn4       1.0  0.766331971079083  0.16736887681263113  0.17918321543383092  1.0000
  H   H1        1.0  0.6701657358525638  0.16180339767645083  0.691828228450838  1.0000
  H   H2        1.0  0.5258534602895465  0.3375277457690232  0.8080940936823711  1.0000
  H   H3        1.0  0.32983456279860957  0.8381966182165427  0.30817141186880553  1.0000
  H   H4        1.0  0.4741556385999956  0.6624687937378937  0.19190623963142173  1.0000
  H   H5        1.0  0.453745843583768  0.4206368110642629  0.6839068495882685  1.0000
  H   H6        1.0  0.5589217469577149  0.07933340342377447  0.8159816157884452  1.0000
  H   H7        1.0  0.5462582180625262  0.5793632039983976  0.3160928837538606  1.0000
  H   H8        1.0  0.44107696014216907  0.9206642919832717  0.1840188797277662  1.0000
  H   H9        1.0  0.9604583621339059  0.5752372294857864  0.5485849735391994  1.0000
  H   H10       1.0  0.08577019642479645  0.9244540595615973  0.951440949446216  1.0000
  H   H11       1.0  0.03954180679918559  0.42476046219297103  0.4514159912945317  1.0000
  H   H12       1.0  0.9142239509631833  0.07554826149722521  0.04855981017449551  1.0000
  H   H13       1.0  0.40464242266737926  0.3311449349726913  0.5129013407552492  1.0000
  H   H14       1.0  0.25133876951361633  0.16789378748632802  0.9871739867090595  1.0000
  H   H15       1.0  0.5953513921623922  0.6688550755395539  0.4870990056432093  1.0000
  H   H16       1.0  0.7486625713063972  0.832106221365251  0.012826545734377203  1.0000
  H   H17       1.0  0.8564598821528339  0.23834901974896644  0.5109030458097622  1.0000
  H   H18       1.0  0.60495890147277  0.26224800424397904  0.9891322320983279  1.0000
  H   H19       1.0  0.1435396642757709  0.7616486822843314  0.48909660409390204  1.0000
  H   H20       1.0  0.3950448854823064  0.7377508470550114  0.010868374903985496  1.0000
  H   H21       1.0  0.27169246186905116  0.021206951378701402  0.5160519280071513  1.0000
  H   H22       1.0  0.8069871591744472  0.47995003656680524  0.983936461217219  1.0000
  H   H23       1.0  0.7283059552845612  0.9787930649294556  0.4839476658012529  1.0000
  H   H24       1.0  0.19301474628306176  0.5200488151473478  0.0160640992738479  1.0000
  C   C1        1.0  0.4712157258978706  0.8433856386870103  0.6073999800836847  1.0000
  C   C2        1.0  0.9213286859468963  0.6569585735023225  0.8925898232426946  1.0000
  C   C3        1.0  0.5287844277801667  0.15661553765654188  0.39259920938205545  1.0000
  C   C4        1.0  0.07866357994352319  0.3430437479716629  0.1074108898667774  1.0000
  C   C5        1.0  0.2098369378716073  0.9697505203097875  0.6062220016032782  1.0000
  C   C6        1.0  0.7853265685573233  0.530646046098916  0.8937355189733154  1.0000
  C   C7        1.0  0.7901618989463584  0.030249499311494808  0.39377716939885243  1.0000
  C   C8        1.0  0.21466870810564828  0.46935396068504087  0.10626529674266291  1.0000
  C   C9        1.0  0.039626002469098864  0.011702812811464  0.6562018745585122  1.0000
  C   C10       1.0  0.7074926644921786  0.4885132955349079  0.8437590076689789  1.0000
  C   C11       1.0  0.9603780591772022  0.9882972022511964  0.3437978587836241  1.0000
  C   C12       1.0  0.2925100802940578  0.5114855628054897  0.1562407072095411  1.0000
  C   C13       1.0  0.08843179828778593  0.9204987187857726  0.7124491593608085  1.0000
  C   C14       1.0  0.721324931793354  0.579658862239647  0.7874772788372939  1.0000
  C   C15       1.0  0.9115680806990271  0.07950129379410241  0.2875509037651156  1.0000
  C   C16       1.0  0.27867396289160257  0.42034230416453505  0.2125231790472668  1.0000
  C   C17       1.0  0.8058763975095004  0.1341920876398532  0.6534970646648759  1.0000
  C   C18       1.0  0.5945384641334356  0.36561349525680253  0.8464632726838985  1.0000
  C   C19       1.0  0.19412474047039302  0.8658079348793919  0.3465017300422275  1.0000
  C   C20       1.0  0.40546588745913686  0.6343841989047546  0.1535373623660448  1.0000
  C   C21       1.0  0.7406633096826595  0.2154460262882623  0.6013203130680652  1.0000
  C   C22       1.0  0.5582428528685883  0.2844175717152808  0.8986636920764399  1.0000
  C   C23       1.0  0.25933594679967364  0.7845539966461459  0.3986784351277919  1.0000
  C   C24       1.0  0.4417637998858979  0.715580125344225  0.1013365666784765  1.0000
  C   C25       1.0  0.3762681932555907  0.42917558899683433  0.6427103766773642  1.0000
  C   C26       1.0  0.44906542489385265  0.07070080341708972  0.8572305765228309  1.0000
  C   C27       1.0  0.6237321053955824  0.5708244268961592  0.35728926364228647  1.0000
  C   C28       1.0  0.5509370452011523  0.9292968911596302  0.1427700120158732  1.0000
  C   C29       1.0  0.13231282827431573  0.5060457171107656  0.5702757502631499  1.0000
  C   C30       1.0  0.21003846395600353  0.9936098971369064  0.9297264920887757  1.0000
  C   C31       1.0  0.8676867181542887  0.49395198492253195  0.4297238996405214  1.0000
  C   C32       1.0  0.7899585492313933  0.006391269682438899  0.07027391928453852  1.0000
  C   C33       1.0  0.34931582584510323  0.3883080551810282  0.5525944589791933  1.0000
  C   C34       1.0  0.2920880603535352  0.11105649444741059  0.9474358075031761  1.0000
  C   C35       1.0  0.6506808547840849  0.6116908010917399  0.44740553917186804  1.0000
  C   C36       1.0  0.7079157266015345  0.8889423568515795  0.052564799499137414  1.0000
  C   C37       1.0  0.9064127357216732  0.17452836852137207  0.5515149951069632  1.0000
  C   C38       1.0  0.6321498740777965  0.3258516591821136  0.9484927411940235  1.0000
  C   C39       1.0  0.09358840225822022  0.8254716539978731  0.44848379960014034  1.0000
  C   C40       1.0  0.36785621403919316  0.6741471950148324  0.05150748951326281  1.0000
  C   C41       1.0  0.13878676782591984  0.0519802787170676  0.5544949153002818  1.0000
  C   C42       1.0  0.7442565816804105  0.44867749393309003  0.9454873216366125  1.0000
  C   C43       1.0  0.8612150797646052  0.9480174262141855  0.44550435830835516  1.0000
  C   C44       1.0  0.2557438619438983  0.5513213615093449  0.05451276953694161  1.0000
  N   N1        1.0  0.5018312068220611  0.34004545998382707  0.5990388223730818  1.0000
  N   N2        1.0  0.44221029847574317  0.15959372130099336  0.9009523271679853  1.0000
  N   N3        1.0  0.49816819463340767  0.6599534025000225  0.4009603766766858  1.0000
  N   N4        1.0  0.5577934884793335  0.8404051299979968  0.09904827983432801  1.0000
  N   N5        1.0  0.15192199602590498  0.5299041571734905  0.6263184197506888  1.0000
  N   N6        1.0  0.3091972038213979  0.9699012267174684  0.8736606214965903  1.0000
  N   N7        1.0  0.8480774054295636  0.470094705310359  0.37368077929907173  1.0000
  N   N8        1.0  0.6908003740034941  0.030098782964444102  0.12633981792436091  1.0000
  O   O1        1.0  0.5708377366444921  0.8222716798905765  0.6562774133680094  1.0000
  O   O2        1.0  0.04780807767953383  0.67859676393509  0.8436330075257601  1.0000
  O   O3        1.0  0.4291629816710413  0.1777283393155429  0.34372180414536757  1.0000
  O   O4        1.0  0.9521855050709577  0.3214067142611654  0.15636772404732113  1.0000
  O   O5        1.0  0.5730401185927648  0.7728579978079891  0.5638710677428804  1.0000
  O   O6        1.0  0.9104742424478831  0.7269153081606347  0.9361791020693391  1.0000
  O   O7        1.0  0.42696032503154413  0.22714085763445271  0.43612902343067367  1.0000
  O   O8        1.0  0.0895085135935361  0.2730928072874192  0.0638204391444503  1.0000
  O   O9        1.0  0.11486804190788287  0.9907707394248746  0.7548062345295179  1.0000
  O   O10       1.0  0.8610300583740975  0.5094665958409977  0.7451621453545982  1.0000
  O   O11       1.0  0.885133573603355  0.009230433190381901  0.2451934242537419  1.0000
  O   O12       1.0  0.13897015317093056  0.4905357272854475  0.2548383309935787  1.0000
  O   O13       1.0  0.08988912067113125  0.7793282491202547  0.7173831016343684  1.0000
  O   O14       1.0  0.5858567417183878  0.7206864051117134  0.7824829193963653  1.0000
  O   O15       1.0  0.9101111779800423  0.22067176677273892  0.282616538685275  1.0000
  O   O16       1.0  0.41413755064272806  0.27931475549655  0.2175182910782496  1.0000
