data_image0
_chemical_formula_structural       Zn4H29C49N9O23
_chemical_formula_sum              "Zn4 H29 C49 N9 O23"
_cell_length_a       15.412854399676974
_cell_length_b       19.20461917670692
_cell_length_c       19.13886112764232
_cell_angle_alpha    94.88678483090722
_cell_angle_beta     97.11596321777908
_cell_angle_gamma    102.82783294711486

_space_group_name_H-M_alt    "P 1"
_space_group_IT_number       1

loop_
  _space_group_symop_operation_xyz
  'x, y, z'

loop_
  _atom_site_type_symbol
  _atom_site_label
  _atom_site_symmetry_multiplicity
  _atom_site_fract_x
  _atom_site_fract_y
  _atom_site_fract_z
  _atom_site_occupancy
  Zn  Zn1       1.0  0.5757456839301369  0.4562524670676069  0.43921948218889634  1.0000
  Zn  Zn2       1.0  0.42094022817008175  0.42903417972164704  0.5339043815122507  1.0000
  Zn  Zn3       1.0  0.4226759266282085  0.5485080573358374  0.42967914738039775  1.0000
  Zn  Zn4       1.0  0.5721706351676162  0.5767122229687517  0.5663846555557369  1.0000
  H   H1        1.0  0.1695004187120404  0.32831647782410295  0.47817133804443285  1.0000
  H   H2        1.0  0.4008528362512394  0.7634891666569387  0.42563899882841116  1.0000
  H   H3        1.0  0.009877971402446008  0.2902162063622242  0.4979325976649561  1.0000
  H   H4        1.0  0.8428868195014587  0.6662539434564891  0.5800152730136006  1.0000
  H   H5        1.0  0.09672517264544207  0.6155863199208936  0.5594667549362597  1.0000
  H   H6        1.0  0.011800511292563041  0.7030042427825978  0.5955214876894885  1.0000
  H   H7        1.0  0.7429668935573729  0.5238445960713349  0.9548061462059817  1.0000
  H   H8        1.0  0.5894691248173415  0.3213647270854523  0.014889028929914571  1.0000
  H   H9        1.0  0.2195668292807582  0.4040206884059571  0.9221925716588402  1.0000
  H   H10       1.0  0.42639555985110894  0.6051977487294097  0.2652508891670066  1.0000
  H   H11       1.0  0.41085646584969027  0.6367283327342079  0.18180473951201037  1.0000
  H   H12       1.0  0.5680838783058775  0.4136037198157254  0.22762911478076114  1.0000
  H   H13       1.0  0.4443480024997086  0.0464164959668878  0.6095625785504878  1.0000
  H   H14       1.0  0.4046028459119241  0.1224388343061946  0.6384689861298938  1.0000
  H   H15       1.0  0.3018474332832851  0.8753853132427734  0.34173333461341565  1.0000
  H   H16       1.0  0.6368211327048031  0.12732871220041633  0.3732384651305337  1.0000
  H   H17       1.0  0.6080466916567246  0.0513336508814533  0.41630474828163233  1.0000
  H   H18       1.0  0.20781939619344314  0.5682202728153529  0.4455174275791832  1.0000
  H   H19       1.0  0.10838789016880669  0.5935660264528124  0.4595710027972188  1.0000
  H   H20       1.0  0.7464181484872938  0.34842203298652663  0.5583197878707864  1.0000
  H   H21       1.0  0.7406268274968327  0.4328989366280781  0.5867428990239886  1.0000
  H   H22       1.0  0.7490828877735254  0.5928203272256313  0.7723931581966497  1.0000
  H   H23       1.0  0.3257710322586432  0.4773445597045907  0.7385530225615469  1.0000
  H   H24       1.0  0.4509446125904049  0.580106391821559  0.0784158825271248  1.0000
  H   H25       1.0  0.44830979086498257  0.23570048754083228  0.5903744329848237  1.0000
  H   H26       1.0  0.5833498834243116  0.9220936801205681  0.6354242055369922  1.0000
  H   H27       1.0  0.8750980623955017  0.32075901340139273  0.5260875448022091  1.0000
  H   H28       1.0  0.5872230841600227  0.7919063294065866  0.6176061981368192  1.0000
  H   H29       1.0  0.6058280978789411  0.24269110344526004  0.41947008435138133  1.0000
  C   C1        1.0  0.473228485726409  0.5071254186811345  0.6752555430177054  1.0000
  C   C2        1.0  0.11727866875845899  0.4930834389317553  0.4837752241097775  1.0000
  C   C3        1.0  0.1285952840759492  0.3673650086640663  0.4841676479285864  1.0000
  C   C4        1.0  0.5007736900599653  0.5027143009108812  0.30464372737256434  1.0000
  C   C5        1.0  0.8383491292946702  0.5555144308483977  0.5488776799761438  1.0000
  C   C6        1.0  0.5040584042354865  0.5018457711938635  0.22747070326627747  1.0000
  C   C7        1.0  0.47004138547234214  0.5508170839466118  0.1854140339542879  1.0000
  C   C8        1.0  0.4746936817525763  0.5430726177680754  0.11207601071736656  1.0000
  C   C9        1.0  0.5096552497613017  0.4894745585124482  0.08070842006556224  1.0000
  C   C10       1.0  0.5455678785361044  0.44167056377861513  0.12240423418560907  1.0000
  C   C11       1.0  0.5418054889466218  0.4500686970795442  0.19490375326766693  1.0000
  C   C12       1.0  0.9763455426517639  0.6478012476578031  0.5756454596800963  1.0000
  C   C13       1.0  0.546534808683603  0.5198875826103516  0.8741998362509377  1.0000
  C   C14       1.0  0.5504807041349622  0.5186622802057671  0.8013800312401071  1.0000
  C   C15       1.0  0.46175124974155324  0.5024568314449382  0.8978378113505127  1.0000
  C   C16       1.0  0.5187390265821108  0.32028688587922727  0.498444013386674  1.0000
  C   C17       1.0  0.47034531660148804  0.5037219266794821  0.7527637926638702  1.0000
  C   C18       1.0  0.3871658964693268  0.48851923431064387  0.7766524041663982  1.0000
  C   C19       1.0  0.382266746082614  0.486993825507611  0.8486990968793505  1.0000
  C   C20       1.0  0.4955777351702792  0.7702961266005701  0.5196253123828853  1.0000
  C   C21       1.0  0.4420724342221192  0.7988237131645165  0.4707629203559519  1.0000
  C   C22       1.0  0.43993961645312385  0.8715995916085287  0.47928274972249335  1.0000
  C   C23       1.0  0.023845206283759534  0.5985349411040133  0.554357128856374  1.0000
  C   C24       1.0  0.49371789468019495  0.916503331075454  0.538921110521258  1.0000
  C   C25       1.0  0.544000941204345  0.8866487635625191  0.5894785549867976  1.0000
  C   C26       1.0  0.5463092648870429  0.8148177715430194  0.5795573370364763  1.0000
  C   C27       1.0  0.48495397952854796  0.1357567110610347  0.560616211341859  1.0000
  C   C28       1.0  0.4982826603521886  0.6930842832837314  0.5090678888668164  1.0000
  C   C29       1.0  0.48310978283981854  0.20787353849267728  0.5550585451835486  1.0000
  C   C30       1.0  0.5289660512203724  0.0999197974140316  0.511469838790525  1.0000
  C   C31       1.0  0.5257650301187908  0.24443712812416155  0.5041679015989898  1.0000
  C   C32       1.0  0.5727328941695546  0.21186104455754418  0.4579222244416314  1.0000
  C   C33       1.0  0.5745107712342873  0.13966605192162973  0.46070004707460294  1.0000
  C   C34       1.0  0.9814277164342188  0.5252495769331489  0.5307076291165912  1.0000
  C   C35       1.0  0.2606300497912457  0.4558556775278222  0.4614082530907878  1.0000
  C   C36       1.0  0.738239552115381  0.5421183007429422  0.5320495846870797  1.0000
  C   C37       1.0  0.041230341207708014  0.3466571292984497  0.49587805743546903  1.0000
  C   C38       1.0  0.16794192842927202  0.43980266982196536  0.47610576885463013  1.0000
  C   C39       1.0  0.8825155384182182  0.6270762338979097  0.5696294862392361  1.0000
  C   C40       1.0  0.6311137184428118  0.5453707700802894  0.9268715531072116  1.0000
  C   C41       1.0  0.5832520224255688  0.3816561010621201  0.09577447436369367  1.0000
  C   C42       1.0  0.2908044731509491  0.467913360471904  0.8705990342444067  1.0000
  C   C43       1.0  0.3747912271608839  0.8983711012676279  0.4308319306482885  1.0000
  C   C44       1.0  0.638644310997641  0.5270901312695173  0.7730547492021173  1.0000
  C   C45       1.0  0.8876297724722519  0.502023006014298  0.5362369374305443  1.0000
  C   C46       1.0  0.03111887404465819  0.4736606771936708  0.5077157359719493  1.0000
  C   C47       1.0  0.990876026543276  0.39921503559419586  0.5075437228986599  1.0000
  C   C48       1.0  0.9020260073964153  0.377839679073567  0.5228843200560148  1.0000
  C   C49       1.0  0.8495705519100908  0.425827402344119  0.5361293948472576  1.0000
  N   N1        1.0  0.5155048942720555  0.48554611977176887  0.0075862089520767825  1.0000
  N   N2        1.0  0.45111582506873293  0.5012071516215356  0.969847531015105  1.0000
  N   N3        1.0  0.4986778872692241  0.9901931859188268  0.5523559197606573  1.0000
  N   N4        1.0  0.528287017641226  0.0283252753333585  0.5047919651936538  1.0000
  N   N5        1.0  0.43537380925171487  0.6039795310210608  0.21349254607331147  1.0000
  N   N6        1.0  0.44508874393684295  0.0998909367021596  0.6106310916781439  1.0000
  N   N7        1.0  0.6204902879801111  0.10566184207321783  0.4175543542073611  1.0000
  N   N8        1.0  0.1511031527619551  0.5612582739241107  0.4689736641082262  1.0000
  N   N9        1.0  0.7639149303047007  0.40132031950530234  0.5518815926465521  1.0000
  O   O1        1.0  0.4994914232046597  0.5042891661933595  0.49192924774621355  1.0000
  O   O2        1.0  0.30664672671258597  0.40812648214060243  0.47105850003245553  1.0000
  O   O3        1.0  0.6984419229730108  0.571236119153788  0.5773875312945831  1.0000
  O   O4        1.0  0.2946774621803526  0.5169282361154472  0.4395914689609625  1.0000
  O   O5        1.0  0.7018188449496349  0.5069073190196391  0.4722939951630777  1.0000
  O   O6        1.0  0.6485119997419985  0.6014473564299718  0.9663359111377329  1.0000
  O   O7        1.0  0.688562730122662  0.501535921067344  0.9211292301292175  1.0000
  O   O8        1.0  0.6303448990044841  0.3517072844774489  0.13349746680574975  1.0000
  O   O9        1.0  0.5594344586985329  0.3603114754787171  0.024765010395768183  1.0000
  O   O10       1.0  0.23017041552031964  0.496531094936863  0.851380526162792  1.0000
  O   O11       1.0  0.2812503173661511  0.4127316172081805  0.9111096304559041  1.0000
  O   O12       1.0  0.5588766184577382  0.353815525630054  0.4523844209247016  1.0000
  O   O13       1.0  0.343821858138284  0.9504417517423602  0.44436255144515957  1.0000
  O   O14       1.0  0.34745801138574717  0.8550145494612168  0.3675204115898012  1.0000
  O   O15       1.0  0.6577352146839387  0.4789255965735535  0.7368207431090281  1.0000
  O   O16       1.0  0.6942669725409516  0.5927570958554967  0.7935898343328913  1.0000
  O   O17       1.0  0.5542466479759013  0.6728327379347049  0.5534187002635703  1.0000
  O   O18       1.0  0.4118778881382212  0.46239439147755956  0.6327741976408275  1.0000
  O   O19       1.0  0.4532854253843439  0.5421161398263621  0.33251977778505887  1.0000
  O   O20       1.0  0.5361349412274024  0.5556094882382469  0.6595118403617164  1.0000
  O   O21       1.0  0.5443300369133013  0.46371682409848364  0.33818263221579764  1.0000
  O   O22       1.0  0.47191291128641666  0.34548339316158655  0.5404959619650282  1.0000
  O   O23       1.0  0.4453393187116816  0.6535880552909817  0.45704259757903287  1.0000
