data_image0
_chemical_formula_structural       Al4H28C60N4Cl8O20
_chemical_formula_sum              "Al4 H28 C60 N4 Cl8 O20"
_cell_length_a       6.644851619942603
_cell_length_b       20.360728589353595
_cell_length_c       22.081851402611186
_cell_angle_alpha    90.00090918409857
_cell_angle_beta     89.99050025802154
_cell_angle_gamma    84.346595181955

_space_group_name_H-M_alt    "P 1"
_space_group_IT_number       1

loop_
  _space_group_symop_operation_xyz
  'x, y, z'

loop_
  _atom_site_type_symbol
  _atom_site_label
  _atom_site_symmetry_multiplicity
  _atom_site_fract_x
  _atom_site_fract_y
  _atom_site_fract_z
  _atom_site_occupancy
  Al  Al1       1.0  0.995800199572251  0.31410225754938637  0.5024308788359875  1.0000
  Al  Al2       1.0  0.004271037126485922  0.6859097784653018  0.0024316929137384994  1.0000
  Al  Al3       1.0  0.49547090801145544  0.3110213122773685  0.5013463476768718  1.0000
  Al  Al4       1.0  0.5046098526294641  0.6889650164638539  0.0013443041921731998  1.0000
  H   H1        1.0  0.9780366194448432  0.47656174562456505  0.9457367164684028  1.0000
  H   H2        1.0  0.022507957540042905  0.5234838892586922  0.44580014240570875  1.0000
  H   H3        1.0  0.9482160460204055  0.33968675406394055  0.7733321247475117  1.0000
  H   H4        1.0  0.052045754786213566  0.660348839582774  0.273365447215255  1.0000
  H   H5        1.0  0.005976188223947107  0.3835353420378097  0.8712173666900184  1.0000
  H   H6        1.0  0.9943983701129041  0.6165077004178768  0.37126904036994546  1.0000
  H   H7        1.0  0.6424582092323304  0.5994376629429965  0.8158333437704712  1.0000
  H   H8        1.0  0.35754618633716717  0.40055894677926324  0.31576381802511116  1.0000
  H   H9        1.0  0.5740912269762077  0.630484787792703  0.6059312428340816  1.0000
  H   H10       1.0  0.42509488638615517  0.3694796684336338  0.10587006647271828  1.0000
  H   H11       1.0  0.8314206297207177  0.3534502183357161  0.6681970403420933  1.0000
  H   H12       1.0  0.1686727714146555  0.6465703432588157  0.168197968961131  1.0000
  H   H13       1.0  0.4885230698704746  0.19039932739330817  0.64393268804249  1.0000
  H   H14       1.0  0.5114403024072658  0.8095488919686601  0.14390706476833504  1.0000
  H   H15       1.0  0.42280540648322784  0.8153956823389872  0.8603857736635661  1.0000
  H   H16       1.0  0.5773625165790932  0.18458524781413388  0.36037148097854294  1.0000
  H   H17       1.0  0.9706285255139375  0.9625874641026043  0.8362503013166459  1.0000
  H   H18       1.0  0.029540949777114595  0.03740381127641259  0.3362813773583682  1.0000
  H   H19       1.0  0.10316863557965658  0.03475754386771969  0.6714159648996229  1.0000
  H   H20       1.0  0.8969075180881491  0.9652509059354841  0.17147125392659748  1.0000
  H   H21       1.0  0.48628390396343235  0.09823779522977107  0.7192232869632774  1.0000
  H   H22       1.0  0.5138098328299492  0.9017000481349696  0.21920664437936915  1.0000
  H   H23       1.0  0.3860136627888408  0.9072673855189776  0.783954854116402  1.0000
  H   H24       1.0  0.6141978721826361  0.09270331287572017  0.2839560663518768  1.0000
  H   H25       1.0  0.2410978676366327  0.3447532541153889  0.5745996072131659  1.0000
  H   H26       1.0  0.7589293145937717  0.6552689328770568  0.074599142693863  1.0000
  H   H27       1.0  0.7355357261162325  0.34147040284021557  0.42833785248401307  1.0000
  H   H28       1.0  0.2645834449345728  0.6585457498505036  0.9283269396134557  1.0000
  C   C1        1.0  0.21509665917253074  0.40128912626764196  0.42765262771819573  1.0000
  C   C2        1.0  0.785174359569339  0.59871645297725  0.9276594662253854  1.0000
  C   C3        1.0  0.27328110915438225  0.22103690924610925  0.43257980197387974  1.0000
  C   C4        1.0  0.7268320019095141  0.778961645364511  0.9325838245542143  1.0000
  C   C5        1.0  0.7790783865065052  0.22294169841750025  0.5735627897847239  1.0000
  C   C6        1.0  0.2208872980875611  0.7770558371464344  0.07355959545966329  1.0000
  C   C7        1.0  0.7114003250509313  0.4047954148448694  0.5731889126051114  1.0000
  C   C8        1.0  0.2886051833828843  0.5952067228833329  0.07317085456949708  1.0000
  C   C9        1.0  0.9334685074378156  0.43205383159124  0.858672470002446  1.0000
  C   C10       1.0  0.06682117339607879  0.5679719041821655  0.35871776400082206  1.0000
  C   C11       1.0  0.8058471681859911  0.5428512919124201  0.883681007981245  1.0000
  C   C12       1.0  0.19441486308294736  0.4571574274552927  0.38367741001542294  1.0000
  C   C13       1.0  0.6260823939283711  0.5258048334599436  0.5893341296749668  1.0000
  C   C14       1.0  0.37339396624553695  0.4741648758949992  0.08928607834557309  1.0000
  C   C15       1.0  0.6151165152807749  0.5821338274141111  0.6258342851766513  1.0000
  C   C16       1.0  0.38424226692131924  0.41783310331673107  0.1257743709489105  1.0000
  C   C17       1.0  0.6614228338326597  0.5770111229090061  0.6870535740122463  1.0000
  C   C18       1.0  0.3380061042213995  0.42295597252984846  0.1870049585503395  1.0000
  C   C19       1.0  0.7197398538023875  0.5152039725961687  0.7156985274263761  1.0000
  C   C20       1.0  0.27994886286848697  0.4847897061403755  0.21565999590148976  1.0000
  C   C21       1.0  0.74067076988743  0.45884183967872605  0.6758791286727757  1.0000
  C   C22       1.0  0.25914246502903626  0.5411461242423526  0.17584023580307218  1.0000
  C   C23       1.0  0.7688633618236835  0.5047344976720537  0.7796733420159399  1.0000
  C   C24       1.0  0.23102842332093584  0.4952765706743704  0.2796518025165611  1.0000
  C   C25       1.0  0.8626951234820907  0.4416191476397343  0.7986176470676156  1.0000
  C   C26       1.0  0.13735173832706235  0.5584014108754259  0.29862324612876273  1.0000
  C   C27       1.0  0.8822760960994102  0.3877065809782321  0.757143104207145  1.0000
  C   C28       1.0  0.11777993886708771  0.61231012826682  0.25714278762621484  1.0000
  C   C29       1.0  0.8178538857652669  0.39545401635887606  0.6989235574984248  1.0000
  C   C30       1.0  0.18219290940475463  0.6045581652188473  0.1989164820260996  1.0000
  C   C31       1.0  0.7294750200731812  0.5527983283292812  0.8255342193214188  1.0000
  C   C32       1.0  0.270653215956635  0.4472171935409505  0.32550198029121447  1.0000
  C   C33       1.0  0.9148506910056327  0.48273285442846237  0.9003136033245838  1.0000
  C   C34       1.0  0.08550134392472587  0.5172863172028669  0.40034636838147  1.0000
  C   C35       1.0  0.6906739444290082  0.46451778295296  0.6134494346966903  1.0000
  C   C36       1.0  0.3091132590068212  0.5354711205558687  0.1134149098057193  1.0000
  C   C37       1.0  0.7162967825715753  0.8363773496698029  0.8901589889364699  1.0000
  C   C38       1.0  0.2838501547522938  0.16361073923007294  0.39016799987182077  1.0000
  C   C39       1.0  0.8703392918677295  0.8792136832419143  0.883833616283269  1.0000
  C   C40       1.0  0.12980649278748052  0.12077625965375194  0.3838562980801967  1.0000
  C   C41       1.0  0.8522995853334265  0.9295479548361245  0.8410316311371275  1.0000
  C   C42       1.0  0.1478965730144779  0.0704259662482301  0.341064915029655  1.0000
  C   C43       1.0  0.6795368224409158  0.9386046451602039  0.8042837900960149  1.0000
  C   C44       1.0  0.3206315106679867  0.061376648215620784  0.3042922001626707  1.0000
  C   C45       1.0  0.521516708805656  0.8984751163913032  0.8117749504252103  1.0000
  C   C46       1.0  0.4786614742197131  0.10148950219235792  0.3117880074465731  1.0000
  C   C47       1.0  0.5424683066469597  0.8476311834488468  0.8539057233297952  1.0000
  C   C48       1.0  0.45770683685113056  0.15234168130334774  0.35391556856978207  1.0000
  C   C49       1.0  0.6202140073818825  0.1048906286977811  0.6923588848426405  1.0000
  C   C50       1.0  0.3798537036988492  0.8950734841157272  0.19235589540622297  1.0000
  C   C51       1.0  0.6223417651055101  0.15583007808777444  0.6508860451736992  1.0000
  C   C52       1.0  0.3776453981270436  0.8441407461034912  0.15087871735955358  1.0000
  C   C53       1.0  0.7960006008443654  0.061245093051184085  0.6997318777974469  1.0000
  C   C54       1.0  0.20411110557942186  0.9387311303304737  0.1997529494246209  1.0000
  C   C55       1.0  0.7940615633130577  0.1650662274452088  0.6155532247745014  1.0000
  C   C56       1.0  0.20592923188575435  0.8349220909398055  0.1155544187074042  1.0000
  C   C57       1.0  0.9679049740918158  0.11990832078917892  0.6226586027017261  1.0000
  C   C58       1.0  0.03211487713850402  0.8801055187915378  0.1226788255891691  1.0000
  C   C59       1.0  0.9688245822024371  0.0693018190491372  0.6652635283481912  1.0000
  C   C60       1.0  0.03125110891269864  0.9307050349319109  0.16530905270771967  1.0000
  N   N1        1.0  0.6530931528362345  0.9887079734553053  0.759770181067388  1.0000
  N   N2        1.0  0.3470862105456476  0.011256098159215397  0.2597820229824279  1.0000
  N   N3        1.0  0.8173309427978808  0.0085295871332107  0.7415007831615766  1.0000
  N   N4        1.0  0.18283200567833532  0.9914554305406682  0.2415300271622129  1.0000
  Cl  Cl1       1.0  0.18425812952283843  0.12194668002274507  0.5797168168546633  1.0000
  Cl  Cl2       1.0  0.8157357417721014  0.8781024678109827  0.07975100066841628  1.0000
  Cl  Cl3       1.0  0.08239229514327916  0.8740825845748501  0.9295728097579499  1.0000
  Cl  Cl4       1.0  0.9177181046367194  0.1259159321308161  0.4295958484691552  1.0000
  Cl  Cl5       1.0  0.5695023660841442  0.5349655412644764  0.5131046089789137  1.0000
  Cl  Cl6       1.0  0.429992907908172  0.46499610581729184  0.013061442721564696  1.0000
  Cl  Cl7       1.0  0.6548621772820766  0.6533729045243744  0.7230018410626328  1.0000
  Cl  Cl8       1.0  0.34417855425493826  0.34659797697926814  0.22294741182229671  1.0000
  O   O1        1.0  0.44111608110179645  0.23794855897565975  0.45198215985586637  1.0000
  O   O2        1.0  0.5589828573071429  0.7620677301622719  0.9520106390956257  1.0000
  O   O3        1.0  0.049479002365217184  0.3862037884599302  0.4504088447697967  1.0000
  O   O4        1.0  0.9507552006963208  0.6137912054954667  0.9504234368365585  1.0000
  O   O5        1.0  0.8902349711273131  0.3802077212795111  0.5611646957930176  1.0000
  O   O6        1.0  0.10983931570938664  0.6198478098207402  0.06119164827463659  1.0000
  O   O7        1.0  0.1004659010276256  0.2504128587546148  0.444464006927049  1.0000
  O   O8        1.0  0.8996149751235761  0.7495704261002556  0.9444476289801712  1.0000
  O   O9        1.0  0.9414238544640269  0.24475157948693743  0.5557551387071414  1.0000
  O   O10       1.0  0.05851943643847329  0.755311776228936  0.05571851584439708  1.0000
  O   O11       1.0  0.39093682000756047  0.37269272359578304  0.4381718291296436  1.0000
  O   O12       1.0  0.6093403810291632  0.6273637430944419  0.9381634120266538  1.0000
  O   O13       1.0  0.24599909343090323  0.3158610862214175  0.5395758042329319  1.0000
  O   O14       1.0  0.7540703405529855  0.6841536698449602  0.0395744700503755  1.0000
  O   O15       1.0  0.6013099827840518  0.24772607083819748  0.5600148534356533  1.0000
  O   O16       1.0  0.39863944538140567  0.7522265071130219  0.060024204613910094  1.0000
  O   O17       1.0  0.547771944043319  0.3839714858310329  0.5551499731596933  1.0000
  O   O18       1.0  0.452304984312441  0.6159893432299696  0.055105934962888584  1.0000
  O   O19       1.0  0.7452081245596176  0.31495001331590083  0.46493477651736  1.0000
  O   O20       1.0  0.2549052751509037  0.685067895011997  0.9649245127514375  1.0000
