data_image0
_chemical_formula_structural       Zn4H38C60N6O14
_chemical_formula_sum              "Zn4 H38 C60 N6 O14"
_cell_length_a       8.175961305933564
_cell_length_b       12.47611161656542
_cell_length_c       14.173885110201386
_cell_angle_alpha    64.72503380677266
_cell_angle_beta     88.25358340316498
_cell_angle_gamma    72.96293916855389

_space_group_name_H-M_alt    "P 1"
_space_group_IT_number       1

loop_
  _space_group_symop_operation_xyz
  'x, y, z'

loop_
  _atom_site_type_symbol
  _atom_site_label
  _atom_site_symmetry_multiplicity
  _atom_site_fract_x
  _atom_site_fract_y
  _atom_site_fract_z
  _atom_site_occupancy
  Zn  Zn1       1.0  0.6507916264819044  0.04875305627511041  0.4380381067829261  1.0000
  Zn  Zn2       1.0  0.3492076994472984  0.9512482039830982  0.5619601769155553  1.0000
  Zn  Zn3       1.0  0.729090045379685  0.8725759917134749  0.7078863206332643  1.0000
  Zn  Zn4       1.0  0.2709125493515572  0.12742339129845698  0.29211400148237493  1.0000
  H   H1        1.0  0.44115520515738643  0.3236422723533394  0.3269410570509876  1.0000
  H   H2        1.0  0.5588473989437193  0.6763599132320336  0.6730568027111801  1.0000
  H   H3        1.0  0.43224077718056  0.5121019545231178  0.15957579419072937  1.0000
  H   H4        1.0  0.5677630136437982  0.4878974343799883  0.8404230865147753  1.0000
  H   H5        1.0  0.6496490769828468  0.487717101805849  0.033769010676437  1.0000
  H   H6        1.0  0.35035147352845547  0.5122841561522761  0.9662292451480923  1.0000
  H   H7        1.0  0.8474849631882718  0.09845468524930111  0.2508262676916502  1.0000
  H   H8        1.0  0.15251315240331548  0.9015465732133592  0.7491727506488745  1.0000
  H   H9        1.0  0.9717037777219272  0.07196739093144798  0.13283987178592582  1.0000
  H   H10       1.0  0.028298421434897067  0.9280329243079067  0.8671601100152699  1.0000
  H   H11       1.0  0.21201308598786986  0.2486853994030865  0.860894722425634  1.0000
  H   H12       1.0  0.7879882556722675  0.7513139941001936  0.1391042140277748  1.0000
  H   H13       1.0  0.8221027111079875  0.6057840742720372  0.8657299834881016  1.0000
  H   H14       1.0  0.17789538086923784  0.3942143857128214  0.13427079043780313  1.0000
  H   H15       1.0  0.23639064908624627  0.40240553249010697  0.7515997081707936  1.0000
  H   H16       1.0  0.7636094822362834  0.5975938592176246  0.24839996292466543  1.0000
  H   H17       1.0  0.2426848816283069  0.6068360074940458  0.6103231919774998  1.0000
  H   H18       1.0  0.7573160787019192  0.3931643141410247  0.38967611092956395  1.0000
  H   H19       1.0  0.036370238473757775  0.8021407742218188  0.6033925327323999  1.0000
  H   H20       1.0  0.963629511518846  0.1978595456177031  0.3966075048167069  1.0000
  H   H21       1.0  0.19458991810377319  0.9149909213206086  0.1714922139847772  1.0000
  H   H22       1.0  0.8054078161578956  0.08501126527384169  0.8285071708094022  1.0000
  H   H23       1.0  0.39066881973192835  0.7167403232912121  0.1839920196288532  1.0000
  H   H24       1.0  0.6093280855220441  0.28326093337590663  0.8160077333537217  1.0000
  H   H25       1.0  0.5479616644007167  0.7094837766243954  0.030403261127681054  1.0000
  H   H26       1.0  0.4520360698609522  0.290518409970062  0.9695961236664984  1.0000
  H   H27       1.0  0.2806661080074875  0.09430290429149579  0.8452529351689293  1.0000
  H   H28       1.0  0.7193364867237549  0.9056964787204365  0.15474738694670986  1.0000
  H   H29       1.0  0.5536558108848836  0.2752208157666018  0.6267853751664418  1.0000
  H   H30       1.0  0.4463435720223003  0.724780428109085  0.37321573560441135  1.0000
  H   H31       1.0  0.5504484189878411  0.47581726524736456  0.6267589017308737  1.0000
  H   H32       1.0  0.44955218850144973  0.5241839763282312  0.3732421811660204  1.0000
  H   H33       1.0  0.8213962808197125  0.5340264379815804  0.6087302997204845  1.0000
  H   H34       1.0  0.1786051556772676  0.46597573352135396  0.39127041498801424  1.0000
  H   H35       1.0  0.09061855406025643  0.3923563947751062  0.5864812141718119  1.0000
  H   H36       1.0  0.9093820534290344  0.6076448468004969  0.41351986872508223  1.0000
  H   H37       1.0  0.3376981672892327  0.16487683337880546  0.45062377672800114  1.0000
  H   H38       1.0  0.6623011871289606  0.8351244186881386  0.5493759205066625  1.0000
  C   C1        1.0  0.5302943155615694  0.3180459687983585  0.2691543161531058  1.0000
  C   C2        1.0  0.46970702609857545  0.6819534247049218  0.730844620300303  1.0000
  C   C3        1.0  0.5268396209296357  0.4221064093541712  0.17647757221259755  1.0000
  C   C4        1.0  0.47316542296582026  0.5778929690575865  0.8235226941551373  1.0000
  C   C5        1.0  0.6450209234089571  0.4086397981459626  0.1063668451670878  1.0000
  C   C6        1.0  0.35498040400668873  0.5913595994529429  0.8936313845182299  1.0000
  C   C7        1.0  0.7621263171926811  0.29102612663286453  0.1290921238856129  1.0000
  C   C8        1.0  0.23787418121527537  0.7089723410387093  0.870906473988107  1.0000
  C   C9        1.0  0.7571253667081237  0.1919560971557245  0.2248718028770966  1.0000
  C   C10       1.0  0.2428731444578816  0.8080442290795206  0.7751275557778713  1.0000
  C   C11       1.0  0.8882654804423565  0.2737691242529436  0.05539425843508639  1.0000
  C   C12       1.0  0.11173379338349324  0.7262293457187141  0.9446043673125786  1.0000
  C   C13       1.0  0.9874786441381787  0.15468967266242828  0.06853734312478112  1.0000
  C   C14       1.0  0.012523950593063682  0.8453097103494969  0.9314629789908649  1.0000
  C   C15       1.0  0.10661889444920553  0.14290540227538878  0.9977209829270848  1.0000
  C   C16       1.0  0.8933796309612987  0.8570949198642239  0.002279082495981351  1.0000
  C   C17       1.0  0.11840806066480519  0.2534085623996702  0.9161044601378379  1.0000
  C   C18       1.0  0.8815932809953393  0.7465908311036102  0.08389447631557094  1.0000
  C   C19       1.0  0.014462674954756956  0.3688020280022427  0.9073059092537932  1.0000
  C   C20       1.0  0.9855345688956589  0.6311983128199755  0.09269135697085326  1.0000
  C   C21       1.0  0.9167661973134713  0.6010887301338171  0.8108081245300411  1.0000
  C   C22       1.0  0.08323390552006771  0.3989106697651792  0.18919013302923557  1.0000
  C   C23       1.0  0.027320485128498696  0.4861072831793436  0.8214045551222071  1.0000
  C   C24       1.0  0.9726743380466869  0.5138930540517918  0.1785941803865328  1.0000
  C   C25       1.0  0.14646109157751402  0.48860077922384443  0.7475488249642409  1.0000
  C   C26       1.0  0.8535390255005239  0.5113986165795195  0.25245013936311983  1.0000
  C   C27       1.0  0.15154002789859797  0.6017777431217438  0.6684878868526242  1.0000
  C   C28       1.0  0.8484596699906602  0.3982197864312341  0.3315124927456735  1.0000
  C   C29       1.0  0.036503791089721425  0.7113731273757223  0.6637269994150117  1.0000
  C   C30       1.0  0.9634954827361283  0.2886253425959352  0.33627162633266044  1.0000
  C   C31       1.0  0.22033978813533392  0.021430238742858893  0.007493423113047003  1.0000
  C   C32       1.0  0.7796623731626369  0.9785672821143123  0.9925076075054305  1.0000
  C   C33       1.0  0.2539108909208208  0.9122520120019575  0.10227811719146722  1.0000
  C   C34       1.0  0.7460888354574279  0.0877455093597561  0.8977236759430127  1.0000
  C   C35       1.0  0.36844686723697606  0.8002904585304333  0.10991226241525007  1.0000
  C   C36       1.0  0.6315540694788807  0.1997070646268284  0.8900887960771868  1.0000
  C   C37       1.0  0.455141469726243  0.7954394955540991  0.02489076171153942  1.0000
  C   C38       1.0  0.5448586664709154  0.2045570894845596  0.9751120785054824  1.0000
  C   C39       1.0  0.42302714600389646  0.9035338571499307  0.929944335362187  1.0000
  C   C40       1.0  0.5769754678464665  0.0964627150972959  0.0700598626431059  1.0000
  C   C41       1.0  0.30405212978731555  0.013999191442671598  0.9215508462922697  1.0000
  C   C42       1.0  0.6959517180150241  0.9860001810779122  0.07845086148560666  1.0000
  C   C43       1.0  0.5164386975102531  0.9055063250110679  0.8372193951096422  1.0000
  C   C44       1.0  0.48356144805676854  0.09449306260103191  0.16278098275390818  1.0000
  C   C45       1.0  0.8070724938975999  0.10707718328573888  0.6022415150400773  1.0000
  C   C46       1.0  0.19292483054515225  0.8929259396317735  0.3977568226715674  1.0000
  C   C47       1.0  0.824503013883671  0.22012955317324412  0.6101370001184562  1.0000
  C   C48       1.0  0.17549636902351304  0.7798716907024357  0.3898641106523969  1.0000
  C   C49       1.0  0.671878733948759  0.3006392022581607  0.6207090437096241  1.0000
  C   C50       1.0  0.32811983419522767  0.699361107594555  0.3792931420177156  1.0000
  C   C51       1.0  0.6707082093373415  0.4126497534714347  0.6208640299986216  1.0000
  C   C52       1.0  0.3292932035452766  0.5873496195536915  0.3791384402952502  1.0000
  C   C53       1.0  0.8222796561573846  0.44516721855414676  0.6114240245327238  1.0000
  C   C54       1.0  0.1777221616695215  0.5548340248169978  0.3885763237221198  1.0000
  C   C55       1.0  0.9729128676815223  0.36629698190584037  0.5989941281350185  1.0000
  C   C56       1.0  0.027087697074286248  0.6337042719566525  0.40100483445759494  1.0000
  C   C57       1.0  0.9761169579233807  0.2543757589565843  0.5968197311471923  1.0000
  C   C58       1.0  0.023882410739304406  0.7456254890147347  0.4031806728555622  1.0000
  C   C59       1.0  0.1353910894015158  0.1820854914001941  0.5682022015011583  1.0000
  C   C60       1.0  0.8646054487670369  0.8179166893030825  0.4317986247031628  1.0000
  N   N1        1.0  0.6445378707738101  0.20535200048632862  0.2928796156762843  1.0000
  N   N2        1.0  0.3554622320597288  0.7946473994126677  0.7071186418829855  1.0000
  N   N3        1.0  0.9004443352031757  0.37904533647040484  0.9758303936067775  1.0000
  N   N4        1.0  0.09954961623083138  0.6209540831202814  0.02416658978609131  1.0000
  N   N5        1.0  0.9210385134675929  0.7100851119572907  0.7336104683998884  1.0000
  N   N6        1.0  0.07896243261813404  0.28991521377341195  0.2663881277390843  1.0000
  O   O1        1.0  0.4734876252144388  0.0003619065792576989  0.749974763733384  1.0000
  O   O2        1.0  0.5265146309203602  0.9996383922775746  0.25002804514018356  1.0000
  O   O3        1.0  0.6437034163364148  0.8072549256935131  0.8511603362323896  1.0000
  O   O4        1.0  0.3562950569707297  0.19274260615955544  0.14884007123986007  1.0000
  O   O5        1.0  0.7532222423983795  0.1275518778800659  0.5113282773138863  1.0000
  O   O6        1.0  0.24677548249341918  0.8724475061409432  0.48867356983376453  1.0000
  O   O7        1.0  0.8332215689675876  0.006526220470327401  0.6863857741301231  1.0000
  O   O8        1.0  0.1667798011815406  0.9934731648416887  0.3136145758594679  1.0000
  O   O9        1.0  0.1482903969255815  0.06812256582074376  0.5911711759236624  1.0000
  O   O10       1.0  0.8517085619181942  0.9318796184736226  0.408828180996558  1.0000
  O   O11       1.0  0.23906813587906584  0.23864142775394728  0.5192041387208448  1.0000
  O   O12       1.0  0.7609300366905032  0.761359814326191  0.48079770669205146  1.0000
  O   O13       1.0  0.3884233133078681  0.10047576122096295  0.42380694964638366  1.0000
  O   O14       1.0  0.6115776897558405  0.8995245481272106  0.5761944735649538  1.0000
