data_image0
_chemical_formula_structural       Zn2H16C46I4N4O12
_chemical_formula_sum              "Zn2 H16 C46 I4 N4 O12"
_cell_length_a       13.832834425414918
_cell_length_b       15.317946347568235
_cell_length_c       16.11447969485263
_cell_angle_alpha    90.64111504906627
_cell_angle_beta     89.89347472666148
_cell_angle_gamma    89.1150211761899

_space_group_name_H-M_alt    "P 1"
_space_group_IT_number       1

loop_
  _space_group_symop_operation_xyz
  'x, y, z'

loop_
  _atom_site_type_symbol
  _atom_site_label
  _atom_site_symmetry_multiplicity
  _atom_site_fract_x
  _atom_site_fract_y
  _atom_site_fract_z
  _atom_site_occupancy
  Zn  Zn1       1.0  0.5996769332470961  0.5002743452689984  0.5000463934502832  1.0000
  Zn  Zn2       1.0  0.4003226371261448  0.49972650806651586  0.4999525175499571  1.0000
  H   H1        1.0  0.41481872550443905  0.6305721288177041  0.0534940776019539  1.0000
  H   H2        1.0  0.5851808527160499  0.3694280783325111  0.9465060708223942  1.0000
  H   H3        1.0  0.5808615472900982  0.6305607952450669  0.9494586776103588  1.0000
  H   H4        1.0  0.41913803076511863  0.3694394085323509  0.050540850226781196  1.0000
  H   H5        1.0  0.3325694000060935  0.49999144606075424  0.9499064269914328  1.0000
  H   H6        1.0  0.6674309008501281  0.500008751031956  0.0500924788942427  1.0000
  H   H7        1.0  0.40822354631001895  0.2261891416714192  0.4018884455472005  1.0000
  H   H8        1.0  0.5917767637156574  0.7738104362183478  0.5981166624602351  1.0000
  H   H9        1.0  0.647290061862506  0.0737378480584994  0.6714517097561554  1.0000
  H   H10       1.0  0.3527124018633571  0.9262630223845176  0.3285527810719059  1.0000
  H   H11       1.0  0.7526182880479267  0.3976825288585388  0.4166341909056257  1.0000
  H   H12       1.0  0.24737841267972266  0.6023163721863655  0.5833634731263118  1.0000
  H   H13       1.0  0.74900221816047  0.5982843025491602  0.5903272822902962  1.0000
  H   H14       1.0  0.250998781459174  0.4017178162963617  0.40966542760996555  1.0000
  H   H15       1.0  0.08876742534122428  0.6679797706270918  0.6387486285309122  1.0000
  H   H16       1.0  0.9112328279356702  0.33202429345904955  0.3612409910484971  1.0000
  C   C1        1.0  0.4980914561561606  0.6708658982266369  0.4970643582294727  1.0000
  C   C2        1.0  0.501911722358173  0.32913560834418837  0.5029376526358077  1.0000
  C   C3        1.0  0.5013330963603266  0.4976094015070131  0.33786791346928874  1.0000
  C   C4        1.0  0.4986657505508063  0.5023914450220275  0.66212913713359  1.0000
  C   C5        1.0  0.5450306646594854  0.5726207262068996  0.9729106730597294  1.0000
  C   C6        1.0  0.45496819042944747  0.4273794808824362  0.0270888561416669  1.0000
  C   C7        1.0  0.4525073590904114  0.5725869745404565  0.0287435182423792  1.0000
  C   C8        1.0  0.5474929566339242  0.4274119133176767  0.971254759555471  1.0000
  C   C9        1.0  0.5006416445861319  0.49860243483210087  0.24853353853089996  1.0000
  C   C10       1.0  0.499355034748369  0.5013984486150491  0.7514684808624139  1.0000
  C   C11       1.0  0.5931595406695251  0.4999634998186976  0.026999454224622396  1.0000
  C   C12       1.0  0.40684003722041234  0.5000367005859302  0.9729994530253094  1.0000
  C   C13       1.0  0.5008792868479262  0.49991965204815597  0.0852232146910765  1.0000
  C   C14       1.0  0.49911885312197757  0.5000799121677915  0.9147775532986842  1.0000
  C   C15       1.0  0.5004128720186926  0.4995470845480483  0.1729063776175934  1.0000
  C   C16       1.0  0.4995823593999233  0.5004537650493859  0.8270881974577547  1.0000
  C   C17       1.0  0.4490869121964991  0.1875478711329421  0.4465495915928415  1.0000
  C   C18       1.0  0.5509148283978008  0.8124529992492028  0.553454280012275  1.0000
  C   C19       1.0  0.5027256411779604  0.2311244440955278  0.5069681060108309  1.0000
  C   C20       1.0  0.49727611444973263  0.7688751204248232  0.4930357580936685  1.0000
  C   C21       1.0  0.5535468298775327  0.1832915442738141  0.5667670101488369  1.0000
  C   C22       1.0  0.4464541959282897  0.8167086899805297  0.4332393414190605  1.0000
  C   C23       1.0  0.5535413655477938  0.09085900088338411  0.5651465064073591  1.0000
  C   C24       1.0  0.44645890755551687  0.9091438551520312  0.43486110270044515  1.0000
  C   C25       1.0  0.5000078908793099  0.04658403299116289  0.5013671461754682  1.0000
  C   C26       1.0  0.4999938505413795  0.9534168542549535  0.4986398283656825  1.0000
  C   C27       1.0  0.4465026516345176  0.096415637941071  0.441759674156124  1.0000
  C   C28       1.0  0.5534991051501094  0.9035839501888461  0.5582485340588261  1.0000
  C   C29       1.0  0.6064417041239382  0.039538915278399096  0.6237791205332001  1.0000
  C   C30       1.0  0.3935614672042504  0.9604632509689067  0.3762241352568054  1.0000
  C   C31       1.0  0.6073652438270896  0.9504904920816201  0.6199944590310122  1.0000
  C   C32       1.0  0.39263505149575206  0.04951039841552779  0.3800118976514567  1.0000
  C   C33       1.0  0.7963462656217714  0.4419274911728692  0.4539184692745692  1.0000
  C   C34       1.0  0.20365188103844636  0.5580714032482065  0.5460791920288486  1.0000
  C   C35       1.0  0.7945345946442045  0.5554882884432429  0.552110729077036  1.0000
  C   C36       1.0  0.20546422955155919  0.4445145135056805  0.4478857121895601  1.0000
  C   C37       1.0  0.8960015460433794  0.5588655480272777  0.5547840666516277  1.0000
  C   C38       1.0  0.10399581652532673  0.4411385529160795  0.4452099024952716  1.0000
  C   C39       1.0  0.9486643371367478  0.49993074614056343  0.5016023868251622  1.0000
  C   C40       1.0  0.051332302796225804  0.5000733648602989  0.4983928248604101  1.0000
  C   C41       1.0  0.8975458076976821  0.43955048281328857  0.4509959822815119  1.0000
  C   C42       1.0  0.10245229270541502  0.560452305583574  0.548997357413306  1.0000
  C   C43       1.0  0.9514715757702418  0.618944753126172  0.6042301176112943  1.0000
  C   C44       1.0  0.0485294003076575  0.3810593042752615  0.3957588800166434  1.0000
  C   C45       1.0  0.050070960728874084  0.6206480149639831  0.6008918441646642  1.0000
  C   C46       1.0  0.9499307845724161  0.3793521451497456  0.39910147370762417  1.0000
  I   I1        1.0  0.6236562803396879  0.2510671279007113  0.6640024437371607  1.0000
  I   I2        1.0  0.3763468759551145  0.7489363442083742  0.3360008195534689  1.0000
  I   I3        1.0  0.6935836299300602  0.8819032366065187  0.7062993700036414  1.0000
  I   I4        1.0  0.3064188262790993  0.11809828676739897  0.29370512457473547  1.0000
  N   N1        1.0  0.7481267305261242  0.4990250803982548  0.5025456347029191  1.0000
  N   N2        1.0  0.2518714012659728  0.5009751232573976  0.49745265468832395  1.0000
  N   N3        1.0  0.9038280149493827  0.680443514123759  0.6634546376846373  1.0000
  N   N4        1.0  0.0961686004501843  0.31956251519623885  0.33653313820536823  1.0000
  O   O1        1.0  0.5809929145114409  0.6340025930821651  0.49783913167570404  1.0000
  O   O2        1.0  0.4190095405407845  0.3659989066821864  0.5021610187922221  1.0000
  O   O3        1.0  0.4168753911966831  0.6337114237845611  0.5016875437474013  1.0000
  O   O4        1.0  0.5831285169742416  0.3662894096794743  0.4983113590672801  1.0000
  O   O5        1.0  0.583844570784329  0.49773522430808725  0.3731029971787478  1.0000
  O   O6        1.0  0.41615356100777495  0.5022649793475651  0.6268952922124953  1.0000
  O   O7        1.0  0.4191664453465904  0.496886820347143  0.3740170789050197  1.0000
  O   O8        1.0  0.5808331175099611  0.5031146859192646  0.6259818358455291  1.0000
  O   O9        1.0  0.8298203174451332  0.6552151034615007  0.6988749840304533  1.0000
  O   O10       1.0  0.942426326074333  0.7518718567869486  0.6749698488899583  1.0000
  O   O11       1.0  0.17018497536785296  0.344790923216287  0.3011196019477254  1.0000
  O   O12       1.0  0.05756877375909401  0.2481400150613737  0.3250105164348511  1.0000
