data_image0
_chemical_formula_structural       Ho4H28C36S6O32
_chemical_formula_sum              "Ho4 H28 C36 S6 O32"
_cell_length_a       5.740560654714194
_cell_length_b       12.85985537803185
_cell_length_c       15.94247108878836
_cell_angle_alpha    80.59887331715596
_cell_angle_beta     79.6748895615813
_cell_angle_gamma    77.10921733463354

_space_group_name_H-M_alt    "P 1"
_space_group_IT_number       1

loop_
  _space_group_symop_operation_xyz
  'x, y, z'

loop_
  _atom_site_type_symbol
  _atom_site_label
  _atom_site_symmetry_multiplicity
  _atom_site_fract_x
  _atom_site_fract_y
  _atom_site_fract_z
  _atom_site_occupancy
  Ho  Ho1       1.0  0.9756696296291952  0.8476208617298937  0.8874329987558621  1.0000
  Ho  Ho2       1.0  0.7102611647806261  0.6524594581713643  0.6126388386973004  1.0000
  Ho  Ho3       1.0  0.02432843764100309  0.1523785218574716  0.11256677668274759  1.0000
  Ho  Ho4       1.0  0.2897354181824029  0.3475423386195686  0.387359319223627  1.0000
  H   H1        1.0  0.05583782042921133  0.680648893480125  0.08776283629007507  1.0000
  H   H2        1.0  0.8231322813388217  0.8197306636638828  0.41217968755342566  1.0000
  H   H3        1.0  0.9441656981443675  0.3193520989096257  0.9122412278108171  1.0000
  H   H4        1.0  0.17686502332212267  0.1802695243246788  0.5878186357679238  1.0000
  H   H5        1.0  0.1307377275336351  0.4937269713126398  0.18917749212285873  1.0000
  H   H6        1.0  0.8131611524136558  0.0065027792214352  0.31070498381011186  1.0000
  H   H7        1.0  0.8692776077005891  0.5062740210771111  0.8108253823813881  1.0000
  H   H8        1.0  0.18684148081668925  0.9934966043659301  0.6892937680230274  1.0000
  H   H9        1.0  0.24165806128475997  0.152404262695562  0.795069603918037  1.0000
  H   H10       1.0  0.18868219442895687  0.34803624095034275  0.7049907582978604  1.0000
  H   H11       1.0  0.758339284287523  0.8475967296941889  0.20493000612014353  1.0000
  H   H12       1.0  0.8113144831587322  0.6519639470382116  0.29500819209675194  1.0000
  H   H13       1.0  0.4395857021484282  0.9110133063246124  0.816588765454682  1.0000
  H   H14       1.0  0.16683993412939926  0.5889326785778906  0.6835421161139904  1.0000
  H   H15       1.0  0.5604090405061514  0.0889892948675168  0.18341256040285706  1.0000
  H   H16       1.0  0.8331633389762062  0.4110634874047179  0.3164542276859094  1.0000
  H   H17       1.0  0.42098070031463014  0.8160465062128495  0.7656574590760242  1.0000
  H   H18       1.0  0.0025817861168776516  0.6837096400087717  0.7346220967230932  1.0000
  H   H19       1.0  0.5790112629749303  0.1839577037816653  0.23434221669351973  1.0000
  H   H20       1.0  0.997430623756685  0.3162841127702691  0.2653770680203705  1.0000
  H   H21       1.0  0.9454191889857171  0.916315918970291  0.060695486726444856  1.0000
  H   H22       1.0  0.9220209507585937  0.5838126650023767  0.43946967652283314  1.0000
  H   H23       1.0  0.05457229556856942  0.08368426901826351  0.9393051143469076  1.0000
  H   H24       1.0  0.07796807921597812  0.4161851097826101  0.5605329386004172  1.0000
  H   H25       1.0  0.6738531477688526  0.9537012686852222  0.049094893331798055  1.0000
  H   H26       1.0  0.6767225829304736  0.5461103812185186  0.4508406393459977  1.0000
  H   H27       1.0  0.3261407913651485  0.046301332506906996  0.9509036936916501  1.0000
  H   H28       1.0  0.3232638032150635  0.4538881979676574  0.549162404879773  1.0000
  C   C1        1.0  0.47012152760028486  0.7478252412734605  0.9813424366943618  1.0000
  C   C2        1.0  0.19855945813072412  0.7523113867111135  0.518776958772676  1.0000
  C   C3        1.0  0.5298777938164322  0.2521741423139048  0.018656084597722583  1.0000
  C   C4        1.0  0.8014481965333787  0.24768558367268412  0.48122164462888856  1.0000
  C   C5        1.0  0.4431045836877774  0.6514595874919706  0.04339638526098348  1.0000
  C   C6        1.0  0.1373129447997461  0.848615906002152  0.4566299343705109  1.0000
  C   C7        1.0  0.5569006805695907  0.3485422092989694  0.9566037184295977  1.0000
  C   C8        1.0  0.8626864175283019  0.1513842819864095  0.5433698736384114  1.0000
  C   C9        1.0  0.23098889880024148  0.6276565518732795  0.09199761821713537  1.0000
  C   C10       1.0  0.9498341538331659  0.8725653426374578  0.4079857369062266  1.0000
  C   C11       1.0  0.7690269328189249  0.3723428317140929  0.9080074181778455  1.0000
  C   C12       1.0  0.050164540510287736  0.1274340409499146  0.5920134114591207  1.0000
  C   C13       1.0  0.2697233046732282  0.5291190148782903  0.14577659751856226  1.0000
  C   C14       1.0  0.9441141046998073  0.9710513979562662  0.354166457598815  1.0000
  C   C15       1.0  0.7302918052480153  0.4708819775114534  0.8542282734759892  1.0000
  C   C16       1.0  0.05588319996114452  0.028948790032288195  0.6458318657225346  1.0000
  C   C17       1.0  0.5116578285626762  0.47849322157296104  0.13666301894028976  1.0000
  C   C18       1.0  0.12672552190465333  0.0214855557897735  0.36327620781277387  1.0000
  C   C19       1.0  0.4883508293309766  0.5215101840203573  0.8633398887250079  1.0000
  C   C20       1.0  0.8732742012723597  0.9785138277975918  0.6367236828963596  1.0000
  C   C21       1.0  0.6208188585146531  0.3717845772881034  0.17768637668933707  1.0000
  C   C22       1.0  0.17052471435041383  0.1281612196258379  0.3222572894903236  1.0000
  C   C23       1.0  0.3791813482452968  0.6282164151016474  0.8223174568705074  1.0000
  C   C24       1.0  0.8294739262797114  0.8718405771651021  0.6777423531181695  1.0000
  C   C25       1.0  0.7210901675568524  0.058526621795302  0.8398191782203737  1.0000
  C   C26       1.0  0.6195317830213655  0.4415889037697696  0.6599836234988671  1.0000
  C   C27       1.0  0.27891077370302514  0.9414695441873064  0.1601830397799232  1.0000
  C   C28       1.0  0.380461221903744  0.5584120886199813  0.34001501365447945  1.0000
  C   C29       1.0  0.6176318357027244  0.1608504751924755  0.7925760680720939  1.0000
  C   C30       1.0  0.5710435419291786  0.3393133144440057  0.707149568385766  1.0000
  C   C31       1.0  0.38237021136568244  0.8391497127960789  0.2074245975511387  1.0000
  C   C32       1.0  0.42894515045809095  0.6606916999516984  0.29285116355956115  1.0000
  C   C33       1.0  0.3830686928931401  0.1988801502607416  0.7741311364900196  1.0000
  C   C34       1.0  0.3558587041817208  0.3014702604518646  0.7258068710119899  1.0000
  C   C35       1.0  0.6169294152883895  0.80112003772782  0.22586992566542105  1.0000
  C   C36       1.0  0.6441317387370167  0.6985331451414538  0.2741947686775531  1.0000
  S   S1        1.0  0.6889600889215401  0.5511773043154804  0.061736564210633574  1.0000
  S   S2        1.0  0.30166682326457583  0.9486970888810973  0.4382772606492295  1.0000
  S   S3        1.0  0.31105040928056177  0.4488252968766488  0.9382631755180453  1.0000
  S   S4        1.0  0.6983288254895615  0.05130309910746429  0.5617209474015963  1.0000
  S   S5        1.0  0.8007264092422023  0.250011107513501  0.7497986118464508  1.0000
  S   S6        1.0  0.19926393905187487  0.749993906882196  0.25020223536940017  1.0000
  O   O1        1.0  0.32914341652685425  0.8810638412117342  0.7907316358687168  1.0000
  O   O2        1.0  0.0007131372674255235  0.6187236766563018  0.7094810531608997  1.0000
  O   O3        1.0  0.6708491738359615  0.1189403687827735  0.20926741282756464  1.0000
  O   O4        1.0  0.9992921525939451  0.3812716849251174  0.29051548860973486  1.0000
  O   O5        1.0  0.6818056134574354  0.7543304336984704  0.942556791751869  1.0000
  O   O6        1.0  0.37807184473755506  0.7458303263218085  0.5575934995778198  1.0000
  O   O7        1.0  0.3181933061989923  0.245668949888902  0.057440360123173675  1.0000
  O   O8        1.0  0.6219388506681871  0.2541682528643676  0.4424011759837469  1.0000
  O   O9        1.0  0.8276342350748037  0.9107277439020933  0.024493770776523083  1.0000
  O   O10       1.0  0.7624640807656888  0.5892295026170657  0.47554472118846275  1.0000
  O   O11       1.0  0.1723544164011346  0.0892764660924144  0.9755056744519732  1.0000
  O   O12       1.0  0.23752338792672867  0.4107666633655427  0.5244585711379556  1.0000
  O   O13       1.0  0.27934341599471707  0.8186744849011731  0.9700136518758312  1.0000
  O   O14       1.0  0.06717206073015825  0.681532930388137  0.5301595627090733  1.0000
  O   O15       1.0  0.7206522992747466  0.1813200722790569  0.029982280971878973  1.0000
  O   O16       1.0  0.9328387341479148  0.318461626792093  0.4698407734806976  1.0000
  O   O17       1.0  0.8150116059101864  0.322380669390661  0.13717058281350347  1.0000
  O   O18       1.0  0.2748279471075961  0.1775224942602023  0.3628644321287382  1.0000
  O   O19       1.0  0.18499051252122478  0.6776114745859942  0.862832675761119  1.0000
  O   O20       1.0  0.7251726205013189  0.8224776937283593  0.6371394841313174  1.0000
  O   O21       1.0  0.5179161116643057  0.333178950967671  0.2506627863808787  1.0000
  O   O22       1.0  0.10213315801670571  0.1667684547486488  0.24921643119105846  1.0000
  O   O23       1.0  0.48207859007894205  0.666822845823269  0.7493372527598294  1.0000
  O   O24       1.0  0.8978751518299862  0.8332325376410951  0.7507846128140512  1.0000
  O   O25       1.0  0.5940597297303828  0.9861443774876618  0.8684820388479365  1.0000
  O   O26       1.0  0.44869451866031856  0.5141145194778147  0.6314418026221131  1.0000
  O   O27       1.0  0.40593753886691536  0.0138525928961357  0.13151986591109474  1.0000
  O   O28       1.0  0.5513060801645794  0.4858912993190714  0.3685536640457484  1.0000
  O   O29       1.0  0.9439214065795842  0.0398661229854511  0.8504563640342794  1.0000
  O   O30       1.0  0.8343715986544499  0.460127937999907  0.6493276598730586  1.0000
  O   O31       1.0  0.05607949376896238  0.960129238595968  0.14954456724918683  1.0000
  O   O32       1.0  0.16562905873144734  0.5398730543898438  0.3506721807061694  1.0000
