data_image0
_chemical_formula_structural       Zn2H12C54N12Cl8O28
_chemical_formula_sum              "Zn2 H12 C54 N12 Cl8 O28"
_cell_length_a       9.556703618143635
_cell_length_b       10.789236579885422
_cell_length_c       28.011576747448952
_cell_angle_alpha    89.51921291103281
_cell_angle_beta     88.78615999914179
_cell_angle_gamma    93.54321571286911

_space_group_name_H-M_alt    "P 1"
_space_group_IT_number       1

loop_
  _space_group_symop_operation_xyz
  'x, y, z'

loop_
  _atom_site_type_symbol
  _atom_site_label
  _atom_site_symmetry_multiplicity
  _atom_site_fract_x
  _atom_site_fract_y
  _atom_site_fract_z
  _atom_site_occupancy
  Zn  Zn1       1.0  0.35720508205709933  0.49007552489802464  0.5014692198973734  1.0000
  Zn  Zn2       1.0  0.6535243066977331  0.5062268601128181  0.4997660055774204  1.0000
  H   H1        1.0  0.7265894113752651  0.5309582184946535  0.6489164202350677  1.0000
  H   H2        1.0  0.7287117704740355  0.5147646345524349  0.3486548480098079  1.0000
  H   H3        1.0  0.6297369331168382  0.8015242366190592  0.8749717155041168  1.0000
  H   H4        1.0  0.6370959405182717  0.21763518773502002  0.125127187567827  1.0000
  H   H5        1.0  0.2846124437252087  0.505855023122102  0.2600298656728199  1.0000
  H   H6        1.0  0.2869462966160015  0.4508902192527131  0.7449586272525295  1.0000
  H   H7        1.0  0.26040280286243694  0.060121532202153105  0.5095564493187581  1.0000
  H   H8        1.0  0.7455150589729059  0.9368876275755722  0.4840375233406036  1.0000
  H   H9        1.0  0.9150926965278148  0.5222355444943716  0.42086653293529247  1.0000
  H   H10       1.0  0.09446897526063938  0.47119333419067294  0.5803664420064081  1.0000
  H   H11       1.0  0.1308676072557589  0.6792485309830526  0.4654654513032383  1.0000
  H   H12       1.0  0.8799899719782758  0.3140056903273134  0.5354402213564242  1.0000
  C   C1        1.0  0.5050891337675268  0.7355500371502685  0.4961529664199062  1.0000
  C   C2        1.0  0.5012767611239469  0.26098338925805115  0.5009854570784782  1.0000
  C   C3        1.0  0.5056906448134625  0.4951217147213995  0.5929912807511712  1.0000
  C   C4        1.0  0.5099348382367596  0.5012870084701361  0.40820324557652304  1.0000
  C   C5        1.0  0.5430949755791303  0.6117051197995734  0.8199081618012868  1.0000
  C   C6        1.0  0.5509511227969811  0.39787807655414303  0.1813017215278663  1.0000
  C   C7        1.0  0.4851202406785333  0.3811888722502771  0.8225553798690725  1.0000
  C   C8        1.0  0.4786687687843738  0.6181299341088718  0.1790873497156014  1.0000
  C   C9        1.0  0.3838668678088695  0.4686240124141178  0.7242308795452885  1.0000
  C   C10       1.0  0.38262371592940536  0.5086310319333125  0.279196140280483  1.0000
  C   C11       1.0  0.3830355206296261  0.46346084515506897  0.6747295345777501  1.0000
  C   C12       1.0  0.3807170454926805  0.5116153630963894  0.3288010193263204  1.0000
  C   C13       1.0  0.6308631943694324  0.5122860436209608  0.6701834589265372  1.0000
  C   C14       1.0  0.6318669210904205  0.5147291167953938  0.32894914361834526  1.0000
  C   C15       1.0  0.6350143130548389  0.51282077672019  0.7199238978879235  1.0000
  C   C16       1.0  0.6358626762869477  0.5166230652819125  0.279224055710344  1.0000
  C   C17       1.0  0.5103839862276729  0.4932636647831857  0.7470893262594417  1.0000
  C   C18       1.0  0.5101110210847964  0.5111346962561284  0.2542279173890662  1.0000
  C   C19       1.0  0.5290639476236693  0.497668965975798  0.8990354548077021  1.0000
  C   C20       1.0  0.5286131640092008  0.5075778314831041  0.10219472346194178  1.0000
  C   C21       1.0  0.5563431855494301  0.6089313495555686  0.872432021263144  1.0000
  C   C22       1.0  0.5600409225442249  0.4006565083646264  0.1285261165957792  1.0000
  C   C23       1.0  0.5998199931798992  0.7173819163288684  0.8954822257542077  1.0000
  C   C24       1.0  0.6046871493044392  0.2973318915229513  0.1049220934033954  1.0000
  C   C25       1.0  0.49199086851174206  0.385072348576827  0.8753921388919607  1.0000
  C   C26       1.0  0.4879630088943259  0.6153305859291012  0.126198090719349  1.0000
  C   C27       1.0  0.504974923437679  0.4875311770112703  0.6466891722938114  1.0000
  C   C28       1.0  0.5049771982402974  0.5120775564972178  0.35467835152771693  1.0000
  C   C29       1.0  0.5214741534662863  0.6175072533543685  0.024572992381550297  1.0000
  C   C30       1.0  0.5237973011165807  0.38632835680498084  0.9767490071173268  1.0000
  C   C31       1.0  0.558579400137326  0.3920384761108122  0.027207615019108296  1.0000
  C   C32       1.0  0.5568855057953783  0.6159396923452575  0.9736876362673001  1.0000
  C   C33       1.0  0.5361746412647717  0.5057159286317939  0.05127472442591599  1.0000
  C   C34       1.0  0.536625557433716  0.4998778740565939  0.9498642633477843  1.0000
  C   C35       1.0  0.46753211542453244  0.7185019160272362  0.04872196149553789  1.0000
  C   C36       1.0  0.47206292692898427  0.2790458744345443  0.9531379079580659  1.0000
  C   C37       1.0  0.4529358634614553  0.7163981177000593  0.0989560736454109  1.0000
  C   C38       1.0  0.45875141717040446  0.27963486380239283  0.9030322867780993  1.0000
  C   C39       1.0  0.6037653512077555  0.7189274329956775  0.9452437415355135  1.0000
  C   C40       1.0  0.6067369857947823  0.2949473092465098  0.055106585951215  1.0000
  C   C41       1.0  0.42039881692038256  0.9550017464569007  0.4613456184437935  1.0000
  C   C42       1.0  0.5854319097353694  0.04144736463837969  0.5318367503712693  1.0000
  C   C43       1.0  0.5553221543782456  0.046806541516609505  0.4545515777513245  1.0000
  C   C44       1.0  0.45050112898097433  0.950348863551653  0.5387565569873232  1.0000
  C   C45       1.0  0.4983754282193972  0.12290982702428717  0.49798910635666255  1.0000
  C   C46       1.0  0.5068191537734706  0.8737181896561029  0.4949757552373271  1.0000
  C   C47       1.0  0.36685589320593687  0.031162104838742294  0.5039882915553164  1.0000
  C   C48       1.0  0.6387843732556817  0.9654451006999311  0.4892852783976025  1.0000
  C   C49       1.0  0.9611925977845743  0.5115349057677535  0.455830132853677  1.0000
  C   C50       1.0  0.04940756345749971  0.482158885126843  0.5452535988622457  1.0000
  C   C51       1.0  0.03707791404298181  0.3988790465940682  0.47507759883008294  1.0000
  C   C52       1.0  0.9736928006936197  0.5945226132954105  0.5261112754698019  1.0000
  C   C53       1.0  0.0692389913753217  0.5994538912814917  0.4806345104327292  1.0000
  C   C54       1.0  0.9410790710444346  0.3944748194210916  0.5204396372660582  1.0000
  N   N1        1.0  0.5125943315433474  0.49539094865594546  0.7982831393930638  1.0000
  N   N2        1.0  0.5121989888062188  0.5088569987954442  0.2030311206145967  1.0000
  N   N3        1.0  0.1456976708606277  0.4880545951547077  0.5001650746636059  1.0000
  N   N4        1.0  0.86495575042472  0.5059854898200555  0.5009106181737053  1.0000
  N   N5        1.0  0.33868933331187634  0.9028693521718977  0.42173360894155826  1.0000
  N   N6        1.0  0.6689956570523422  0.09855182551371662  0.5699984512096562  1.0000
  N   N7        1.0  0.24055627124859313  0.5179005648728678  0.3517369016641112  1.0000
  N   N8        1.0  0.2483606505051696  0.4252370110229933  0.6529593988187798  1.0000
  N   N9        1.0  0.3985183975114168  0.8287190864758359  0.12143194120552887  1.0000
  N   N10       1.0  0.4066209779894336  0.16106039746168216  0.8810894310198734  1.0000
  N   N11       1.0  0.675476822230344  0.8309134491657062  0.9663586647194506  1.0000
  N   N12       1.0  0.6783936690472602  0.19020330789044237  0.03329719709095969  1.0000
  Cl  Cl1       1.0  0.0888077478513551  0.2736721796196875  0.4435830063940358  1.0000
  Cl  Cl2       1.0  0.9224972750709528  0.7183205107444692  0.5587665553232597  1.0000
  Cl  Cl3       1.0  0.7937080424082907  0.5357834784742226  0.7472251741213185  1.0000
  Cl  Cl4       1.0  0.7950144180093305  0.5261127270821291  0.24928122225536237  1.0000
  Cl  Cl5       1.0  0.4090583681260114  0.8435464317285694  0.0186020976821908  1.0000
  Cl  Cl6       1.0  0.4141804282250093  0.1471116141917079  0.9839009156209642  1.0000
  Cl  Cl7       1.0  0.6171223861302765  0.11025085082314945  0.4009793063697699  1.0000
  Cl  Cl8       1.0  0.38841895679981775  0.8848460162780328  0.5919120334261833  1.0000
  O   O1        1.0  0.3885366478901631  0.6780671130623688  0.48764509989707955  1.0000
  O   O2        1.0  0.6193575574807184  0.3171679173984003  0.4913427010807964  1.0000
  O   O3        1.0  0.6189533495460536  0.6900232968492261  0.5073298843709253  1.0000
  O   O4        1.0  0.38732163773904194  0.30723952634329527  0.5128008098162482  1.0000
  O   O5        1.0  0.3929995793462098  0.5229068521041286  0.5733341431187428  1.0000
  O   O6        1.0  0.6265742274470014  0.5327934586499411  0.4270866596237397  1.0000
  O   O7        1.0  0.6214550124657238  0.476396869377986  0.572093326139658  1.0000
  O   O8        1.0  0.39945083563577555  0.4585091845620184  0.42985669247548225  1.0000
  O   O9        1.0  0.5572172043912573  0.7072557108880843  0.7959593069104542  1.0000
  O   O10       1.0  0.5750275255969511  0.3067024602668695  0.20538364786986554  1.0000
  O   O11       1.0  0.4436103120281203  0.7089564855392537  0.20131836188750188  1.0000
  O   O12       1.0  0.45673682719165504  0.2852546248187906  0.800715867518015  1.0000
  O   O13       1.0  0.20967255531959955  0.9106112407845615  0.42340409485074554  1.0000
  O   O14       1.0  0.40729672010225937  0.855911488485354  0.3894259012218839  1.0000
  O   O15       1.0  0.7986101099903563  0.096509854735686  0.5663854527721597  1.0000
  O   O16       1.0  0.6022745653060256  0.1463485482335471  0.6026055388757853  1.0000
  O   O17       1.0  0.14838459891937822  0.4398511705540999  0.339007091774242  1.0000
  O   O18       1.0  0.22275754148638072  0.6028583315288714  0.3800857295704673  1.0000
  O   O19       1.0  0.1467694741757555  0.4876099591350638  0.6628111451271366  1.0000
  O   O20       1.0  0.24491881450597927  0.332322891253419  0.6274572985046944  1.0000
  O   O21       1.0  0.4852695239162088  0.9142299024600433  0.1297542674851329  1.0000
  O   O22       1.0  0.2700226688155638  0.8277741105247856  0.1266363361295788  1.0000
  O   O23       1.0  0.49415270141560114  0.08499758085979181  0.872560980765037  1.0000
  O   O24       1.0  0.2785716357953518  0.14796927445968322  0.876415763551961  1.0000
  O   O25       1.0  0.6712038115309085  0.9299937726237817  0.9442506291246957  1.0000
  O   O26       1.0  0.7404342481610442  0.8145384164787828  0.0034658031266658995  1.0000
  O   O27       1.0  0.6729555485957661  0.09090116626281032  0.05566158970307811  1.0000
  O   O28       1.0  0.7444700145753133  0.21295423370693806  0.9953982664523264  1.0000
