data_image0
_chemical_formula_structural       Na2H14C18O14
_chemical_formula_sum              "Na2 H14 C18 O14"
_cell_length_a       6.988891304789682
_cell_length_b       7.03789601916008
_cell_length_c       10.59532897767403
_cell_angle_alpha    88.15109018987017
_cell_angle_beta     83.11446779513426
_cell_angle_gamma    66.71840639061121

_space_group_name_H-M_alt    "P 1"
_space_group_IT_number       1

loop_
  _space_group_symop_operation_xyz
  'x, y, z'

loop_
  _atom_site_type_symbol
  _atom_site_label
  _atom_site_symmetry_multiplicity
  _atom_site_fract_x
  _atom_site_fract_y
  _atom_site_fract_z
  _atom_site_occupancy
  Na  Na1       1.0  0.7837725904545747  0.17973211368936154  0.08760845802520825  1.0000
  Na  Na2       1.0  0.21622522793229848  0.8202694019527  0.9123909412234422  1.0000
  H   H1        1.0  0.6992970044173032  0.23559093150589663  0.6471439668381648  1.0000
  H   H2        1.0  0.30070411174406786  0.7644059433638477  0.3528552868562045  1.0000
  H   H3        1.0  0.24506838025879316  0.26618487379879957  0.39927240593834046  1.0000
  H   H4        1.0  0.7549306745154426  0.7338135572941555  0.6007279170064306  1.0000
  H   H5        1.0  0.9762201681176844  0.3194131975612323  0.5861119180738753  1.0000
  H   H6        1.0  0.023778472510265644  0.6805898653728591  0.4138873756261032  1.0000
  H   H7        1.0  0.7647300684243206  0.5244915601252134  0.9314644562413786  1.0000
  H   H8        1.0  0.23526980859099203  0.47550841825977846  0.06853576115471327  1.0000
  H   H9        1.0  0.933985557944915  0.16401825705101913  0.33875743672349756  1.0000
  H   H10       1.0  0.0660145238074676  0.8359848061590186  0.6612417414264015  1.0000
  H   H11       1.0  0.20143489593228026  0.015804975632534  0.17756850595078785  1.0000
  H   H12       1.0  0.7985629196958968  0.9841965589756613  0.8224327806957064  1.0000
  H   H13       1.0  0.10965002193677256  0.2621184937327214  0.19519129362947035  1.0000
  H   H14       1.0  0.8903506786989651  0.737883022461226  0.8048078745190279  1.0000
  C   C1        1.0  0.1863981925554724  0.3109574913892248  0.7225393293608204  1.0000
  C   C2        1.0  0.8136010655764849  0.6890440340118433  0.2774608980366793  1.0000
  C   C3        1.0  0.39189999754655247  0.2853344641536851  0.7399732905685565  1.0000
  C   C4        1.0  0.6080984369649798  0.7146655234384267  0.2600279860765297  1.0000
  C   C5        1.0  0.5408586223731363  0.2539378605492786  0.6341644448321873  1.0000
  C   C6        1.0  0.4591431126715903  0.7460574673043753  0.36583479886077436  1.0000
  C   C7        1.0  0.4867789316208401  0.2500201712823086  0.5114864054144304  1.0000
  C   C8        1.0  0.5132242431689701  0.7499751663303588  0.4885136664273729  1.0000
  C   C9        1.0  0.2830054326008734  0.27370501589504675  0.49519993052102496  1.0000
  C   C10       1.0  0.7169962996851638  0.7262903309247477  0.50480120056978  1.0000
  C   C11       1.0  0.13336419950242365  0.3040929737864246  0.6001870328423278  1.0000
  C   C12       1.0  0.8666321750013208  0.6959085605458315  0.39981436935424597  1.0000
  C   C13       1.0  0.02823249781196323  0.33054451019588527  0.8353849516655456  1.0000
  C   C14       1.0  0.9717665542035832  0.6694539398632032  0.1646172586770618  1.0000
  C   C15       1.0  0.4450782607399758  0.30471790649174574  0.8710268279879755  1.0000
  C   C16       1.0  0.5549224385164137  0.6952836191852684  0.12897328385944457  1.0000
  C   C17       1.0  0.641705954782985  0.21742774296247092  0.3963501001966207  1.0000
  C   C18       1.0  0.3582957775030521  0.7825676038573167  0.603651030894184  1.0000
  O   O1        1.0  0.05424751987516879  0.19068869538782002  0.9135793393304467  1.0000
  O   O2        1.0  0.9457505046281154  0.8093158955962354  0.0864180769731036  1.0000
  O   O3        1.0  0.8576836026637338  0.5048610417887858  0.8404711265642459  1.0000
  O   O4        1.0  0.14231565684757194  0.4951404741292222  0.15952815713433205  1.0000
  O   O5        1.0  0.5941987800495026  0.21379406147744356  0.2878823629113895  1.0000
  O   O6        1.0  0.40580357387857885  0.7861997193601271  0.7121168707801785  1.0000
  O   O7        1.0  0.8321644982732295  0.19177438391897542  0.42165155729806264  1.0000
  O   O8        1.0  0.1678390846113799  0.8082271328268649  0.5783473797502835  1.0000
  O   O9        1.0  0.3071118539955932  0.45677349801063377  0.937806713070678  1.0000
  O   O10       1.0  0.6928880216403711  0.5432264898574176  0.062194448024335686  1.0000
  O   O11       1.0  0.6151653630351884  0.17917449199923402  0.9063657783966973  1.0000
  O   O12       1.0  0.38483595510455576  0.8208254866616971  0.09363432344932218  1.0000
  O   O13       1.0  0.0752650493176503  0.13983445959036092  0.21296917448754016  1.0000
  O   O14       1.0  0.9247307104407694  0.8601685933087849  0.7870294066136764  1.0000
