data_image0
_chemical_formula_structural       Na4H24C32N12O8
_chemical_formula_sum              "Na4 H24 C32 N12 O8"
_cell_length_a       3.486421664484377
_cell_length_b       8.233490246056308
_cell_length_c       27.098351889165134
_cell_angle_alpha    89.99975688290282
_cell_angle_beta     90.0017992923262
_cell_angle_gamma    90.00038203466838

_space_group_name_H-M_alt    "P 1"
_space_group_IT_number       1

loop_
  _space_group_symop_operation_xyz
  'x, y, z'

loop_
  _atom_site_type_symbol
  _atom_site_label
  _atom_site_symmetry_multiplicity
  _atom_site_fract_x
  _atom_site_fract_y
  _atom_site_fract_z
  _atom_site_occupancy
  Na  Na1       1.0  0.9181237610110815  0.9984257401121397  0.052749875253688606  1.0000
  Na  Na2       1.0  0.08188365682503472  0.49842609961710593  0.9472497098598895  1.0000
  Na  Na3       1.0  0.418132407594598  0.4984240452120475  0.4472502639302007  1.0000
  Na  Na4       1.0  0.5818549326181002  0.9984350817838884  0.5527511662673277  1.0000
  H   H1        1.0  0.5236692682144835  0.6873617146122014  0.011495080178413301  1.0000
  H   H2        1.0  0.4763480342599423  0.18736028141891833  0.9885037978095924  1.0000
  H   H3        1.0  0.023656070311226105  0.18736672927430933  0.48850528377099073  1.0000
  H   H4        1.0  0.9763325497981442  0.6873661976629319  0.5114958083067549  1.0000
  H   H5        1.0  0.13829361280991753  0.8195162668015499  0.2179251931116397  1.0000
  H   H6        1.0  0.8616940322354197  0.31951648135637356  0.7820749910083649  1.0000
  H   H7        1.0  0.6383116798914088  0.3195062784180323  0.2820717905693542  1.0000
  H   H8        1.0  0.36170177953535904  0.8195313279917895  0.7179276555492962  1.0000
  H   H9        1.0  0.30967463831109404  0.8569069230033436  0.15840013646826637  1.0000
  H   H10       1.0  0.6903164104945816  0.35690942017389204  0.8415981544540543  1.0000
  H   H11       1.0  0.8096981056616103  0.3569046029294326  0.34159677850966835  1.0000
  H   H12       1.0  0.19031588958510073  0.856920242132446  0.6584033575858754  1.0000
  H   H13       1.0  0.14345833339184114  0.5399553824300156  0.25053769908990386  1.0000
  H   H14       1.0  0.8565224382262288  0.0399536086569796  0.7494635824970715  1.0000
  H   H15       1.0  0.6434888055034023  0.0399482798491633  0.24946077274136513  1.0000
  H   H16       1.0  0.3565263854201747  0.5399692131530641  0.7505405089121808  1.0000
  H   H17       1.0  0.14613851996274016  0.2487375994016077  0.2298953080941502  1.0000
  H   H18       1.0  0.8538538471800552  0.74873549848283  0.7701016458012546  1.0000
  H   H19       1.0  0.6461523292994543  0.7487277487644164  0.2701006923381115  1.0000
  H   H20       1.0  0.35383430191043175  0.24875142183635995  0.7299010588811043  1.0000
  H   H21       1.0  0.288804073950118  0.1556721807325445  0.143589679732159  1.0000
  H   H22       1.0  0.7111955648393078  0.6556757194299293  0.8564085009062409  1.0000
  H   H23       1.0  0.7888095069363815  0.6556696233399888  0.3564092516977979  1.0000
  H   H24       1.0  0.21118726419921793  0.1556855640949877  0.6435937262696427  1.0000
  C   C1        1.0  0.4181724209258136  0.34602112278011526  0.0652108917047585  1.0000
  C   C2        1.0  0.5818442865330837  0.8460243802788696  0.934788889371042  1.0000
  C   C3        1.0  0.9181733487951649  0.8460174677929828  0.43478907458644034  1.0000
  C   C4        1.0  0.08181754438662382  0.3460316788737785  0.5652118135113824  1.0000
  C   C5        1.0  0.422738004344879  0.681413366660557  0.0875751454043012  1.0000
  C   C6        1.0  0.577262003356765  0.1814157385897204  0.912424109218911  1.0000
  C   C7        1.0  0.9227494529615401  0.1814161275111701  0.4124239445723815  1.0000
  C   C8        1.0  0.07724481839917982  0.6814226941365361  0.5875764171109736  1.0000
  C   C9        1.0  0.3576837742892992  0.5672062566865177  0.1275011270394018  1.0000
  C   C10       1.0  0.6423059921689858  0.0672045297387882  0.8724967982950746  1.0000
  C   C11       1.0  0.85770303852145  0.06720228935490268  0.3724963613655063  1.0000
  C   C12       1.0  0.14229820150478642  0.567221857134072  0.6275048852195938  1.0000
  C   C13       1.0  0.2828367012342881  0.6201942601374099  0.1768002444688577  1.0000
  C   C14       1.0  0.717159560966536  0.12019952669409412  0.8231976127487286  1.0000
  C   C15       1.0  0.7828587076048664  0.12019584138954538  0.32319575541763607  1.0000
  C   C16       1.0  0.21715189626063852  0.6202113055203781  0.6768039469520488  1.0000
  C   C17       1.0  0.20638921040165312  0.5014969621023512  0.21282744405151993  1.0000
  C   C18       1.0  0.7936110876553286  0.0014908229565690997  0.7871701967632918  1.0000
  C   C19       1.0  0.7063998719325754  0.0014869023289704995  0.2871683884106062  1.0000
  C   C20       1.0  0.2936118994925182  0.5015045263873573  0.7128314665826779  1.0000
  C   C21       1.0  0.20877590174925595  0.33686091542923446  0.20093937801610914  1.0000
  C   C22       1.0  0.7912263329826176  0.8368630744423697  0.7990593077288679  1.0000
  C   C23       1.0  0.7087879193599422  0.8368543029399261  0.29905935449964016  1.0000
  C   C24       1.0  0.29119710644431523  0.336875759625201  0.7009448665974035  1.0000
  C   C25       1.0  0.28601817144166836  0.283973712142604  0.1532565999964817  1.0000
  C   C26       1.0  0.7139775690093304  0.7839713220170806  0.8467421537342191  1.0000
  C   C27       1.0  0.7860299347116354  0.7839664319276949  0.3467417858059818  1.0000
  C   C28       1.0  0.21397154261890716  0.2839895331910752  0.6532591820864938  1.0000
  C   C29       1.0  0.35676914368314533  0.3988245223260306  0.1163278601211815  1.0000
  C   C30       1.0  0.6432339789458014  0.8988238264074083  0.8836722220662099  1.0000
  C   C31       1.0  0.8567723861680109  0.898820368606266  0.3836725192994806  1.0000
  C   C32       1.0  0.14322213192766506  0.39883040920193474  0.616329777025136  1.0000
  N   N1        1.0  0.47710049239291413  0.45438134090900206  0.0296102563077767  1.0000
  N   N2        1.0  0.5229263724640988  0.954383918506018  0.9703904925507914  1.0000
  N   N3        1.0  0.9770897187608514  0.9543796164562293  0.4703920314750647  1.0000
  N   N4        1.0  0.02289985891986391  0.4543905010903231  0.5296113004852572  1.0000
  N   N5        1.0  0.48169241051760286  0.6150555224129376  0.0426544983704389  1.0000
  N   N6        1.0  0.5183267242932104  0.11505222566172789  0.9573444725857386  1.0000
  N   N7        1.0  0.9816886137180209  0.115055225081079  0.457345661732127  1.0000
  N   N8        1.0  0.018301838727730103  0.6150634538997083  0.5426555233137833  1.0000
  N   N9        1.0  0.2951297802731291  0.7821133782032561  0.18853556615726322  1.0000
  N   N10       1.0  0.7048630651627691  0.28211026939024453  0.8114624519073745  1.0000
  N   N11       1.0  0.7951576303553621  0.2821090510401659  0.31146064605395213  1.0000
  N   N12       1.0  0.2048610297139177  0.7821303857606593  0.6885381101068403  1.0000
  O   O1        1.0  0.41047729065056154  0.19322086360239146  0.0538667414787568  1.0000
  O   O2        1.0  0.5895400957042584  0.6932288441500489  0.9461310218919438  1.0000
  O   O3        1.0  0.9104722826789812  0.6932219079614795  0.44613228195945  1.0000
  O   O4        1.0  0.08951642158847763  0.19322901426239267  0.5538706477162947  1.0000
  O   O5        1.0  0.42365173666924966  0.8370144209530112  0.0918908079119944  1.0000
  O   O6        1.0  0.576353368438582  0.337009563208241  0.9081075086200059  1.0000
  O   O7        1.0  0.9236765110886723  0.3370099549547162  0.40810734781565833  1.0000
  O   O8        1.0  0.07631998941655381  0.8370249601513036  0.5918920757696995  1.0000
