data_image0
_chemical_formula_structural       Zn4H70C93N16O2
_chemical_formula_sum              "Zn4 H70 C93 N16 O2"
_cell_length_a       18.89790093460362
_cell_length_b       19.022874339549382
_cell_length_c       20.416821261021877
_cell_angle_alpha    106.20141586376496
_cell_angle_beta     107.1374721399753
_cell_angle_gamma    111.811028981274

_space_group_name_H-M_alt    "P 1"
_space_group_IT_number       1

loop_
  _space_group_symop_operation_xyz
  'x, y, z'

loop_
  _atom_site_type_symbol
  _atom_site_label
  _atom_site_symmetry_multiplicity
  _atom_site_fract_x
  _atom_site_fract_y
  _atom_site_fract_z
  _atom_site_occupancy
  Zn  Zn1       1.0  0.8933968503708343  0.8995057409597962  0.5135481187683979  1.0000
  Zn  Zn2       1.0  0.0993783532743535  0.09768126209047522  0.49210044044089335  1.0000
  Zn  Zn3       1.0  0.1009356967650916  0.0003249337145021941  0.6027836531316453  1.0000
  Zn  Zn4       1.0  0.8916982292215535  0.9919954631679601  0.4016343768784196  1.0000
  H   H1        1.0  0.8552330136892434  0.025396729597225845  0.6204865456476013  1.0000
  H   H2        1.0  0.4499178266284076  0.9673713455851642  0.27917627273555473  1.0000
  H   H3        1.0  0.5651127778655862  0.9372990955423148  0.3299776657418931  1.0000
  H   H4        1.0  0.5337625854056397  0.7672429333640522  0.43521814390129526  1.0000
  H   H5        1.0  0.4033791376649631  0.707085720118009  0.45269525669233696  1.0000
  H   H6        1.0  0.2747652563469885  0.7105000462573943  0.4544490479827772  1.0000
  H   H7        1.0  0.8602079285531657  0.614783583293075  0.5235313297148991  1.0000
  H   H8        1.0  0.10234906087847408  0.7502212499672255  0.723334848269026  1.0000
  H   H9        1.0  0.1625285661061824  0.6715140425222116  0.7768821015627978  1.0000
  H   H10       1.0  0.15660736809915218  0.5363927961142282  0.7648097007467028  1.0000
  H   H11       1.0  0.08900666427997807  0.38244682912206684  0.6896811968386558  1.0000
  H   H12       1.0  0.1271148691183086  0.9829910719245305  0.36517392162741646  1.0000
  H   H13       1.0  0.30142140042966037  0.12883111013756826  0.7399705599938998  1.0000
  H   H14       1.0  0.8510182927472697  0.24944138598377913  0.4868871500840796  1.0000
  H   H15       1.0  0.7778200060579508  0.46008735877347107  0.46595613818598036  1.0000
  H   H16       1.0  0.8982145151902472  0.7554642622965276  0.1789252612754454  1.0000
  H   H17       1.0  0.45896031010375526  0.20259862927089495  0.7847826762464934  1.0000
  H   H18       1.0  0.41785054814422296  0.3903379495440404  0.7278605557762673  1.0000
  H   H19       1.0  0.6840671833357562  0.547715421294896  0.9473826767336462  1.0000
  H   H20       1.0  0.7008791843936565  0.47262229862015914  0.14039462476315384  1.0000
  H   H21       1.0  0.5970754397018182  0.3135451391969254  0.893207106235721  1.0000
  H   H22       1.0  0.6820090239235838  0.9368043398239864  0.32878165134193443  1.0000
  H   H23       1.0  0.13808881165476808  0.17108637595271864  0.3650163966820159  1.0000
  H   H24       1.0  0.6598438234365176  0.4152361845431471  0.00968053625460639  1.0000
  H   H25       1.0  0.819445022155996  0.6366083433472839  0.050785306139495445  1.0000
  H   H26       1.0  0.5573465866687073  0.5015742055180964  0.8353981781984386  1.0000
  H   H27       1.0  0.12268851570799909  0.24283887340179433  0.8496379675332122  1.0000
  H   H28       1.0  0.8744878244251452  0.07144400036663248  0.14681808624438733  1.0000
  H   H29       1.0  0.1372436429688975  0.25712309757564356  0.301750007163065  1.0000
  H   H30       1.0  0.09713076519439309  0.27778636776771753  0.07151288537887979  1.0000
  H   H31       1.0  0.8856098415249035  0.12199733391371116  0.0516304609052439  1.0000
  H   H32       1.0  0.8492096960371072  0.09104838162059531  0.7270701854803719  1.0000
  H   H33       1.0  0.3021994454653907  0.26006843857569345  0.5978843363810212  1.0000
  H   H34       1.0  0.8534701342255814  0.7389351467289202  0.5583207850813069  1.0000
  H   H35       1.0  0.901840288764937  0.17505174252532624  0.9791888983549981  1.0000
  H   H36       1.0  0.11252812392926609  0.2829404186793455  0.9700010931772454  1.0000
  H   H37       1.0  0.1492294789683299  0.3061987968215263  0.2041558628675446  1.0000
  H   H38       1.0  0.8457528880064443  0.12092566329658888  0.4960304238262054  1.0000
  H   H39       1.0  0.1313499872620412  0.1615498478902282  0.7423878536374886  1.0000
  H   H40       1.0  0.8787770754494345  0.7258670252463232  0.40118578202256566  1.0000
  H   H41       1.0  0.1797931831766775  0.8934773033513396  0.7376433540382266  1.0000
  H   H42       1.0  0.1658360911280141  0.8183730376222086  0.6536758348935265  1.0000
  H   H43       1.0  0.19315018589072958  0.922703507742405  0.6648919116340437  1.0000
  H   H44       1.0  0.8229766958068012  0.08544897880524631  0.23663658983805663  1.0000
  H   H45       1.0  0.8878285268540579  0.8605832025333696  0.2613132534536432  1.0000
  H   H46       1.0  0.8097155033356102  0.984158788952854  0.19103589351055908  1.0000
  H   H47       1.0  0.8007586698571031  0.013322874510421724  0.27734815257952045  1.0000
  H   H48       1.0  0.14764862232077997  0.3563386820842993  0.6096901850029539  1.0000
  H   H49       1.0  0.1803226112631222  0.30601653721078753  0.6642721356156401  1.0000
  H   H50       1.0  0.17916360208754156  0.2828628348134714  0.5736310779657074  1.0000
  H   H51       1.0  0.7004945868790671  0.31437878661497365  0.4027678837529365  1.0000
  H   H52       1.0  0.7658468619347615  0.2687845625832566  0.3929305057837382  1.0000
  H   H53       1.0  0.7206725437373791  0.2588754138930227  0.4567087785235771  1.0000
  H   H54       1.0  0.7314415365412755  0.46581072531304096  0.2526195156571306  1.0000
  H   H55       1.0  0.654107742428401  0.49869587651793507  0.2286218929297661  1.0000
  H   H56       1.0  0.13112787611571264  0.8540132392955114  0.5099287818506255  1.0000
  H   H57       1.0  0.6983473042050006  0.5773744065040773  0.3681530037620533  1.0000
  H   H58       1.0  0.6653578947015363  0.46879169053658404  0.34266163013977297  1.0000
  H   H59       1.0  0.7759224724384095  0.5448438224596615  0.3918237573322614  1.0000
  H   H60       1.0  0.7588007745067885  0.012468794067629668  0.7580560278014518  1.0000
  H   H61       1.0  0.7347346568506833  0.09102239578032809  0.7435632829245051  1.0000
  H   H62       1.0  0.6680165552594558  0.08756553769342892  0.8338647794344709  1.0000
  H   H63       1.0  0.6180237152406178  0.9860221350390432  0.7567542586004592  1.0000
  H   H64       1.0  0.6923725436480623  0.009384802173350713  0.8479952886260522  1.0000
  H   H65       1.0  0.6639349632627399  0.8496217851875796  0.5420284095626897  1.0000
  H   H66       1.0  0.6559370532865285  0.7567061371290719  0.4816676787297495  1.0000
  H   H67       1.0  0.1862062738410586  0.7805884511332406  0.44336921665286166  1.0000
  H   H68       1.0  0.7574490637839587  0.8422379334175646  0.5530816902260369  1.0000
  H   H69       1.0  0.2161872088587771  0.9445104685313837  0.33190593833793963  1.0000
  H   H70       1.0  0.3196058560282324  0.9688928155165328  0.2788935925284263  1.0000
  C   C1        1.0  0.9234700051034607  0.050524373442734055  0.6410794753306208  1.0000
  C   C2        1.0  0.9215681099353573  0.7807839490172127  0.5820525104188262  1.0000
  C   C3        1.0  0.8898213595667244  0.8394687210235219  0.3057297839310138  1.0000
  C   C4        1.0  0.05503837453891689  0.22764034290273827  0.5685129715249388  1.0000
  C   C5        1.0  0.12471563108297089  0.89221728404992  0.4802121201991908  1.0000
  C   C6        1.0  0.8737140849200813  0.7598378220891818  0.3028500248807405  1.0000
  C   C7        1.0  0.14539408330868744  0.8989611794074506  0.42057739923667004  1.0000
  C   C8        1.0  0.9896913513432181  0.7695080980818716  0.6177463310442448  1.0000
  C   C9        1.0  0.0010046202479046  0.1243711523394779  0.2873598751406732  1.0000
  C   C10       1.0  0.21727541586230356  0.8115379967262301  0.4141620355009294  1.0000
  C   C11       1.0  0.19566250227662604  0.8675044074351633  0.3923678120920541  1.0000
  C   C12       1.0  0.9799787746338352  0.23161920608876568  0.5614476763938185  1.0000
  C   C13       1.0  0.23337994459523506  0.9024854754787199  0.3510596748622703  1.0000
  C   C14       1.0  0.29845211489734413  0.8911992620045762  0.3393544874791842  1.0000
  C   C15       1.0  0.3263994214295494  0.8415632942996468  0.36904472758853063  1.0000
  C   C16       1.0  0.2879987610153663  0.1499224712093579  0.6958456345686628  1.0000
  C   C17       1.0  0.28213234476439186  0.7980831144550322  0.4035988374653243  1.0000
  C   C18       1.0  0.3430897962434827  0.9335475508997106  0.30398934618600043  1.0000
  C   C19       1.0  0.4150983247906836  0.9327886759276325  0.30423411272754214  1.0000
  C   C20       1.0  0.44839692846137064  0.8889317119958022  0.33923875848009294  1.0000
  C   C21       1.0  0.40083531189917204  0.8402061892623961  0.36874061252201057  1.0000
  C   C22       1.0  0.43183081902724035  0.7944462631795516  0.4020223417210147  1.0000
  C   C23       1.0  0.34030960113957326  0.22266630870348791  0.6924085178943571  1.0000
  C   C24       1.0  0.3818435902970521  0.7449841271820715  0.43002183735470806  1.0000
  C   C25       1.0  0.31041596090368967  0.7468081821199631  0.43090070325751373  1.0000
  C   C26       1.0  0.5276082915561986  0.8961134002115543  0.34911814139208264  1.0000
  C   C27       1.0  0.5616980883533954  0.8559173105044097  0.38641215037328175  1.0000
  C   C28       1.0  0.699333754249544  0.9160327508548958  0.3724561568862583  1.0000
  C   C29       1.0  0.5111038923233976  0.8024671062383817  0.4094341386579075  1.0000
  C   C30       1.0  0.9104504761122242  0.6149225603207427  0.567049964338139  1.0000
  C   C31       1.0  0.9828885454820123  0.6921659517563016  0.6225968898320602  1.0000
  C   C32       1.0  0.04711428688041511  0.6911492236518413  0.6779266753317614  1.0000
  C   C33       1.0  0.0424250655570688  0.6150781145639358  0.6761041863672546  1.0000
  C   C34       1.0  0.6491829495756817  0.8744576437590013  0.4030834299756592  1.0000
  C   C35       1.0  0.9704548744982944  0.5371530280581497  0.617074728544175  1.0000
  C   C36       1.0  0.9027202340532554  0.5377311013142005  0.5632724088565767  1.0000
  C   C37       1.0  0.1084615925875951  0.6122019118245915  0.7303510065645681  1.0000
  C   C38       1.0  0.1051438027389011  0.5373612706752695  0.7236650480793188  1.0000
  C   C39       1.0  0.036071017858262194  0.4587191517700546  0.6618031563159263  1.0000
  C   C40       1.0  0.28780480382961565  0.2176055940890365  0.624163897394908  1.0000
  C   C41       1.0  0.9671164814721748  0.45941906846168457  0.6094888136122023  1.0000
  C   C42       1.0  0.896789200757098  0.3817678020146004  0.5478804618168169  1.0000
  C   C43       1.0  0.8259259082230628  0.38304086415112687  0.4966832030352109  1.0000
  C   C44       1.0  0.8305109868730581  0.45881968851479377  0.5052526823487753  1.0000
  C   C45       1.0  0.8839203086699142  0.7703343131948371  0.37687596878205915  1.0000
  C   C46       1.0  0.036370078212677  0.3823901768045985  0.6491297823285151  1.0000
  C   C47       1.0  0.972059205950778  0.30736303517605995  0.584509399873781  1.0000
  C   C48       1.0  0.9014051468709993  0.30785281744104503  0.5366376825931453  1.0000
  C   C49       1.0  0.8418687759078195  0.6851033575919487  0.2333732941344024  1.0000
  C   C50       1.0  0.8537066565861195  0.6934610081073843  0.17040070016867054  1.0000
  C   C51       1.0  0.809417477169255  0.6266529047611656  0.09810865431328614  1.0000
  C   C52       1.0  0.7058735132425582  0.8631735854275961  0.45676831366291304  1.0000
  C   C53       1.0  0.7508624496887321  0.546545077752718  0.08578415265179731  1.0000
  C   C54       1.0  0.7448183618494255  0.535066349771199  0.14958214684490664  1.0000
  C   C55       1.0  0.7888090768721056  0.6026016587251276  0.2219332709177735  1.0000
  C   C56       1.0  0.12343670937736562  0.958389638588095  0.40680205381342205  1.0000
  C   C57       1.0  0.5575534267741632  0.33104907582205817  0.8578766720762873  1.0000
  C   C58       1.0  0.47966798184321385  0.2685196028478174  0.7969286508363068  1.0000
  C   C59       1.0  0.45747301666164464  0.37308191674166835  0.763469684042704  1.0000
  C   C60       1.0  0.5359357997479035  0.43574563258710686  0.8242242910327916  1.0000
  C   C61       1.0  0.5861157786207656  0.41677537273142923  0.8750099928582389  1.0000
  C   C62       1.0  0.6900484395088425  0.477276837077504  0.010625593604061076  1.0000
  C   C63       1.0  0.6594178021092673  0.48488842019087014  0.9455914955018301  1.0000
  C   C64       1.0  0.9140996423960744  0.14772185799006377  0.5155973213895139  1.0000
  C   C65       1.0  0.4263681669539351  0.2882370972584809  0.7499494601657304  1.0000
  C   C66       1.0  0.986601310677571  0.15990438163024115  0.7793163046574777  1.0000
  C   C67       1.0  0.06276228022330338  0.844926553694954  0.6378432853405727  1.0000
  C   C68       1.0  0.060061015953067495  0.2185001293619422  0.8486396583802218  1.0000
  C   C69       1.0  0.05409926436416869  0.24130065832105171  0.9167751044090126  1.0000
  C   C70       1.0  0.9756955202257344  0.20775173798079286  0.9199891481171605  1.0000
  C   C71       1.0  0.9011318535987626  0.1571472160250876  0.8487929789785865  1.0000
  C   C72       1.0  0.9069592673452362  0.13390374486863996  0.780347692079076  1.0000
  C   C73       1.0  0.9411424335953453  0.15339133501044683  0.10679641976026485  1.0000
  C   C74       1.0  0.934738910576982  0.12452104332215425  0.16123412923658978  1.0000
  C   C75       1.0  0.08168543554137392  0.2267409856952298  0.2466737922125333  1.0000
  C   C76       1.0  0.06422881115612  0.1203022577626243  0.7028034138183017  1.0000
  C   C77       1.0  0.08835692759241447  0.2549958636585997  0.1917337813780904  1.0000
  C   C78       1.0  0.9291338143963016  0.07133074842370489  0.2927554118218297  1.0000
  C   C79       1.0  0.018757041149534397  0.2181612366949466  0.1194686656133115  1.0000
  C   C80       1.0  0.9674582077639043  0.21004501174277818  0.9888204033432046  1.0000
  C   C81       1.0  0.030686258131730395  0.24019040307619827  0.0592333157908413  1.0000
  C   C82       1.0  0.005226092714536899  0.15908075875157826  0.2323231148711642  1.0000
  C   C83       1.0  0.9916220813166419  0.11744526678725008  0.7105399481996315  1.0000
  C   C84       1.0  0.15502783041042528  0.8712348291195227  0.6754891859772201  1.0000
  C   C85       1.0  0.8360969641921869  0.0368897546794216  0.24692364662588773  1.0000
  C   C86       1.0  0.1451735215197658  0.29680488642884484  0.6061842844154912  1.0000
  C   C87       1.0  0.7491803891200205  0.302124507721949  0.43403437371100756  1.0000
  C   C88       1.0  0.7160793589993303  0.5159356130402771  0.2727778347845486  1.0000
  C   C89       1.0  0.0703331523920738  0.13571453445194243  0.3480472848636254  1.0000
  C   C90       1.0  0.7139151601148015  0.527643793942481  0.3484850292023651  1.0000
  C   C91       1.0  0.7489464259630478  0.06492951811802776  0.7846061871785608  1.0000
  C   C92       1.0  0.677744976007361  0.03541701557820439  0.8073487393183713  1.0000
  C   C93       1.0  0.6949354671500101  0.8258387719288364  0.5108898813498612  1.0000
  N   N1        1.0  0.9536950364035236  0.016213875269706014  0.5972962220386934  1.0000
  N   N2        1.0  0.21121269148663657  0.10580263582919258  0.634986171454706  1.0000
  N   N3        1.0  0.7786408034365165  0.9285531939633245  0.40445890678783053  1.0000
  N   N4        1.0  0.21084171661082957  0.1476926248620387  0.5900049015882445  1.0000
  N   N5        1.0  0.782522406048713  0.8957351812109167  0.45648314555676733  1.0000
  N   N6        1.0  0.9470893348461118  0.09793071556938308  0.4969453844734629  1.0000
  N   N7        1.0  0.0400512931759422  0.05893403424656901  0.6349641966990305  1.0000
  N   N8        1.0  0.9035693941461388  0.8494581049734647  0.4189418115529904  1.0000
  N   N9        1.0  0.09410039054462518  0.9853805090287792  0.45554051360655723  1.0000
  N   N10       1.0  0.0381212878957129  0.8957057038215198  0.6149618749389703  1.0000
  N   N11       1.0  0.9555639752653987  0.05372974033984677  0.3520326945529604  1.0000
  N   N12       1.0  0.0429820130077374  0.0934427252500569  0.3863525569329269  1.0000
  N   N13       1.0  0.9506303602067162  0.8559901088784442  0.5804892305000918  1.0000
  N   N14       1.0  0.9068461805250435  0.8916212627405784  0.37503512859056787  1.0000
  N   N15       1.0  0.09482633337503898  0.9446797154884408  0.5006129189154649  1.0000
  N   N16       1.0  0.03328878955039729  0.14673130481372001  0.5293056978792166  1.0000
  O   O1        1.0  0.7804259482569476  0.5946371366324213  0.2843387112135076  1.0000
  O   O2        1.0  0.8250619275456899  0.1288341146551986  0.8526202112570758  1.0000
