data_image0
_chemical_formula_structural       Cd2H28C26N10Cl2O4
_chemical_formula_sum              "Cd2 H28 C26 N10 Cl2 O4"
_cell_length_a       7.940331666267306
_cell_length_b       9.126706966689152
_cell_length_c       12.942026091504763
_cell_angle_alpha    69.34053086550993
_cell_angle_beta     81.41013425475458
_cell_angle_gamma    64.90178001168616

_space_group_name_H-M_alt    "P 1"
_space_group_IT_number       1

loop_
  _space_group_symop_operation_xyz
  'x, y, z'

loop_
  _atom_site_type_symbol
  _atom_site_label
  _atom_site_symmetry_multiplicity
  _atom_site_fract_x
  _atom_site_fract_y
  _atom_site_fract_z
  _atom_site_occupancy
  Cd  Cd1       1.0  0.37924032731544355  0.607402798727058  0.05152801669605372  1.0000
  Cd  Cd2       1.0  0.8791976457897237  0.658935862919371  0.9483399331058917  1.0000
  H   H1        1.0  0.3822465560413875  0.7739230175815661  0.23960769691283446  1.0000
  H   H2        1.0  0.8824473335446684  0.014055361976403481  0.7601636889288058  1.0000
  H   H3        1.0  0.45979685946420573  0.659258611702775  0.46862592359779853  1.0000
  H   H4        1.0  0.9594451137977276  0.12913256584583632  0.5315235355167757  1.0000
  H   H5        1.0  0.5190993539729833  0.6687696859961817  0.648858242414228  1.0000
  H   H6        1.0  0.01886414491082898  0.31871992712505204  0.35123168567265134  1.0000
  H   H7        1.0  0.9934808913446391  0.7842102232002401  0.5103909170682143  1.0000
  H   H8        1.0  0.4944225290631651  0.29419239741524444  0.4894681401656625  1.0000
  H   H9        1.0  0.9393345380652536  0.7699288481411131  0.3302266952274806  1.0000
  H   H10       1.0  0.4400501348208722  0.100031427716516  0.6697587625905328  1.0000
  H   H11       1.0  0.8551933836373  0.8308529994727251  0.6827270226717131  1.0000
  H   H12       1.0  0.3559023064432909  0.5135526042116964  0.31718449670647425  1.0000
  H   H13       1.0  0.6587701607597226  0.7877868814160112  0.7404576272794329  1.0000
  H   H14       1.0  0.1592652321789672  0.5285055231002643  0.25943287855775315  1.0000
  H   H15       1.0  0.1843983645496937  0.5818129230898844  0.7410822662097444  1.0000
  H   H16       1.0  0.6849045453796095  0.32249734190403956  0.2589084550426363  1.0000
  H   H17       1.0  0.11379220230753632  0.48616403069272723  0.665753105235005  1.0000
  H   H18       1.0  0.613986931152731  0.15174956270541173  0.33431699310543905  1.0000
  H   H19       1.0  0.2540035286821906  0.3355871035743903  0.9021671502903599  1.0000
  H   H20       1.0  0.754020047335935  0.23728943026577548  0.09791929455163033  1.0000
  H   H21       1.0  0.2983482790835979  0.23005563720251873  0.8050271390833926  1.0000
  H   H22       1.0  0.7981987310072681  0.034652448775368314  0.19515675696589338  1.0000
  H   H23       1.0  0.02918974599619872  0.16496088053421712  0.8705791567419822  1.0000
  H   H24       1.0  0.5286372114773245  0.035507749148877124  0.12971992565183396  1.0000
  H   H25       1.0  0.001600907101163984  0.26323285109191374  0.9706489961971555  1.0000
  H   H26       1.0  0.5013248612388354  0.2337784151314111  0.0295168444785858  1.0000
  H   H27       1.0  0.8250947021769833  0.4167086560572174  0.7426142986288369  1.0000
  H   H28       1.0  0.3248878045884141  0.15965532998003334  0.2575697621818093  1.0000
  C   C1        1.0  0.6792512011976157  0.7000194853642725  0.28195000770350725  1.0000
  C   C2        1.0  0.17947576395219791  0.9822299228671837  0.7179883640655901  1.0000
  C   C3        1.0  0.696570118237865  0.7140307762738375  0.3880203727175982  1.0000
  C   C4        1.0  0.19681969237007732  0.10248371647348634  0.6119930456540671  1.0000
  C   C5        1.0  0.576840375700691  0.6870591845741885  0.4773846490064101  1.0000
  C   C6        1.0  0.0768480981805625  0.1652729179503538  0.5226700903084449  1.0000
  C   C7        1.0  0.610334219358258  0.6915909496970585  0.5787086231899393  1.0000
  C   C8        1.0  0.11038692058608757  0.2710207413126824  0.4213330083538338  1.0000
  C   C9        1.0  0.7615715171153145  0.7247868837755718  0.5921910455185894  1.0000
  C   C10       1.0  0.2620093449114123  0.3171946242475698  0.40775095763101626  1.0000
  C   C11       1.0  0.878176120198077  0.75407368065288  0.5016533664059962  1.0000
  C   C12       1.0  0.378861293566253  0.2556389885544021  0.49828153161593747  1.0000
  C   C13       1.0  0.848222549798976  0.7476658929092252  0.4006656662367122  1.0000
  C   C14       1.0  0.34876646686654317  0.148382563753259  0.5993283164433619  1.0000
  C   C15       1.0  0.7929032500966074  0.7377659730119885  0.7000628035548145  1.0000
  C   C16       1.0  0.2933990342678358  0.4379746152147063  0.2998566040653969  1.0000
  C   C17       1.0  0.11078129331428975  0.5005867910011119  0.7474347850473251  1.0000
  C   C18       1.0  0.611037941083211  0.24780341880499185  0.2526077030981638  1.0000
  C   C19       1.0  0.18929153059246343  0.32629124424632755  0.8370481967194647  1.0000
  C   C20       1.0  0.6892534095443993  0.16300994961259363  0.16308888314947717  1.0000
  C   C21       1.0  0.018517612247414772  0.2819278090818288  0.8818374943941051  1.0000
  C   C22       1.0  0.5182597890151612  0.16368688323258598  0.11834771190233077  1.0000
  C   C23       1.0  0.8514009151926131  0.437596900010064  0.816540507844138  1.0000
  C   C24       1.0  0.3513207848671769  0.25431798482905077  0.1835676964686357  1.0000
  C   C25       1.0  0.67051806164249  0.47391063374858106  0.8833040136109104  1.0000
  C   C26       1.0  0.17039769096066246  0.35757060460485945  0.11679824870398652  1.0000
  N   N1        1.0  0.8258119256583781  0.6555290751923833  0.21569046407568487  1.0000
  N   N2        1.0  0.3260638022877489  0.8710170148796905  0.7841662554175172  1.0000
  N   N3        1.0  0.7591091434837768  0.6543700899890723  0.12727177932774947  1.0000
  N   N4        1.0  0.2593729535593283  0.7813130533742411  0.8724866766642021  1.0000
  N   N5        1.0  0.5814352434978434  0.693740082277344  0.13488103429583023  1.0000
  N   N6        1.0  0.08159981152103084  0.8286636865677862  0.8648954423304006  1.0000
  N   N7        1.0  0.5276514711487649  0.7232121472752979  0.23151569055634982  1.0000
  N   N8        1.0  0.027801380796191443  0.9551404326297399  0.7683648124154558  1.0000
  N   N9        1.0  0.9153485406856847  0.5788685093967417  0.782444346516641  1.0000
  N   N10       1.0  0.4156237575641554  0.361378642647864  0.2175442985505711  1.0000
  Cl  Cl1       1.0  0.155100097682059  0.8385841399813357  0.1384776266181831  1.0000
  Cl  Cl2       1.0  0.6550968527818312  0.9769822348087303  0.8612130891732902  1.0000
  O   O1        1.0  0.5497282982315288  0.43272481225205434  0.8662661437212973  1.0000
  O   O2        1.0  0.049469115997723655  0.29955998207424267  0.13376034638928047  1.0000
  O   O3        1.0  0.6589629113516723  0.543063753774554  0.9584509175510474  1.0000
  O   O4        1.0  0.1589418271033908  0.5019030780545606  0.04165181913452194  1.0000
