data_image0
_chemical_formula_structural       Mg6H27C54N12O18F3
_chemical_formula_sum              "Mg6 H27 C54 N12 O18 F3"
_cell_length_a       6.748687842044269
_cell_length_b       31.39402724506988
_cell_length_c       31.396800597665127
_cell_angle_alpha    119.49472155344395
_cell_angle_beta     94.09860485697523
_cell_angle_gamma    94.10926785861461

_space_group_name_H-M_alt    "P 1"
_space_group_IT_number       1

loop_
  _space_group_symop_operation_xyz
  'x, y, z'

loop_
  _atom_site_type_symbol
  _atom_site_label
  _atom_site_symmetry_multiplicity
  _atom_site_fract_x
  _atom_site_fract_y
  _atom_site_fract_z
  _atom_site_occupancy
  Mg  Mg1       1.0  0.45106264452983436  0.3214502324589291  0.6930860494118605  1.0000
  Mg  Mg2       1.0  0.8553489389856069  0.6675004757938796  0.3674518807954287  1.0000
  Mg  Mg3       1.0  0.7580245745181031  0.3069674935505232  0.6284143074599767  1.0000
  Mg  Mg4       1.0  0.4878867273254743  0.6325043627374216  0.3000253967904812  1.0000
  Mg  Mg5       1.0  0.12968674273462003  0.3716346337523007  0.6785797065257524  1.0000
  Mg  Mg6       1.0  0.18779984439527206  0.6999316236720148  0.3324346833216082  1.0000
  H   H1        1.0  0.7294566454206333  0.9314314486803993  0.43742960300995987  1.0000
  H   H2        1.0  0.5856374350291986  0.836203946629162  0.3838213183248698  1.0000
  H   H3        1.0  0.2562474053342001  0.8120465042005875  0.43811997910002276  1.0000
  H   H4        1.0  0.18929534260021805  0.8951027797061073  0.4550563403789383  1.0000
  H   H5        1.0  0.9389909035375866  0.0832507542032417  0.5112001165313841  1.0000
  H   H6        1.0  0.9604369392097425  0.1693153213657368  0.5442079985162067  1.0000
  H   H7        1.0  0.6859235859142175  0.17892827338069853  0.590183411846489  1.0000
  H   H8        1.0  0.4912698534148277  0.09752726738240369  0.5305662579069618  1.0000
  H   H9        1.0  0.4753247033939517  0.9771383347733293  0.4090583360188376  1.0000
  H   H10       1.0  0.2911382494305954  0.5625630027795623  0.49390186397717156  1.0000
  H   H11       1.0  0.20152008909409597  0.6161526448360418  0.4523300452623501  1.0000
  H   H12       1.0  0.8181062332786483  0.5618468020130365  0.37394487800928994  1.0000
  H   H13       1.0  0.7341207763180293  0.5449657548553759  0.4400933161271253  1.0000
  H   H14       1.0  0.4269648823812702  0.4887455659959556  0.5720989518267459  1.0000
  H   H15       1.0  0.4160886577942904  0.4558186926652539  0.62523938761894  1.0000
  H   H16       1.0  0.09579905897295765  0.4100153568069659  0.5889005534412135  1.0000
  H   H17       1.0  0.960294419710678  0.46952898320508746  0.5670377289449036  1.0000
  H   H18       1.0  0.06527643023719087  0.5908391547248971  0.5679942191276056  1.0000
  H   H19       1.0  0.7976906255523987  0.5060274184597375  0.06863984688303051  1.0000
  H   H20       1.0  0.7496098549048541  0.5476454421572258  0.16376442601898591  1.0000
  H   H21       1.0  0.44453424077669734  0.6260211758213572  0.187915036934676  1.0000
  H   H22       1.0  0.29457311186872204  0.5598857157635635  0.10485002089102127  1.0000
  H   H23       1.0  0.8554413506908602  0.42789788777798066  0.9166880476619922  1.0000
  H   H24       1.0  0.7912109322775722  0.3749179347625642  0.8306771340967598  1.0000
  H   H25       1.0  0.5071850871126459  0.41116538289126947  0.8210783773767216  1.0000
  H   H26       1.0  0.393761418674032  0.4329877869162574  0.9024656685851369  1.0000
  H   H27       1.0  0.49799147054180554  0.4320430911790396  0.022836872691591705  1.0000
  C   C1        1.0  0.18599721247297643  0.944372045942579  0.40954279701771396  1.0000
  C   C2        1.0  0.00663802905798149  0.9534733338987635  0.43166459884409386  1.0000
  C   C3        1.0  0.8869705643002703  0.8708534310042922  0.417397701584818  1.0000
  C   C4        1.0  0.7342688313925834  0.8316433368232127  0.395934490857492  1.0000
  C   C5        1.0  0.766964609212778  0.7844795161493465  0.3880085661763601  1.0000
  C   C6        1.0  0.9633613025884104  0.7763781588941684  0.4006137682289577  1.0000
  C   C7        1.0  0.10997232681761916  0.8177841892676341  0.42618932064195986  1.0000
  C   C8        1.0  0.07280427224192486  0.863877894089278  0.4348436675416495  1.0000
  C   C9        1.0  0.5957815903778966  0.7451155116774117  0.3653281456754839  1.0000
  C   C10       1.0  0.1289804770512362  0.036106595871608214  0.4738942933552649  1.0000
  C   C11       1.0  0.21007189015266198  0.12726839442201052  0.5340768284429487  1.0000
  C   C12       1.0  0.11978491909057003  0.17041986799689113  0.5541508529434578  1.0000
  C   C13       1.0  0.22663858125864075  0.21656174857505311  0.588034527158264  1.0000
  C   C14       1.0  0.4357636789598233  0.2201741169303092  0.602332432053899  1.0000
  C   C15       1.0  0.5258493056557114  0.1762353505762349  0.5798242378167515  1.0000
  C   C16       1.0  0.4177188308618014  0.13080298637651572  0.5467225508054057  1.0000
  C   C17       1.0  0.1128338652194216  0.2593049189850447  0.6073277259269146  1.0000
  C   C18       1.0  0.3333840788052458  0.9835144107231387  0.4247181011096828  1.0000
  C   C19       1.0  0.7753628553705029  0.5904197290577288  0.5348508538392309  1.0000
  C   C20       1.0  0.5738807042338294  0.5683150484049833  0.5218233998604233  1.0000
  C   C21       1.0  0.4692097578280824  0.582575718864348  0.45343141009299603  1.0000
  C   C22       1.0  0.3380485754555451  0.6040334608529605  0.4356633241918573  1.0000
  C   C23       1.0  0.3788488288928066  0.6119611017546661  0.3964434772182415  1.0000
  C   C24       1.0  0.5627565580029669  0.5993789499728096  0.37578061389859135  1.0000
  C   C25       1.0  0.6837556707030786  0.5737900481864386  0.3916134137384474  1.0000
  C   C26       1.0  0.6377889425404106  0.5651540843888582  0.4290541793102704  1.0000
  C   C27       1.0  0.23037509774717088  0.6346260179368812  0.3797490070167697  1.0000
  C   C28       1.0  0.6540164506670864  0.5260728724863243  0.5622026595277132  1.0000
  C   C29       1.0  0.6755053656896025  0.4659407442715563  0.5932246217917481  1.0000
  C   C30       1.0  0.5654591533921335  0.4458827514317534  0.6163574184856272  1.0000
  C   C31       1.0  0.6386536283896832  0.41203038351371657  0.6286274221456195  1.0000
  C   C32       1.0  0.8335163372177377  0.3977660569048993  0.6179473963532087  1.0000
  C   C33       1.0  0.9459657890305027  0.4203176093137486  0.596535421396517  1.0000
  C   C34       1.0  0.8706608618349919  0.4533590843624468  0.5841494383168352  1.0000
  C   C35       1.0  0.5056145305419193  0.3927341695673122  0.6520797802204612  1.0000
  C   C36       1.0  0.9076613500475265  0.5752025651299989  0.5587564212337597  1.0000
  C   C37       1.0  0.24119239748698362  0.4651932694796201  0.05557715503586991  1.0000
  C   C38       1.0  0.05260465205027741  0.4781489527399714  0.04648407695167125  1.0000
  C   C39       1.0  0.016209076532241882  0.5465634344871618  0.12909896456948647  1.0000
  C   C40       1.0  0.9027654270631302  0.5643376501261131  0.16831057908713384  1.0000
  C   C41       1.0  0.982551958846564  0.603570505992522  0.2154589890506742  1.0000
  C   C42       1.0  0.18711088325496666  0.6242350519445097  0.22355458666375935  1.0000
  C   C43       1.0  0.29243921062501954  0.6083745966246923  0.1821582053625833  1.0000
  C   C44       1.0  0.20920077222037045  0.5709310315826812  0.13606778412440695  1.0000
  C   C45       1.0  0.8506939209771431  0.620234844640457  0.25482612125370707  1.0000
  C   C46       1.0  0.09238148606608826  0.43776932655079287  0.9638714977862148  1.0000
  C   C47       1.0  0.08278288710225473  0.4068207692504942  0.8727292343650743  1.0000
  C   C48       1.0  0.949457031695367  0.3837446959206048  0.829574965714279  1.0000
  C   C49       1.0  0.010231852549964077  0.3714554894827414  0.783436398156688  1.0000
  C   C50       1.0  0.2157589047765427  0.3821281223080391  0.7798300547703858  1.0000
  C   C51       1.0  0.3497607209934372  0.4035326654889957  0.8237655418140972  1.0000
  C   C52       1.0  0.28698038076809956  0.41588632926175967  0.8691960017415781  1.0000
  C   C53       1.0  0.853665216784421  0.3480230944714719  0.7406994667104667  1.0000
  C   C54       1.0  0.34959748207947433  0.4412814577001711  0.016453144959406543  1.0000
  N   N1        1.0  0.8553229948693685  0.9173431548571784  0.4229473941769371  1.0000
  N   N2        1.0  0.9784876849244598  9.51730694894e-05  0.46274711028015497  1.0000
  N   N3        1.0  0.08465196558383072  0.08264785668594503  0.5050870150114902  1.0000
  N   N4        1.0  0.3103534884910247  0.03007152605669461  0.45790044812113706  1.0000
  N   N5        1.0  0.4315766928804551  0.577020672870063  0.4943460689377375  1.0000
  N   N6        1.0  0.5146160064762314  0.5372311085887702  0.5373647577307494  1.0000
  N   N7        1.0  0.5787282537870198  0.4948737034188326  0.5775685401088068  1.0000
  N   N8        1.0  0.8514137693076763  0.5420166357193993  0.5721118208884376  1.0000
  N   N9        1.0  0.9377321378297127  0.5056155269983478  0.08265617919789038  1.0000
  N   N10       1.0  0.9777456074598946  0.46257339927036156  0.9998690283358938  1.0000
  N   N11       1.0  0.0017396468826901916  0.4224316145741582  0.9173225162902268  1.0000
  N   N12       1.0  0.2799434150467732  0.4278947359553983  0.9699099591891381  1.0000
  O   O1        1.0  0.9327504784980577  0.25526051584791537  0.5894251228143759  1.0000
  O   O2        1.0  0.19902524783638142  0.30097424632563735  0.6436491888726223  1.0000
  O   O3        1.0  0.547768830880699  0.2626087225360862  0.6356434751335414  1.0000
  O   O4        1.0  0.42171810397016424  0.7540960755980776  0.35631709442174747  1.0000
  O   O5        1.0  0.6247248573001515  0.7007529154860848  0.3550474978540876  1.0000
  O   O6        1.0  0.01973442844806084  0.7320579131504986  0.3890539781863893  1.0000
  O   O7        1.0  0.3434384161868565  0.410654768677695  0.6659618426595059  1.0000
  O   O8        1.0  0.5554042618656185  0.35637379453926615  0.6573780764578245  1.0000
  O   O9        1.0  0.9123320492215896  0.36443582605397756  0.6270270107454721  1.0000
  O   O10       1.0  0.06524416940970916  0.6436065867580822  0.3977196543142013  1.0000
  O   O11       1.0  0.2695666743257237  0.644885714392011  0.34565276576847037  1.0000
  O   O12       1.0  0.6307105672458277  0.6109105342722215  0.3430150964346551  1.0000
  O   O13       1.0  0.6775887250509598  0.33420414776468743  0.7447602219824674  1.0000
  O   O14       1.0  0.8982103808546428  0.34268025122012363  0.6990307858400014  1.0000
  O   O15       1.0  0.2853567788170822  0.3730456830152349  0.7374066001147525  1.0000
  O   O16       1.0  0.6676043037837331  0.6022479287895663  0.24585133690425912  1.0000
  O   O17       1.0  0.9239502749781395  0.6542954747224742  0.2991883137440965  1.0000
  O   O18       1.0  0.28771895976665013  0.6569821719485205  0.26787528464974736  1.0000
  F   F1        1.0  0.21527698577046547  0.8981444614991928  0.37386186311736214  1.0000
  F   F2        1.0  0.8404330307525074  0.6261223622966766  0.5243390020467444  1.0000
  F   F3        1.0  0.31673023511872606  0.4757567355632659  0.1018158667474225  1.0000
