data_image0
_chemical_formula_structural       Hg2H40C54N4Cl4O8
_chemical_formula_sum              "Hg2 H40 C54 N4 Cl4 O8"
_cell_length_a       10.445484673741186
_cell_length_b       11.127334141133137
_cell_length_c       14.0039
_cell_angle_alpha    109.5735383619915
_cell_angle_beta     91.03033888385106
_cell_angle_gamma    103.74607902829324

_space_group_name_H-M_alt    "P 1"
_space_group_IT_number       1

loop_
  _space_group_symop_operation_xyz
  'x, y, z'

loop_
  _atom_site_type_symbol
  _atom_site_label
  _atom_site_symmetry_multiplicity
  _atom_site_fract_x
  _atom_site_fract_y
  _atom_site_fract_z
  _atom_site_occupancy
  Hg  Hg1       1.0  0.1583309987185402  0.1952861206473528  0.7884456876407526  1.0000
  Hg  Hg2       1.0  0.8416679489135674  0.8047147228890026  0.2115544513850409  1.0000
  H   H1        1.0  0.918300933743005  0.9502220284693835  0.6485435651992191  1.0000
  H   H2        1.0  0.08169680002213651  0.04977782766634681  0.35145629469926826  1.0000
  H   H3        1.0  0.7396060250083352  0.8781585687154846  0.5025231613244614  1.0000
  H   H4        1.0  0.2603945812756265  0.12184128742023861  0.4974745948416555  1.0000
  H   H5        1.0  0.8549608767512424  0.2748202535237283  0.4969731560790365  1.0000
  H   H6        1.0  0.1450380708808723  0.7251805900126271  0.50302841112034  1.0000
  H   H7        1.0  0.024167281578947104  0.33209442672878003  0.6447335530865175  1.0000
  H   H8        1.0  0.9758297510406139  0.6679064168075683  0.3552679884275208  1.0000
  H   H9        1.0  0.4772934545398684  0.0200975523043851  0.2900042139443428  1.0000
  H   H10       1.0  0.5227061942378199  0.979902303831345  0.7099942434658999  1.0000
  H   H11       1.0  0.6161111748749803  0.0557318534301032  0.2214899405420212  1.0000
  H   H12       1.0  0.3838877727571273  0.9442689901062522  0.7785087703101894  1.0000
  H   H13       1.0  0.586575918550956  0.3168193390728504  0.5135560646087782  1.0000
  H   H14       1.0  0.4134242429481318  0.6831824918641233  0.4864450676311236  1.0000
  H   H15       1.0  0.42435872045142287  0.389765534984754  0.6330850995823454  1.0000
  H   H16       1.0  0.5756402271806919  0.6102353085515944  0.36691503944344817  1.0000
  H   H17       1.0  0.2059386678947206  0.39771509740995736  0.5681181315762558  1.0000
  H   H18       1.0  0.7940597670159947  0.6022837713251477  0.4318821889670446  1.0000
  H   H19       1.0  0.1389014487391336  0.3206840251158596  0.3810801602698604  1.0000
  H   H20       1.0  0.861096729810889  0.6793138562186201  0.6189198939887959  1.0000
  H   H21       1.0  0.1124969453158471  0.2127848345089163  0.1824925917935332  1.0000
  H   H22       1.0  0.8875039173288144  0.7872160090274392  0.8175075729175988  1.0000
  H   H23       1.0  0.14102327323124803  0.1198536499637868  0.9976937489462757  1.0000
  H   H24       1.0  0.8589778457741063  0.8801481809731939  0.002305967962712388  1.0000
  H   H25       1.0  0.3540960095188339  0.0810300448219934  0.9428156828927001  1.0000
  H   H26       1.0  0.6459045967651277  0.9189698113137368  0.05718421553378763  1.0000
  H   H27       1.0  0.5435739820893986  0.12201013292697382  0.0710661466743119  1.0000
  H   H28       1.0  0.45642713691596265  0.8779916980099998  0.9289342843214641  1.0000
  H   H29       1.0  0.7214048197421051  0.3554267034779528  0.3689225592999534  1.0000
  H   H30       1.0  0.2785948290355833  0.6445731526577774  0.6310766121970772  1.0000
  H   H31       1.0  0.6286461468340434  0.421919248910271  0.3002738829876961  1.0000
  H   H32       1.0  0.3713547158106181  0.5780815946260844  0.6997269958102308  1.0000
  H   H33       1.0  0.7637036090347351  0.1400953627592969  0.0445267948421488  1.0000
  H   H34       1.0  0.23629533859737956  0.8599054807770585  0.9554733441836446  1.0000
  H   H35       1.0  0.8704538441950975  0.0935453477333681  0.8827625564446819  1.0000
  H   H36       1.0  0.1295451034370103  0.9064554958029875  0.11723829666790657  1.0000
  H   H37       1.0  0.1635877707748676  0.4445909546418676  0.9985654333256448  1.0000
  H   H38       1.0  0.8364118780028207  0.5554089014938626  0.0014358804317566882  1.0000
  H   H39       1.0  0.0712280326488539  0.5038685637133683  0.1690786192916036  1.0000
  H   H40       1.0  0.9287718724895342  0.4961322798229872  0.830922246663654  1.0000
  C   C1        1.0  0.8995011998278671  0.018881074735404  0.6130355141427799  1.0000
  C   C2        1.0  0.10049915009539488  0.9811177939997009  0.38696268982548787  1.0000
  C   C3        1.0  0.8012197321278833  0.9792121107950537  0.532409427100454  1.0000
  C   C4        1.0  0.1987825328079396  0.0207867579400514  0.467588088466357  1.0000
  C   C5        1.0  0.7835868837923101  0.0712883502639201  0.4891417322634197  1.0000
  C   C6        1.0  0.21641633864978618  0.9287105184711849  0.5108550820592725  1.0000
  C   C7        1.0  0.8645474506339427  0.20042356609491213  0.5290900441831496  1.0000
  C   C8        1.0  0.1354524545044455  0.7995772774414363  0.4709101076853131  1.0000
  C   C9        1.0  0.9599786802638876  0.23221885359385652  0.6105810928895963  1.0000
  C   C10       1.0  0.040023207823558886  0.7677859395449929  0.3894208510468999  1.0000
  C   C11       1.0  0.6800752475852293  0.0258402743345627  0.40059171102007696  1.0000
  C   C12       1.0  0.31992624826850147  0.9741556321986665  0.5994050056928087  1.0000
  C   C13       1.0  0.56618075372932  0.0955714938141625  0.2889916667708547  1.0000
  C   C14       1.0  0.4338188950483683  0.9044283623215676  0.7110082188129639  1.0000
  C   C15       1.0  0.5316107867968896  0.222620332126283  0.2913027728980424  1.0000
  C   C16       1.0  0.4683888619808059  0.7773795240094402  0.7086971126857763  1.0000
  C   C17       1.0  0.452120315422917  0.27341715723677856  0.3796847108419144  1.0000
  C   C18       1.0  0.547877931063617  0.7265846737001951  0.6203149675390662  1.0000
  C   C19       1.0  0.48938905597595556  0.3169042555265307  0.4840044428278532  1.0000
  C   C20       1.0  0.5106108491624255  0.6830965880098249  0.5159964231274046  1.0000
  C   C21       1.0  0.3987177895722951  0.35996380934602  0.5511970415905623  1.0000
  C   C22       1.0  0.6012825603509739  0.6400350593890849  0.4488033046380764  1.0000
  C   C23       1.0  0.2741213195482857  0.3621064687004676  0.5141969673883579  1.0000
  C   C24       1.0  0.7258759014954563  0.6378914126340122  0.4858030740276292  1.0000
  C   C25       1.0  0.2362432205556715  0.3189866834429083  0.40949268745703193  1.0000
  C   C26       1.0  0.7637556591399247  0.6810102104909461  0.5905071133596493  1.0000
  C   C27       1.0  0.3255509011702102  0.2730686048164443  0.3421414011807329  1.0000
  C   C28       1.0  0.674452321271879  0.7269302639186606  0.6578596976627011  1.0000
  C   C29       1.0  0.3135060473333127  0.2203443736875741  0.230599625630866  1.0000
  C   C30       1.0  0.6864943025899564  0.7796544950475308  0.7694000065109847  1.0000
  C   C31       1.0  0.2070740579481622  0.1950916027243892  0.1586854228843677  1.0000
  C   C32       1.0  0.792925590829526  0.8049082534113411  0.8413144626994509  1.0000
  C   C33       1.0  0.22321375537510593  0.1434456130771125  0.055342319690353685  1.0000
  C   C34       1.0  0.7767873636302483  0.8565562178598682  0.9446573972186342  1.0000
  C   C35       1.0  0.34391839902288973  0.11904793105446031  0.0241153884469441  1.0000
  C   C36       1.0  0.6560824636217717  0.8809529124818881  0.9758847762641878  1.0000
  C   C37       1.0  0.4501968253852837  0.14210867263198423  0.0959003144623765  1.0000
  C   C38       1.0  0.5498052511263438  0.8578931583049965  0.9041001293760687  1.0000
  C   C39       1.0  0.43402814724387895  0.19197240415263653  0.1989742485996757  1.0000
  C   C40       1.0  0.5659729717614752  0.8080294267843442  0.8010261823961001  1.0000
  C   C41       1.0  0.655961308368866  0.33244396654973946  0.2996291370869812  1.0000
  C   C42       1.0  0.34403955427579547  0.667556876986616  0.7003710276241506  1.0000
  C   C43       1.0  0.853709728836762  0.3617055840470584  0.21947471697824741  1.0000
  C   C44       1.0  0.14629062108650706  0.6382932846880465  0.7805263433371791  1.0000
  C   C45       1.0  0.9093610320794526  0.3270024017099331  0.1191822996797214  1.0000
  C   C46       1.0  0.09063765919196239  0.6729974544257971  0.8808182871482231  1.0000
  C   C47       1.0  0.8512259145832742  0.2109867779723018  0.03750454249934171  1.0000
  C   C48       1.0  0.14877399055511378  0.7890140655640536  0.9624963234559161  1.0000
  C   C49       1.0  0.9102167853373331  0.18523339489266283  0.9470037323452587  1.0000
  C   C50       1.0  0.08978216229477448  0.8147674486436928  0.052996406680534784  1.0000
  C   C51       1.0  0.074767074388717  0.3807545168885654  0.01278324917010561  1.0000
  C   C52       1.0  0.9252335318952518  0.6192453392471577  0.9872173633431771  1.0000
  C   C53       1.0  0.02365618202633612  0.41322617381506893  0.1065149263282805  1.0000
  C   C54       1.0  0.9763437231120519  0.5867746697212866  0.8934859396269772  1.0000
  N   N1        1.0  0.97732584899925  0.1428344120907497  0.6512224431522711  1.0000
  N   N2        1.0  0.022672073190079755  0.8571624818431047  0.348778772995324  1.0000
  N   N3        1.0  0.019297851498748696  0.2688000719181574  0.9346902188853504  1.0000
  N   N4        1.0  0.9807017972789396  0.7311997842175728  0.06531038078526313  1.0000
  Cl  Cl1       1.0  0.11356467412232257  0.9696570349549418  0.7819412463929467  1.0000
  Cl  Cl2       1.0  0.886437146028612  0.030343808581406503  0.21805821707406636  1.0000
  Cl  Cl3       1.0  0.2909135399186269  0.4114379912846928  0.8152326852319759  1.0000
  Cl  Cl4       1.0  0.7090844502072073  0.5885628522516626  0.18476815503793628  1.0000
  O   O1        1.0  0.6226760331988785  0.9100249490593698  0.3547943089240277  1.0000
  O   O2        1.0  0.37732553059136353  0.0899749070763605  0.6452041741715533  1.0000
  O   O3        1.0  0.6579166105549773  0.1283759047510102  0.3781732697185021  1.0000
  O   O4        1.0  0.3420842520896841  0.8716249387853452  0.6218268949926298  1.0000
  O   O5        1.0  0.7269264989327908  0.29188253630940864  0.2111561259023347  1.0000
  O   O6        1.0  0.273074107351178  0.7081173198263216  0.7888430584373651  1.0000
  O   O7        1.0  0.9159920308667326  0.4441397125566198  0.2986369263721329  1.0000
  O   O8        1.0  0.0840087638414175  0.5558571813772346  0.7013636142166746  1.0000
