data_image0
_chemical_formula_structural       Zn2H24C14S2O20
_chemical_formula_sum              "Zn2 H24 C14 S2 O20"
_cell_length_a       7.020153429117905
_cell_length_b       9.651659069841829
_cell_length_c       9.651649805438478
_cell_angle_alpha    114.48350997194181
_cell_angle_beta     92.50629076686744
_cell_angle_gamma    92.50613541113864

_space_group_name_H-M_alt    "P 1"
_space_group_IT_number       1

loop_
  _space_group_symop_operation_xyz
  'x, y, z'

loop_
  _atom_site_type_symbol
  _atom_site_label
  _atom_site_symmetry_multiplicity
  _atom_site_fract_x
  _atom_site_fract_y
  _atom_site_fract_z
  _atom_site_occupancy
  Zn  Zn1       1.0  0.4924053524274258  0.38139975037285717  0.5965312417410685  1.0000
  Zn  Zn2       1.0  0.9924064080671969  0.5965314095340943  0.3814005934027873  1.0000
  H   H1        1.0  0.4610585660337634  0.0251579571002267  0.8087888191478496  1.0000
  H   H2        1.0  0.9610560559919322  0.8087874723847931  0.02515664427836121  1.0000
  H   H3        1.0  0.4049174716515296  0.7947086001684197  0.8561226342391917  1.0000
  H   H4        1.0  0.9049174581097291  0.8561239276551333  0.7947085305758106  1.0000
  H   H5        1.0  0.6224307170879938  0.04837909375352469  0.3258533106073287  1.0000
  H   H6        1.0  0.1224315894226962  0.32585286822504855  0.04837988666008637  1.0000
  H   H7        1.0  0.684848867526796  0.3657714493200714  0.09692151908866006  1.0000
  H   H8        1.0  0.18484654740812803  0.09691754191369739  0.3657703838172282  1.0000
  H   H9        1.0  0.37453950061040336  0.13149530790799696  0.6302280714721815  1.0000
  H   H10       1.0  0.8745412436132796  0.6302299994876464  0.13149639840196406  1.0000
  H   H11       1.0  0.604019395437163  0.1285144488684864  0.6311671784059028  1.0000
  H   H12       1.0  0.10402221188002159  0.6311684202878425  0.12851512198590587  1.0000
  H   H13       1.0  0.2867965764193201  0.5394876554156838  0.8491568971422365  1.0000
  H   H14       1.0  0.7867962398904994  0.8491570694156608  0.5394880604317577  1.0000
  H   H15       1.0  0.16331394155464812  0.3891881800794579  0.7473926003781057  1.0000
  H   H16       1.0  0.6633143753622549  0.7473921024411182  0.3891870689288694  1.0000
  H   H17       1.0  0.6704299822716849  0.532874994430763  0.8758699508345625  1.0000
  H   H18       1.0  0.17043037202962097  0.8758691618047293  0.5328751264096848  1.0000
  H   H19       1.0  0.7920364804558417  0.394858317585836  0.7787506120320556  1.0000
  H   H20       1.0  0.2920366828298668  0.7787499506199111  0.3948588814096609  1.0000
  H   H21       1.0  0.5940041724236664  0.6367000869206548  0.5471507929681463  1.0000
  H   H22       1.0  0.09400494928107149  0.5471494704263903  0.6366995676768921  1.0000
  H   H23       1.0  0.3861855930920441  0.5592061306139584  0.48349732959137975  1.0000
  H   H24       1.0  0.8861849801506735  0.48349606346100404  0.5592052741669133  1.0000
  C   C1        1.0  0.5809381187917708  0.16493049588738978  0.03669136963057437  1.0000
  C   C2        1.0  0.0809368147061775  0.03669044351819649  0.16493132054720408  1.0000
  C   C3        1.0  0.4980635809164156  0.0283212126698729  0.9206423091548287  1.0000
  C   C4        1.0  0.9980693651535617  0.9206437876220688  0.02832301692487942  1.0000
  C   C5        1.0  0.4656645934094783  0.9001296865506561  0.9482504412802795  1.0000
  C   C6        1.0  0.9656715106078623  0.9482501871804561  0.9001310206155749  1.0000
  C   C7        1.0  0.5130983686808293  0.9073559474562599  0.09439285205183247  1.0000
  C   C8        1.0  0.013098565122128003  0.0943926499746297  0.9073534395767022  1.0000
  C   C9        1.0  0.589612431952375  0.04185805427985661  0.211929122582056  1.0000
  C   C10       1.0  0.0896142454048103  0.21192945818648212  0.04185576214746327  1.0000
  C   C11       1.0  0.6254296782482385  0.1722274636835053  0.18491982390536774  1.0000
  C   C12       1.0  0.1254311744405925  0.18491765937709906  0.1722246744855623  1.0000
  C   C13       1.0  0.7140043923906775  0.31364784464098244  0.30955815073865967  1.0000
  C   C14       1.0  0.2140027088897938  0.3095581699325791  0.3136487648638492  1.0000
  S   S1        1.0  0.4857474238981254  0.7397144848844731  0.12356870088387226  1.0000
  S   S2        1.0  0.9857478954975464  0.12356900212472505  0.7397138606245404  1.0000
  O   O1        1.0  0.49073582536358623  0.1649807910166174  0.5952673316347441  1.0000
  O   O2        1.0  0.9907368407969628  0.595268880303287  0.1649824694503791  1.0000
  O   O3        1.0  0.25592015676460994  0.4670522313209276  0.7407588985426228  1.0000
  O   O4        1.0  0.7559195758463488  0.7407580978007643  0.46705285721634465  1.0000
  O   O5        1.0  0.7044360450129974  0.4691180117361213  0.7705974710167992  1.0000
  O   O6        1.0  0.2044371065577621  0.7705966958251124  0.46911878115893274  1.0000
  O   O7        1.0  0.48223901268842445  0.5870921887453022  0.5717894824476986  1.0000
  O   O8        1.0  0.9822405696098216  0.5717876302768019  0.5870903446445437  1.0000
  O   O9        1.0  0.7318206820220752  0.32465849408517766  0.4459778284521219  1.0000
  O   O10       1.0  0.23182237436611083  0.44597799936678223  0.3246570455703972  1.0000
  O   O11       1.0  0.7732416225340017  0.4207894830320739  0.27167181228440995  1.0000
  O   O12       1.0  0.2732435584473905  0.2716710421124802  0.42078742198321334  1.0000
  O   O13       1.0  0.6141785029997565  0.2848304170495908  0.002610171124878467  1.0000
  O   O14       1.0  0.11417009047508493  0.0026099763597500006  0.2848324838305416  1.0000
  O   O15       1.0  0.4835247854426186  0.7839104319550643  0.289074602189899  1.0000
  O   O16       1.0  0.9835232745983404  0.28907105306467423  0.7839074046978778  1.0000
  O   O17       1.0  0.6513950975595009  0.6494753883434753  0.060383179799664656  1.0000
  O   O18       1.0  0.15139211514274115  0.06038225603365529  0.6494723036205556  1.0000
  O   O19       1.0  0.3052964610008147  0.6573995908243973  0.039401628860787054  1.0000
  O   O20       1.0  0.805297144448538  0.0394023247476412  0.6573991555111292  1.0000
