data_image0
_chemical_formula_structural       Zn6H36C70N5Cl5O24
_chemical_formula_sum              "Zn6 H36 C70 N5 Cl5 O24"
_cell_length_a       18.495891096299115
_cell_length_b       18.61236739205785
_cell_length_c       18.7100391608942
_cell_angle_alpha    109.46216516818707
_cell_angle_beta     109.7769230161103
_cell_angle_gamma    108.85987849416897

_space_group_name_H-M_alt    "P 1"
_space_group_IT_number       1

loop_
  _space_group_symop_operation_xyz
  'x, y, z'

loop_
  _atom_site_type_symbol
  _atom_site_label
  _atom_site_symmetry_multiplicity
  _atom_site_fract_x
  _atom_site_fract_y
  _atom_site_fract_z
  _atom_site_occupancy
  Zn  Zn1       1.0  0.5022399907217617  0.4283146693994267  0.4312377115399002  1.0000
  Zn  Zn2       1.0  0.5028642032583831  0.5570616308332672  0.5548484887101991  1.0000
  Zn  Zn3       1.0  0.9395841763571227  0.43901348643646554  0.007884931882564766  1.0000
  Zn  Zn4       1.0  0.0699894458833227  0.5602276710073751  0.009322791261197871  1.0000
  Zn  Zn5       1.0  0.9340644120074659  0.014441630845020396  0.447072379063478  1.0000
  Zn  Zn6       1.0  0.0690799476384356  0.008715008504211101  0.5549547531816117  1.0000
  H   H1        1.0  0.2354492262212275  0.5922044177667088  0.30991389927339713  1.0000
  H   H2        1.0  0.9384580708456627  0.7960949207483098  0.4915124585156933  1.0000
  H   H3        1.0  0.7100585610799114  0.8728333748365241  0.4689898945924541  1.0000
  H   H4        1.0  0.5100909952741547  0.3679177879816891  0.6072361475777087  1.0000
  H   H5        1.0  0.4476937825078765  0.31335896941467917  0.6882230586932111  1.0000
  H   H6        1.0  0.8969747701283313  0.5334337195368234  0.7885902133200133  1.0000
  H   H7        1.0  0.3352929586710829  0.4036763005038678  0.6346280259506969  1.0000
  H   H8        1.0  0.36903751565637316  0.5735466929239336  0.2752333094755032  1.0000
  H   H9        1.0  0.29066514604471655  0.30601956368782607  0.341366984640203  1.0000
  H   H10       1.0  0.17221302849041112  0.1836007746368225  0.19659665312853042  1.0000
  H   H11       1.0  0.04063531704188251  0.06932327774424608  0.180084695657925  1.0000
  H   H12       1.0  0.0290218761077412  0.08035210658427869  0.31051977716643364  1.0000
  H   H13       1.0  0.21160757111031359  0.2814466567585824  0.6192082914373387  1.0000
  H   H14       1.0  0.1442542397888431  0.7421860505005  0.2864224948881002  1.0000
  H   H15       1.0  0.7478637269357549  0.6522542205102084  0.9898919195513971  1.0000
  H   H16       1.0  0.23402883493557874  0.44122994064104387  0.09983523711215267  1.0000
  H   H17       1.0  0.1370749190408417  0.8470997558495766  0.4058583086302364  1.0000
  H   H18       1.0  0.07981197390577677  0.4011439849674118  0.7806603584494101  1.0000
  H   H19       1.0  0.04341564564716542  0.31627303096189496  0.9863726232283198  1.0000
  H   H20       1.0  0.01865532208503136  0.18575724485301484  0.0014734097797770662  1.0000
  H   H21       1.0  0.9984806967375308  0.05335298542157569  0.8863863981656624  1.0000
  H   H22       1.0  0.06496267779748166  0.27150214665681455  0.6658564211411644  1.0000
  H   H23       1.0  0.22031451674157412  0.3127445552425314  0.1514414325506763  1.0000
  H   H24       1.0  0.22349447932926128  0.4647126687766629  0.364307621078261  1.0000
  H   H25       1.0  0.7173910439090819  0.5678106091200802  0.5011460458835373  1.0000
  H   H26       1.0  0.8493650023870247  0.561332752081796  0.5083108723082645  1.0000
  H   H27       1.0  0.012816640700094604  0.7118914845565809  0.4860048177581787  1.0000
  H   H28       1.0  0.9759517572297229  0.6170019245057005  0.48871954096519227  1.0000
  H   H29       1.0  0.7714822636717856  0.5569402938902284  0.6098906765845696  1.0000
  H   H30       1.0  0.8725776854715618  0.5903441282086346  0.6897850362534683  1.0000
  H   H31       1.0  0.9638451553909704  0.682673696531772  0.022342168959731654  1.0000
  H   H32       1.0  0.8538246307967654  0.6240639656204577  0.9480562822868919  1.0000
  H   H33       1.0  0.7535537951450167  0.752436657725866  0.250699237968341  1.0000
  H   H34       1.0  0.8578895090109314  0.8293228078517103  0.32812570132189484  1.0000
  H   H35       1.0  0.03373188351978481  0.03386496967485899  0.7109371539473415  1.0000
  H   H36       1.0  0.9882462928574403  0.9831589574336519  0.757296259131728  1.0000
  C   C1        1.0  0.6113665964136389  0.6279019134843223  0.5029417574712767  1.0000
  C   C2        1.0  0.1526065789600324  0.3862214605243324  0.20926991968140382  1.0000
  C   C3        1.0  0.22543664534709507  0.46007906239362467  0.3052566786965443  1.0000
  C   C4        1.0  0.29728431734275057  0.44831021493045126  0.28384340963808086  1.0000
  C   C5        1.0  0.7673725224103479  0.6203732561386204  0.5030853217700583  1.0000
  C   C6        1.0  0.8406283614961582  0.6157553157874248  0.505170940002806  1.0000
  C   C7        1.0  0.9040477795256692  0.6798689208989968  0.5011578587472129  1.0000
  C   C8        1.0  0.8904897521941352  0.7474225610652638  0.49537891279588564  1.0000
  C   C9        1.0  0.8163311976959235  0.7543802486167691  0.4940947814801363  1.0000
  C   C10       1.0  0.7518867713755739  0.6890316721364868  0.4976804345869824  1.0000
  C   C11       1.0  0.6758047292663818  0.6944331139091134  0.4956483922517804  1.0000
  C   C12       1.0  0.37515966098214193  0.45450718339518653  0.34898845754780444  1.0000
  C   C13       1.0  0.661935525682445  0.7601832846235793  0.48494020238280205  1.0000
  C   C14       1.0  0.7227722150673158  0.8224833609533632  0.4781440894853047  1.0000
  C   C15       1.0  0.7993136974524617  0.8217592801387282  0.48486072161539795  1.0000
  C   C16       1.0  0.5539877266132437  0.3811368339184255  0.6717810705171702  1.0000
  C   C17       1.0  0.5187650880003574  0.35105871453242793  0.7165060976875139  1.0000
  C   C18       1.0  0.5749427365872607  0.3732288317759469  0.8025284460689336  1.0000
  C   C19       1.0  0.666377784448649  0.4202391042772149  0.8407857296954689  1.0000
  C   C20       1.0  0.7050863526099606  0.4405734788501547  0.7904072156385669  1.0000
  C   C21       1.0  0.6467816889118652  0.42820956676857236  0.7077884985954769  1.0000
  C   C22       1.0  0.6811418390891789  0.4644898671066287  0.6628143872260354  1.0000
  C   C23       1.0  0.3781447696079638  0.4072337999256489  0.5141856942813803  1.0000
  C   C24       1.0  0.7714397032538614  0.5068520746909398  0.6933493049566196  1.0000
  C   C25       1.0  0.8270033509665852  0.5077565633721335  0.7677415722763643  1.0000
  C   C26       1.0  0.7971088170993923  0.4763362913836318  0.8155513180694456  1.0000
  C   C27       1.0  0.2334807940015509  0.2581654466120397  0.33574879526174334  1.0000
  C   C28       1.0  0.1671651410377279  0.18853298003341476  0.2542661919894798  1.0000
  C   C29       1.0  0.09293104153891821  0.123939222466241  0.24491387111966395  1.0000
  C   C30       1.0  0.0864295292613804  0.1298925715800578  0.3176453023798232  1.0000
  C   C31       1.0  0.15341041290983531  0.20109205566652122  0.40269284218734214  1.0000
  C   C32       1.0  0.22907980342352366  0.26737517668043137  0.41244935589401877  1.0000
  C   C33       1.0  0.2950115278080433  0.340012114830003  0.49843229303022707  1.0000
  C   C34       1.0  0.6190694609592668  0.46856452841897317  0.5897997238113888  1.0000
  C   C35       1.0  0.2853042969873627  0.3468709390371528  0.5703128663370833  1.0000
  C   C36       1.0  0.21485577466434336  0.27892062525668115  0.5613715339103251  1.0000
  C   C37       1.0  0.15050257511278892  0.2071632946238893  0.47961513346434975  1.0000
  C   C38       1.0  0.023703531241665115  0.6427868756126073  0.11813608205974906  1.0000
  C   C39       1.0  0.0920308246229951  0.4695812909427061  0.12377918537465152  1.0000
  C   C40       1.0  0.04948096544174512  0.4104836454602461  0.9097847140581835  1.0000
  C   C41       1.0  0.8660591955618031  0.4745906245659625  0.8850209474178785  1.0000
  C   C42       1.0  0.0376680596541021  0.12422767992006806  0.651888707658543  1.0000
  C   C43       1.0  0.8637100958801655  0.8939032036890353  0.48398732708882625  1.0000
  C   C44       1.0  0.014721861045430166  0.8872682063834174  0.39707141571887666  1.0000
  C   C45       1.0  0.3058233659449172  0.520359586217495  0.2551830576183677  1.0000
  C   C46       1.0  0.08384059216070479  0.13302738406227377  0.4767136667769378  1.0000
  C   C47       1.0  0.8822986805854997  0.6911360562282383  0.07543269555998233  1.0000
  C   C48       1.0  0.7989577278316846  0.6801170349131239  0.05704236619924801  1.0000
  C   C49       1.0  0.779875257044189  0.7043214266928642  0.12454171617094519  1.0000
  C   C50       1.0  0.8433035792748527  0.7492028197377393  0.21371811125092663  1.0000
  C   C51       1.0  0.9312681210793629  0.7660808341891678  0.2347129404986532  1.0000
  C   C52       1.0  0.9460975433158865  0.7246062731074047  0.1646777503777912  1.0000
  C   C53       1.0  0.021365304296764927  0.7127218480285292  0.18567265302964842  1.0000
  C   C54       1.0  0.08782139002016019  0.7531773862760434  0.27171628665711733  1.0000
  C   C55       1.0  0.08175880612332508  0.8083795591526195  0.3390152928481314  1.0000
  C   C56       1.0  0.23390010123445404  0.5306260427468531  0.27639798963054585  1.0000
  C   C57       1.0  0.006227427742821562  0.8162146487818019  0.3227403556251789  1.0000
  C   C58       1.0  0.038891154682218584  0.2605777180489426  0.9376883822754467  1.0000
  C   C59       1.0  0.02348329371148588  0.18656544409783035  0.9451896641703499  1.0000
  C   C60       1.0  0.012591144718577085  0.11221143891732767  0.8805913733649862  1.0000
  C   C61       1.0  0.0184207349591929  0.11035185780006879  0.8076437041134242  1.0000
  C   C62       1.0  0.03841136738175519  0.1881796104143163  0.7995145951752819  1.0000
  C   C63       1.0  0.04531177996761219  0.263020838718063  0.8650367185199102  1.0000
  C   C64       1.0  0.05841624217611499  0.3385750003255339  0.8547045108521232  1.0000
  C   C65       1.0  0.06930705594004388  0.3426740869159417  0.7863532140458107  1.0000
  C   C66       1.0  0.061279821372046656  0.27002563993157475  0.7223007316723411  1.0000
  C   C67       1.0  0.15960903460518944  0.4566914014384621  0.1796831501251503  1.0000
  C   C68       1.0  0.04584804228897349  0.19434802819068858  0.7278448714845853  1.0000
  C   C69       1.0  0.23300444151322358  0.4465611049396331  0.15942322744075454  1.0000
  C   C70       1.0  0.22472185658791227  0.3752356738185866  0.1875670544454238  1.0000
  N   N1        1.0  0.9787730715513235  0.6759480502608922  0.5057045665547975  1.0000
  N   N2        1.0  0.8080674964782942  0.5437750719168973  0.6525863038588541  1.0000
  N   N3        1.0  0.9025661743968101  0.6723369154975599  0.009418957924836498  1.0000
  N   N4        1.0  0.8178817806286602  0.7672096727891641  0.27678922928406985  1.0000
  N   N5        1.0  0.9986390337023965  0.031974355704690496  0.7425580739431369  1.0000
  Cl  Cl1       1.0  0.5265936631026521  0.3445897791621491  0.8601098115416834  1.0000
  Cl  Cl2       1.0  0.7282494043118888  0.46304133667862857  0.9518661520580879  1.0000
  Cl  Cl3       1.0  0.6713544136699738  0.6793298573421112  0.09482627274568507  1.0000
  Cl  Cl4       1.0  0.05516160065101869  0.2998647466042144  0.1820207501185394  1.0000
  Cl  Cl5       1.0  0.567838342469436  0.7664994692234828  0.47484634544778004  1.0000
  O   O1        1.0  0.5832658286525713  0.5479895900697115  0.4516430812431622  1.0000
  O   O2        1.0  0.08054640911866062  0.6658497209605513  0.09366799876650586  1.0000
  O   O3        1.0  0.010005853217251047  0.42030729707948206  0.0959917922412217  1.0000
  O   O4        1.0  0.12161905974073049  0.529627175487775  0.10657400979808067  1.0000
  O   O5        1.0  0.9891833370150283  0.3893062281894615  0.9288969815602077  1.0000
  O   O6        1.0  0.10030016516580527  0.49036274682683967  0.9325688419002278  1.0000
  O   O7        1.0  0.8411605016422145  0.4153474032333903  0.9055634335031543  1.0000
  O   O8        1.0  0.9463507917716998  0.5305564571808786  0.9172792243399004  1.0000
  O   O9        1.0  0.9804642205302658  0.10249900419223928  0.5766128343735133  1.0000
  O   O10       1.0  0.09216917146840592  0.09417549518131808  0.6666521695144497  1.0000
  O   O11       1.0  0.8330518541862945  0.9231380455437517  0.43365248857865885  1.0000
  O   O12       1.0  0.590058717127036  0.6556455125573777  0.5609919402950112  1.0000
  O   O13       1.0  0.9453859520868944  0.9236391106535178  0.5323945781706172  1.0000
  O   O14       1.0  0.969694698124087  0.9254347501603843  0.3815254778784691  1.0000
  O   O15       1.0  0.07186884724283964  0.912038757783371  0.4762167369138909  1.0000
  O   O16       1.0  0.000997193855781085  0.10423577911122807  0.4286119739962473  1.0000
  O   O17       1.0  0.11578714500073062  0.10398349930996886  0.5244980470568451  1.0000
  O   O18       1.0  0.4033088197074974  0.4008355664917857  0.32470489702337346  1.0000
  O   O19       1.0  0.4095370883530762  0.5148407068858417  0.42706333505091726  1.0000
  O   O20       1.0  0.4160569450251544  0.38067788658808877  0.47446589738162004  1.0000
  O   O21       1.0  0.40841729662641063  0.48829935752976883  0.5683750778343182  1.0000
  O   O22       1.0  0.5944485775456984  0.41713781357458396  0.5099808316353247  1.0000
  O   O23       1.0  0.5959246082521688  0.5253056646214062  0.6137273822408105  1.0000
  O   O24       1.0  0.9704912005309654  0.5648330503209136  0.0929560634010329  1.0000
