data_image0
_chemical_formula_structural       H32Pb4C40N16O36
_chemical_formula_sum              "H32 Pb4 C40 N16 O36"
_cell_length_a       6.740255627
_cell_length_b       12.518868331276524
_cell_length_c       15.648
_cell_angle_alpha    90.0
_cell_angle_beta     90.0
_cell_angle_gamma    103.55494550293118

_space_group_name_H-M_alt    "P 1"
_space_group_IT_number       1

loop_
  _space_group_symop_operation_xyz
  'x, y, z'

loop_
  _atom_site_type_symbol
  _atom_site_label
  _atom_site_symmetry_multiplicity
  _atom_site_fract_x
  _atom_site_fract_y
  _atom_site_fract_z
  _atom_site_occupancy
  H   H1        1.0  0.948138421904531  0.2897660494683976  0.802501278118612  1.0000
  H   H2        1.0  0.5518627494177579  0.210237121647765  0.3025006390593035  1.0000
  H   H3        1.0  0.051866305792756945  0.7102419361273109  0.1974955265848664  1.0000
  H   H4        1.0  0.44815205880783543  0.7897667555394821  0.6974993609406965  1.0000
  H   H5        1.0  0.6138594197149487  0.7395578956138708  0.1889832566462175  1.0000
  H   H6        1.0  0.8861302383513773  0.7604310756922601  0.6889890081799592  1.0000
  H   H7        1.0  0.3861206555068009  0.260437764756432  0.8110192995910026  1.0000
  H   H8        1.0  0.11387541615727058  0.23956540635973064  0.3110129089979523  1.0000
  H   H9        1.0  0.08534086186012507  0.3595662660294111  0.9378252811860932  1.0000
  H   H10       1.0  0.414668257578775  0.1404327966782759  0.4378220858895716  1.0000
  H   H11       1.0  0.9146680647295182  0.6404343244310553  0.0621747188139068  1.0000
  H   H12       1.0  0.5853442987834043  0.8595727238723543  0.5621753578732083  1.0000
  H   H13       1.0  0.3299901752676745  0.6641521665348551  0.8360167433537811  1.0000
  H   H14       1.0  0.1700112598081418  0.8358483083150006  0.3360141871165609  1.0000
  H   H15       1.0  0.6700309251424912  0.3358525323340871  0.1639851738241305  1.0000
  H   H16       1.0  0.8299849766982206  0.1641572122356294  0.6639851738241305  1.0000
  H   H17       1.0  0.5145507293326759  0.6727288800591752  0.3247539621676907  1.0000
  H   H18       1.0  0.9854378556590075  0.8272576262018776  0.8247558793456022  1.0000
  H   H19       1.0  0.4854359957651937  0.32726842367451786  0.6752511503067495  1.0000
  H   H20       1.0  0.014562327762298804  0.17273310407825457  0.1752460378323093  1.0000
  H   H21       1.0  0.7630817048575481  0.9722786934607088  0.4356665388548038  1.0000
  H   H22       1.0  0.7369071321115468  0.5277152079355929  0.9356735685071556  1.0000
  H   H23       1.0  0.23691049132766295  0.0277243620448431  0.5643341002044977  1.0000
  H   H24       1.0  0.2630948397674969  0.4722796307530146  0.0643270705521459  1.0000
  H   H25       1.0  0.9534243270881287  0.7062378812313598  0.559736707566465  1.0000
  H   H26       1.0  0.546569676133835  0.7937576635283322  0.0597347903885463  1.0000
  H   H27       1.0  0.04657498237888549  0.29376106586572354  0.4402677658486738  1.0000
  H   H28       1.0  0.4534182277528131  0.2062355317968851  0.9402645705521451  1.0000
  H   H29       1.0  0.11632370482676894  0.8046235822527593  0.5141954243353766  1.0000
  H   H30       1.0  0.3836681659834865  0.6953719625069255  0.0141947852760751  1.0000
  H   H31       1.0  0.8836771411205646  0.19537207811754345  0.4858090490797551  1.0000
  H   H32       1.0  0.6163241887729213  0.30462123281829184  0.9858026584867048  1.0000
  Pb  Pb1       1.0  0.29260722300709563  0.5967898795606033  0.5180201942740297  1.0000
  Pb  Pb2       1.0  0.20738899295879068  0.9032122386526356  0.018015720858898  1.0000
  Pb  Pb3       1.0  0.7073957690895225  0.4032107108998631  0.4819810838445804  1.0000
  Pb  Pb4       1.0  0.7926069387130921  0.0967891734895261  0.9819823619631904  1.0000
  C   C1        1.0  0.2240844167671412  0.5158254738201579  0.8982266104294467  1.0000
  C   C2        1.0  0.27591625006851217  0.9841766443930808  0.3982234151329251  1.0000
  C   C3        1.0  0.7759308020070677  0.4841759383220038  0.1017746676891633  1.0000
  C   C4        1.0  0.7240862786224225  0.0158296978392443  0.6017778629856849  1.0000
  C   C5        1.0  0.2076469894131066  0.5489211691001472  0.7436643660531672  1.0000
  C   C6        1.0  0.29235628697751537  0.9510801274313962  0.2436592535787341  1.0000
  C   C7        1.0  0.7923621891539483  0.4510868164955682  0.2563349948875242  1.0000
  C   C8        1.0  0.7076485464339015  0.0489212847107581  0.7563349948875242  1.0000
  C   C9        1.0  0.0844426035655843  0.43781583545214187  0.7337838701431493  1.0000
  C   C10       1.0  0.4155634957697315  0.062186513982325706  0.2337800357873192  1.0000
  C   C11       1.0  0.9155580838105448  0.5621896850984882  0.2662180470347622  1.0000
  C   C12       1.0  0.5844445568656127  0.9378222932950778  0.7662161298568506  1.0000
  C   C13       1.0  0.04301245900782649  0.373466655250617  0.805738113496929  1.0000
  C   C14       1.0  0.456991083629596  0.1265332291387722  0.3057368353783261  1.0000
  C   C15       1.0  0.956996414724749  0.62653722193663  0.1942612474437624  1.0000
  C   C16       1.0  0.5430196314177849  0.8734714697301698  0.6942612474437624  1.0000
  C   C17       1.0  0.9873128508851959  0.3938221758616508  0.6513624744376258  1.0000
  C   C18       1.0  0.5126834061616421  0.10618674702637072  0.1513586400818028  1.0000
  C   C19       1.0  0.012686247153545998  0.6061899181425333  0.3486381646216756  1.0000
  C   C20       1.0  0.48731687066587875  0.8938212385693376  0.8486375255623742  1.0000
  C   C21       1.0  0.6221882142141196  0.8192125407337232  0.3918571063394651  1.0000
  C   C22       1.0  0.8777791895033715  0.6807764305724078  0.8918615797546039  1.0000
  C   C23       1.0  0.377779992021587  0.18078311963657973  0.6081467280163579  1.0000
  C   C24       1.0  0.12221654304816809  0.31921429970772414  0.1081435327198363  1.0000
  C   C25       1.0  0.8191176947885879  0.973368243387249  0.3040989263803695  1.0000
  C   C26       1.0  0.680871963277738  0.5266207279188819  0.804099565439671  1.0000
  C   C27       1.0  0.18085971802112505  0.0266315253915224  0.6959036298568506  1.0000
  C   C28       1.0  0.3191367641915618  0.4733691806795548  0.1958946830265873  1.0000
  C   C29       1.0  0.7677683271858909  0.9027282681347373  0.2295456288343587  1.0000
  C   C30       1.0  0.7322239404354034  0.5972598814896983  0.7295539366053134  1.0000
  C   C31       1.0  0.23221476813943545  0.09726410550878482  0.7704511758691197  1.0000
  C   C32       1.0  0.267783661102186  0.4027308487904336  0.2704543711656413  1.0000
  C   C33       1.0  0.6568008365566911  0.7969293548680341  0.241712678936608  1.0000
  C   C34       1.0  0.8431925569963141  0.7030579730747064  0.7417197085889597  1.0000
  C   C35       1.0  0.3431803645967689  0.2030654838205663  0.7582911554192222  1.0000
  C   C36       1.0  0.15682460880684349  0.2969376872955962  0.2582815695296503  1.0000
  C   C37       1.0  0.8375279355817398  0.9400671276837047  0.1418647750511255  1.0000
  C   C38       1.0  0.6624602388613283  0.5599218436224263  0.6418686094069557  1.0000
  C   C39       1.0  0.1624663133465418  0.0599236025964345  0.858133307770963  1.0000
  C   C40       1.0  0.3375417330177157  0.44007299506617414  0.3581307515337429  1.0000
  N   N1        1.0  0.113791077581098  0.40978252109027125  0.88414302147239  1.0000
  N   N2        1.0  0.3862201351500118  0.0902247584343598  0.3841353527607367  1.0000
  N   N3        1.0  0.8862229624043394  0.5902229994603587  0.1158608128834331  1.0000
  N   N4        1.0  0.6137967663678053  0.9097873355698242  0.6158608128834331  1.0000
  N   N5        1.0  0.25875403991783225  0.5809831888088014  0.8276457055214692  1.0000
  N   N6        1.0  0.2412503095474321  0.9190205727678276  0.3276412321063376  1.0000
  N   N7        1.0  0.7412696700473019  0.4190206883784456  0.1723581288343539  1.0000
  N   N8        1.0  0.7587499144230206  0.0809906995546612  0.6723568507157438  1.0000
  N   N9        1.0  0.5893718530874708  0.7555174191607962  0.3192829754601192  1.0000
  N   N10       1.0  0.9106129964175478  0.7444707304636395  0.8192797801635976  1.0000
  N   N11       1.0  0.4106070433455072  0.24448234961797516  0.6807227760736225  1.0000
  N   N12       1.0  0.0893890811756322  0.255517534771414  0.1807151073619622  1.0000
  N   N13       1.0  0.7356286057038588  0.9238076903183841  0.3808557004090005  1.0000
  N   N14       1.0  0.764363145654684  0.5761894978046911  0.8808614519427422  1.0000
  N   N15       1.0  0.2643602655432886  0.0761945435054727  0.619143660531698  1.0000
  N   N16       1.0  0.2356418463279368  0.4238020541571359  0.1191366308793462  1.0000
  O   O1        1.0  0.2860624651759096  0.5499096521783003  0.9707592024539906  1.0000
  O   O2        1.0  0.21394567263309483  0.9500891793081652  0.4707598415132921  1.0000
  O   O3        1.0  0.7139513228321093  0.4500884732370879  0.0292407975460094  1.0000
  O   O4        1.0  0.78607394415382  0.0499155195607699  0.5292363241308777  1.0000
  O   O5        1.0  0.27067130985551546  0.6186416825368184  0.6870679959100201  1.0000
  O   O6        1.0  0.22933001950617188  0.8813653657665841  0.1870648006134985  1.0000
  O   O7        1.0  0.7293505059377522  0.3813646596955068  0.3129326431492814  1.0000
  O   O8        1.0  0.7706720986361546  0.11864344151081953  0.8129351993865015  1.0000
  O   O9        1.0  0.002790088311044813  0.4600612239598902  0.5872066717791427  1.0000
  O   O10       1.0  0.49721340146930254  0.0399419471562723  0.0872015593047024  1.0000
  O   O11       1.0  0.9972151556489876  0.5399377231371858  0.412797801635989  1.0000
  O   O12       1.0  0.5027809408651933  0.9600660384394433  0.9127939672801659  1.0000
  O   O13       1.0  0.8838572464694605  0.29635347161099906  0.6477160020449872  1.0000
  O   O14       1.0  0.6161312876266222  0.20365134286855385  0.1477089723926355  1.0000
  O   O15       1.0  0.1161421564037611  0.7036627308016536  0.3522884713701444  1.0000
  O   O16       1.0  0.38387830148904806  0.7963541776820833  0.8522846370143142  1.0000
  O   O17       1.0  0.5526646534200026  0.7850470158878553  0.4635563650306764  1.0000
  O   O18       1.0  0.9473200903708799  0.7149477071901418  0.9635589212678966  1.0000
  O   O19       1.0  0.44733015232017687  0.2149552179360015  0.5364449130879336  1.0000
  O   O20       1.0  0.052681576673684616  0.28504302308999746  0.036440439672802  1.0000
  O   O21       1.0  0.9251437778794054  0.0683318713734309  0.3071894171779164  1.0000
  O   O22       1.0  0.5748501338978045  0.4316614395623973  0.8072002811860912  1.0000
  O   O23       1.0  0.07483256185567197  0.9316654323602551  0.6928099437627822  1.0000
  O   O24       1.0  0.4251444198649565  0.5683333991262103  0.1928003578732103  1.0000
  O   O25       1.0  0.9484518277002749  0.03699128819231131  0.1309553936605283  1.0000
  O   O26       1.0  0.5515203459908448  0.4629929842448846  0.6309592280163585  1.0000
  O   O27       1.0  0.05152318698274875  0.9629961553610471  0.8690401329243329  1.0000
  O   O28       1.0  0.4484632127401652  0.5369936376267788  0.3690394938650314  1.0000
  O   O29       1.0  0.7878280697539637  0.8725585813678834  0.0797788854805717  1.0000
  O   O30       1.0  0.7121573365629388  0.627441071800277  0.5797795245398802  1.0000
  O   O31       1.0  0.21216387445383583  0.1274370790024193  0.9202281441717801  1.0000
  O   O32       1.0  0.2878459603681591  0.3725636270686651  0.420214723926378  1.0000
  O   O33       1.0  0.1014669341886147  0.742268623523117  0.5537870654396713  1.0000
  O   O34       1.0  0.39852447321595713  0.7577326730084266  0.0537870654396713  1.0000
  O   O35       1.0  0.8985293551748157  0.25773361030073977  0.4462161298568503  1.0000
  O   O36       1.0  0.6014622518819123  0.2422646307252592  0.9462110173824101  1.0000
