data_image0
_chemical_formula_structural       Ag8H20C20S4N12O24
_chemical_formula_sum              "Ag8 H20 C20 S4 N12 O24"
_cell_length_a       8.212041283000715
_cell_length_b       11.125750058914985
_cell_length_c       12.114346074211321
_cell_angle_alpha    117.32275629905703
_cell_angle_beta     90.00003494580345
_cell_angle_gamma    90.00001283429576

_space_group_name_H-M_alt    "P 1"
_space_group_IT_number       1

loop_
  _space_group_symop_operation_xyz
  'x, y, z'

loop_
  _atom_site_type_symbol
  _atom_site_label
  _atom_site_symmetry_multiplicity
  _atom_site_fract_x
  _atom_site_fract_y
  _atom_site_fract_z
  _atom_site_occupancy
  Ag  Ag1       1.0  0.1283263533171208  0.3070029064175515  0.2521642978381991  1.0000
  Ag  Ag2       1.0  0.3716754057184488  0.8070019962233631  0.752164230866349  1.0000
  Ag  Ag3       1.0  0.8716740906650245  0.6930004155104542  0.7478345027457964  1.0000
  Ag  Ag4       1.0  0.6283262559880998  0.1930013349808277  0.24783539906112406  1.0000
  Ag  Ag5       1.0  0.1561207598479086  0.06002745442632571  0.013658124512211605  1.0000
  Ag  Ag6       1.0  0.3438782748627959  0.5600255194629612  0.5136576216007996  1.0000
  Ag  Ag7       1.0  0.843876030962619  0.9399728696788757  0.9863427367898084  1.0000
  Ag  Ag8       1.0  0.6561258222916351  0.4399717882702348  0.4863436417364114  1.0000
  H   H1        1.0  0.22901140736242104  0.07093483296526412  0.2831194501649535  1.0000
  H   H2        1.0  0.27098665476206923  0.5709359170543494  0.783121817867901  1.0000
  H   H3        1.0  0.7709890366187723  0.9290634493053035  0.7168789146831501  1.0000
  H   H4        1.0  0.7290113537728332  0.42906541869299286  0.2168794623189144  1.0000
  H   H5        1.0  0.09704438179952751  0.7873662991967552  0.40437917327665934  1.0000
  H   H6        1.0  0.4029562901694632  0.28736668268073373  0.904377745247473  1.0000
  H   H7        1.0  0.9029548444587548  0.21263201090123124  0.5956216796003775  1.0000
  H   H8        1.0  0.5970453715364671  0.7126326205078755  0.09562186782851971  1.0000
  H   H9        1.0  0.7238239631412711  0.9607863636533199  0.29083379669412335  1.0000
  H   H10       1.0  0.7761752855086997  0.4607867058135399  0.7908339495603159  1.0000
  H   H11       1.0  0.27617526311694723  0.03921395117655631  0.709166235265542  1.0000
  H   H12       1.0  0.2238251584738862  0.5392146206584699  0.20916650128414466  1.0000
  H   H13       1.0  0.8197903769665446  0.8119246317173324  0.3823666634475631  1.0000
  H   H14       1.0  0.6802089087301154  0.31192492855471704  0.8823667574299493  1.0000
  H   H15       1.0  0.1802076315679813  0.18807669475410901  0.6176337873961516  1.0000
  H   H16       1.0  0.3197915352524632  0.6880763979172999  0.11763369341451126  1.0000
  H   H17       1.0  0.3051899534424151  0.9136021325128569  0.36914650786572184  1.0000
  H   H18       1.0  0.19480950742923403  0.4136024455216473  0.8691474401499022  1.0000
  H   H19       1.0  0.6948092728161726  0.0863981915929273  0.6308543534370515  1.0000
  H   H20       1.0  0.8051897188297304  0.5863978878600379  0.13085425049597185  1.0000
  C   C1        1.0  0.13484237151046594  0.012769934470505001  0.3000422688592579  1.0000
  C   C2        1.0  0.36515568817907257  0.5127710537576675  0.8000438650000632  1.0000
  C   C3        1.0  0.8651568547452655  0.9872263059642775  0.6999535995334369  1.0000
  C   C4        1.0  0.6348423203558228  0.48723028198967466  0.19995741518675206  1.0000
  C   C5        1.0  0.8531158177106661  0.9530835705491328  0.30626440430945934  1.0000
  C   C6        1.0  0.6468834424546515  0.45308487256538393  0.8062657260712812  1.0000
  C   C7        1.0  0.14688340854506524  0.0469126698856499  0.6937314640832284  1.0000
  C   C8        1.0  0.3531170015282683  0.5469174655484751  0.19373514365759806  1.0000
  C   C9        1.0  0.9039704179604088  0.8693281296115103  0.35534802305984675  1.0000
  C   C10       1.0  0.5960288608795281  0.36932838669250145  0.8553480653903947  1.0000
  C   C11       1.0  0.0960288082967438  0.13067015265876594  0.6446503417878802  1.0000
  C   C12       1.0  0.4039728008270842  0.6306729397797994  0.1446523854544424  1.0000
  C   C13       1.0  0.9702984637668095  0.024098001757472804  0.274438704933381  1.0000
  C   C14       1.0  0.5297006378668102  0.5240999742581354  0.7744405141271856  1.0000
  C   C15       1.0  0.029701980213317804  0.975898247953502  0.7255579928027773  1.0000
  C   C16       1.0  0.4702985883917492  0.47590135221359026  0.2255599367168984  1.0000
  C   C17       1.0  0.179334514828497  0.9273940917044073  0.3488629932221556  1.0000
  C   C18       1.0  0.3206649320180119  0.427395466517922  0.8488635922710018  1.0000
  C   C19       1.0  0.820664711429039  0.07260419984176993  0.6511362009686723  1.0000
  C   C20       1.0  0.6793355119649791  0.5726048668640544  0.1511380983752417  1.0000
  S   S1        1.0  0.9150113403624687  0.12419978289560164  0.20270426503034145  1.0000
  S   S2        1.0  0.5849877272196623  0.6242007698653185  0.7027056892632191  1.0000
  S   S3        1.0  0.08498910361763018  0.8757974691813148  0.7972920222471347  1.0000
  S   S4        1.0  0.4150114990381795  0.375799535688664  0.29729351335335263  1.0000
  N   N1        1.0  0.0638589634244084  0.8569647200433862  0.37391226580501064  1.0000
  N   N2        1.0  0.43614048456495885  0.35696614939347887  0.8739129357082406  1.0000
  N   N3        1.0  0.9361402628331277  0.1430335715027979  0.6260869283858241  1.0000
  N   N4        1.0  0.5638599594172861  0.6430341654366885  0.12608709625180842  1.0000
  N   N5        1.0  0.0279529074913825  0.32911069136062576  0.005667685650195213  1.0000
  N   N6        1.0  0.4720462015733773  0.8291108494877547  0.505668928492966  1.0000
  N   N7        1.0  0.9720463187665234  0.6708876094614594  0.9943323378837405  1.0000
  N   N8        1.0  0.5279542424089313  0.17088746061052257  0.4943319243844401  1.0000
  N   N9        1.0  0.9254181770519665  0.5818927173617257  0.42065531406106527  1.0000
  N   N10       1.0  0.5745822910386451  0.08189196194773983  0.9206557536905751  1.0000
  N   N11       1.0  0.0745834846546458  0.4181086091105756  0.579345136783772  1.0000
  N   N12       1.0  0.4254181529432586  0.9181073412405779  0.07934385938504825  1.0000
  O   O1        1.0  0.1598754659858983  0.2587988401237738  0.9782549043915484  1.0000
  O   O2        1.0  0.340122828181471  0.758800566896987  0.4782548313109488  1.0000
  O   O3        1.0  0.8401213248236347  0.741197446689945  0.021745110715897856  1.0000
  O   O4        1.0  0.6598788335244946  0.24119773392567373  0.5217451922237332  1.0000
  O   O5        1.0  0.9583760692785789  0.3513695236262393  0.9249528495493922  1.0000
  O   O6        1.0  0.5416281374848282  0.8513681116035983  0.42495465403344934  1.0000
  O   O7        1.0  0.041626810151384995  0.648629779562654  0.07504676352697706  1.0000
  O   O8        1.0  0.45837352422150696  0.14863019849496337  0.5750461988443334  1.0000
  O   O9        1.0  0.9720641455998803  0.37629883318279417  0.11540694947416341  1.0000
  O   O10       1.0  0.527934920014566  0.876298790841766  0.6154087491588174  1.0000
  O   O11       1.0  0.027935080658330898  0.6237014816470818  0.884593082485509  1.0000
  O   O12       1.0  0.4720643062443913  0.12370154253991934  0.38459294148705686  1.0000
  O   O13       1.0  0.8971218905579194  0.45579294544088356  0.38918268343343243  1.0000
  O   O14       1.0  0.6028786625679815  0.9557939315838342  0.8891832893004051  1.0000
  O   O15       1.0  0.1028785534250432  0.5442083903070339  0.6108185967541289  1.0000
  O   O16       1.0  0.39712178141426346  0.0442063832463262  0.11081674265963672  1.0000
  O   O17       1.0  0.8224097252797833  0.669926295174818  0.48362278233713607  1.0000
  O   O18       1.0  0.6775908259925741  0.1699255698576891  0.9836216264851887  1.0000
  O   O19       1.0  0.1775955896007204  0.3300770824097512  0.5163809943069638  1.0000
  O   O20       1.0  0.32240961798932943  0.830073733330629  0.0163779865904345  1.0000
  O   O21       1.0  0.057910349985760896  0.6114339913361635  0.38647819638905656  1.0000
  O   O22       1.0  0.44208903489199264  0.1114334002119435  0.8864780321734288  1.0000
  O   O23       1.0  0.9420913117197998  0.38856530257653776  0.6135205873438353  1.0000
  O   O24       1.0  0.5579101913658774  0.8885659029760834  0.11352158090182486  1.0000
