data_image0
_chemical_formula_structural       Al2H12C48Cl12O12
_chemical_formula_sum              "Al2 H12 C48 Cl12 O12"
_cell_length_a       3.993129250072032
_cell_length_b       29.019111384949845
_cell_length_c       29.018902694526847
_cell_angle_alpha    119.99349552725924
_cell_angle_beta     90.00059739639941
_cell_angle_gamma    89.99934894451998

_space_group_name_H-M_alt    "P 1"
_space_group_IT_number       1

loop_
  _space_group_symop_operation_xyz
  'x, y, z'

loop_
  _atom_site_type_symbol
  _atom_site_label
  _atom_site_symmetry_multiplicity
  _atom_site_fract_x
  _atom_site_fract_y
  _atom_site_fract_z
  _atom_site_occupancy
  Al  Al1       1.0  0.00022948583032440003  0.500013534560672  0.49999404587011026  1.0000
  Al  Al2       1.0  0.9999193451690759  0.16664828363888518  0.8333380944470787  1.0000
  H   H1        1.0  0.22350536800568221  0.17617250906793194  0.6961985163229584  1.0000
  H   H2        1.0  0.7764085755215933  0.3037653631696171  0.8237940979785774  1.0000
  H   H3        1.0  0.7763770134039094  0.36287212150742215  0.509524578701992  1.0000
  H   H4        1.0  0.22367864125816078  0.49049447267395846  0.637113193993265  1.0000
  H   H5        1.0  0.22360249845696967  0.019985453712898456  0.823861529485974  1.0000
  H   H6        1.0  0.7764976496821562  0.02002243632868046  0.6962722955395291  1.0000
  H   H7        1.0  0.7764407018525148  0.6466704468074267  0.6371260534841311  1.0000
  H   H8        1.0  0.22362909498805555  0.6466677573438914  0.5095004761775782  1.0000
  H   H9        1.0  0.22350192140824987  0.3037619823110374  0.9799545803000098  1.0000
  H   H10       1.0  0.7762824834283821  0.17618619775478067  0.9800337018753209  1.0000
  H   H11       1.0  0.776322793966202  0.49048580051084667  0.35328009373441926  1.0000
  H   H12       1.0  0.22359443746259441  0.36293082305193275  0.3533960852292992  1.0000
  C   C1        1.0  0.5002423780425785  0.45916439379301005  0.4182905396509824  1.0000
  C   C2        1.0  0.5002442501197065  0.4591680130449234  0.5408561002923519  1.0000
  C   C3        1.0  0.5002359187035809  0.5817152669100308  0.5408328479641611  1.0000
  C   C4        1.0  0.49997970979899264  0.20749269363282954  0.7924709493109602  1.0000
  C   C5        1.0  0.5000857097182989  0.08495250661272964  0.7925243483068767  1.0000
  C   C6        1.0  0.499996607442391  0.2075036699553649  0.9150394898886985  1.0000
  C   C7        1.0  0.49991463845621814  0.23709240700319598  0.762882525599444  1.0000
  C   C8        1.0  0.3457991972630694  0.21474243228012563  0.7129536523261064  1.0000
  C   C9        1.0  0.35338243177546497  0.24193390630771455  0.6848845125957794  1.0000
  C   C10       1.0  0.4996620419912857  0.29320274100853533  0.706789991332961  1.0000
  C   C11       1.0  0.6460542859751899  0.3151031617022894  0.7580512128194099  1.0000
  C   C12       1.0  0.6539326198954356  0.2870300026080841  0.7852350965827171  1.0000
  C   C13       1.0  0.4995395043254265  0.32120922814061714  0.6787941276228154  1.0000
  C   C14       1.0  0.49952496384928935  0.34545149343520604  0.6545301502987897  1.0000
  C   C15       1.0  0.4996778994514983  0.3734574758310385  0.6265361696659324  1.0000
  C   C16       1.0  0.6460485311837871  0.3515420700151708  0.5752713824640877  1.0000
  C   C17       1.0  0.6539422888418683  0.37961192307033537  0.5480846055245578  1.0000
  C   C18       1.0  0.5000213269825053  0.42955578866075667  0.5704336043602466  1.0000
  C   C19       1.0  0.34589981287057014  0.45191696413055366  0.6203622442851041  1.0000
  C   C20       1.0  0.3534951502467508  0.42473621928581196  0.6484413317882911  1.0000
  C   C21       1.0  0.5000824585353527  0.025772254501191683  0.7629455125376835  1.0000
  C   C22       1.0  0.34583214886250596  0.99818295601208  0.7852822484867232  1.0000
  C   C23       1.0  0.35344187259642024  0.9429327231991848  0.7580803536875749  1.0000
  C   C24       1.0  0.4996325476735636  0.9135826534349789  0.7068041724714433  1.0000
  C   C25       1.0  0.646076918965882  0.9429486696849452  0.6849052899655206  1.0000
  C   C26       1.0  0.6540615136461413  0.9981983856310918  0.7130111680166491  1.0000
  C   C27       1.0  0.4994488915203449  0.8575872831233297  0.6787982361948863  1.0000
  C   C28       1.0  0.49939774111201984  0.8090856255697432  0.6545459441587481  1.0000
  C   C29       1.0  0.49953714015693873  0.7530909008932909  0.6265490102684907  1.0000
  C   C30       1.0  0.6459633289535917  0.7237362755570088  0.6484627448074248  1.0000
  C   C31       1.0  0.653973709409506  0.6684864912359813  0.6203783015382952  1.0000
  C   C32       1.0  0.5000563565839329  0.6408987568394123  0.5704360114606359  1.0000
  C   C33       1.0  0.34585187576261234  0.6684743900183958  0.5480795036886262  1.0000
  C   C34       1.0  0.35333557745318  0.7237266356411496  0.5752738753975989  1.0000
  C   C35       1.0  0.49982451726832994  0.2370903142626728  0.9742220070302137  1.0000
  C   C36       1.0  0.3457027509112224  0.28701450541591106  0.0017885686507952674  1.0000
  C   C37       1.0  0.35341162853682556  0.3151068609938079  0.05703910393778947  1.0000
  C   C38       1.0  0.4995472309187435  0.2931982280189018  0.08641836462194874  1.0000
  C   C39       1.0  0.6459300577953401  0.24193579390987446  0.05707278060061329  1.0000
  C   C40       1.0  0.6538529877888379  0.21475030025784753  0.0018250389956478198  1.0000
  C   C41       1.0  0.4993876240638998  0.32119726836393175  0.14241758775569477  1.0000
  C   C42       1.0  0.49929554305852264  0.34545610167808866  0.19090822869353016  1.0000
  C   C43       1.0  0.4994189216826542  0.3734712487954753  0.2469120190970173  1.0000
  C   C44       1.0  0.6457789349297797  0.4247355272015838  0.27624341000385044  1.0000
  C   C45       1.0  0.6537983886322465  0.45193040039666244  0.33149417949837806  1.0000
  C   C46       1.0  0.4999286330974827  0.4295918425020915  0.35910977943310485  1.0000
  C   C47       1.0  0.34580778891426434  0.3796660606589413  0.3315534087475811  1.0000
  C   C48       1.0  0.35334259505065546  0.3515769604745245  0.2763037557667971  1.0000
  Cl  Cl1       1.0  0.8211280666069455  0.3776467988872053  0.7868619522110405  1.0000
  Cl  Cl2       1.0  0.17832337278026966  0.21312981715524146  0.6223447661636071  1.0000
  Cl  Cl3       1.0  0.1784227923014683  0.4535549707257687  0.7109842667109518  1.0000
  Cl  Cl4       1.0  0.8210610899995745  0.28899518016787334  0.5464708538480209  1.0000
  Cl  Cl5       1.0  0.8210167817787025  0.9092272067598091  0.6223556989369997  1.0000
  Cl  Cl6       1.0  0.17833121559584703  0.9091841734753742  0.7868806363624257  1.0000
  Cl  Cl7       1.0  0.17825972354001612  0.7574603171385093  0.5464560048730434  1.0000
  Cl  Cl8       1.0  0.8209745721542705  0.7574673794392838  0.7110075853588214  1.0000
  Cl  Cl9       1.0  0.8210534348941964  0.2131439994120328  0.09083097015742679  1.0000
  Cl  Cl10      1.0  0.17832161197167554  0.3776413390476847  0.09074080837057609  1.0000
  Cl  Cl11      1.0  0.178256118546031  0.2890385780196283  0.24261691536483454  1.0000
  Cl  Cl12      1.0  0.8208395647239399  0.45351605618769497  0.24247587857931313  1.0000
  O   O1        1.0  0.7352009900789229  0.5583104699659387  0.5510437391454559  1.0000
  O   O2        1.0  0.7352002014773192  0.4927681957476934  0.4416927038653  1.0000
  O   O3        1.0  0.7352021205961847  0.448962985601014  0.5072464450700735  1.0000
  O   O4        1.0  0.2654425298911961  0.5582954467389598  0.5072058962265941  1.0000
  O   O5        1.0  0.2654897827603051  0.49280500743431327  0.5510651520663998  1.0000
  O   O6        1.0  0.2654453900732251  0.448950451870779  0.4417181668305119  1.0000
  O   O7        1.0  0.7348883391454991  0.17388881945158347  0.8916346810329826  1.0000
  O   O8        1.0  0.7348889244077415  0.2176969172807403  0.8260870109332927  1.0000
  O   O9        1.0  0.7349176016980935  0.10836543307503614  0.7822957689750111  1.0000
  O   O10       1.0  0.2651368723085596  0.2177153733437365  0.8916195249733931  1.0000
  O   O11       1.0  0.26518481015116185  0.10836641369748878  0.8261330038583308  1.0000
  O   O12       1.0  0.2651350522778699  0.1738717950343513  0.7822739668655032  1.0000
