data_image0
_chemical_formula_structural       Zn4H40C64N32O4
_chemical_formula_sum              "Zn4 H40 C64 N32 O4"
_cell_length_a       7.379530347241045
_cell_length_b       12.747063842714557
_cell_length_c       18.46647293503852
_cell_angle_alpha    90.00022576659151
_cell_angle_beta     89.99992446544996
_cell_angle_gamma    93.63210855803769

_space_group_name_H-M_alt    "P 1"
_space_group_IT_number       1

loop_
  _space_group_symop_operation_xyz
  'x, y, z'

loop_
  _atom_site_type_symbol
  _atom_site_label
  _atom_site_symmetry_multiplicity
  _atom_site_fract_x
  _atom_site_fract_y
  _atom_site_fract_z
  _atom_site_occupancy
  Zn  Zn1       1.0  0.6328277911276248  0.5581674662907546  0.7195164480390799  1.0000
  Zn  Zn2       1.0  0.36718946000696223  0.9418159272788531  0.21943507800662587  1.0000
  Zn  Zn3       1.0  0.36716754704236376  0.441928632043215  0.28017853640211837  1.0000
  Zn  Zn4       1.0  0.6328486526452863  0.05805869496432341  0.7800963665001247  1.0000
  H   H1        1.0  0.5056881853332912  0.4628803609707575  0.599874662799067  1.0000
  H   H2        1.0  0.49424262553834813  0.0371143443636939  0.09988039298127659  1.0000
  H   H3        1.0  0.49420155928118004  0.5371494137552801  0.400133862774581  1.0000
  H   H4        1.0  0.5057259007421493  0.9628229378214782  0.9001389628845968  1.0000
  H   H5        1.0  0.5439607030543244  0.5469678520921164  0.539966738192838  1.0000
  H   H6        1.0  0.4560630043144229  0.9533972510048228  0.03971639838916018  1.0000
  H   H7        1.0  0.455749666781557  0.4515745998316163  0.45903238853090766  1.0000
  H   H8        1.0  0.5443911560343936  0.0487685096193005  0.9587704533335  1.0000
  H   H9        1.0  0.6407021523862257  0.752824818878537  0.7937025073850703  1.0000
  H   H10       1.0  0.3593357575242992  0.7471912715320316  0.29369534137600783  1.0000
  H   H11       1.0  0.35939735034251197  0.24714821606191612  0.2062459091232469  1.0000
  H   H12       1.0  0.6406184638076341  0.2528732717187907  0.7062357465928244  1.0000
  H   H13       1.0  0.7255078281589463  0.8318730347489379  0.9139827358089434  1.0000
  H   H14       1.0  0.2745488194385004  0.6681312129349167  0.41396998313491196  1.0000
  H   H15       1.0  0.27472684351970866  0.1680831152456435  0.08596838825106798  1.0000
  H   H16       1.0  0.7253163442683928  0.3319236346931546  0.585955148102542  1.0000
  H   H17       1.0  0.7881457466387689  0.7138265539056973  0.0166520259522898  1.0000
  H   H18       1.0  0.21185633702075532  0.7861745166509948  0.516643258869081  1.0000
  H   H19       1.0  0.21182715928508597  0.28620818377497415  0.9833213006813892  1.0000
  H   H20       1.0  0.7881766659578633  0.21379753409838292  0.48331273896206267  1.0000
  H   H21       1.0  0.8504037896881584  0.6096853143005846  0.09487254425229  1.0000
  H   H22       1.0  0.14959888127822304  0.8903106959321577  0.5948613853518978  1.0000
  H   H23       1.0  0.1495341449470047  0.39031159941406224  0.9051229847379147  1.0000
  H   H24       1.0  0.8504650381009784  0.1096858077505303  0.4051168149035362  1.0000
  H   H25       1.0  0.914025688647975  0.4700280042204313  0.1841644296269394  1.0000
  H   H26       1.0  0.0859855107091718  0.029960341229099196  0.6841626111996887  1.0000
  H   H27       1.0  0.08592470636408223  0.5299445859691474  0.8158105214937237  1.0000
  H   H28       1.0  0.9140711450334467  0.9700447848701829  0.31581125689395145  1.0000
  H   H29       1.0  0.8522759086650782  0.2826078204163167  0.1514497677630544  1.0000
  H   H30       1.0  0.14773282760517506  0.2173819058686846  0.6514543845560536  1.0000
  H   H31       1.0  0.14769666077018687  0.7173561918012653  0.8485159774674429  1.0000
  H   H32       1.0  0.8523006934292215  0.7826357244520139  0.3485211081263698  1.0000
  H   H33       1.0  0.6469367883799464  0.2673574375287657  0.9192796964520369  1.0000
  H   H34       1.0  0.3530732672549065  0.2326542263896769  0.4192838660513161  1.0000
  H   H35       1.0  0.35310021069659575  0.7326947795035113  0.08067575996530249  1.0000
  H   H36       1.0  0.6469155567252685  0.7673231933827933  0.5806829622370913  1.0000
  H   H37       1.0  0.5914583249899507  0.3933554094118747  0.8210781301155805  1.0000
  H   H38       1.0  0.4085327069226069  0.1066525036433035  0.32107759572237166  1.0000
  H   H39       1.0  0.4085753306723135  0.6066905110279421  0.1788767847721218  1.0000
  H   H40       1.0  0.59143299411393  0.8933240612871955  0.6788773190884569  1.0000
  C   C1        1.0  0.9667198786902633  0.40702821765156466  0.7220309837474588  1.0000
  C   C2        1.0  0.0333187105974702  0.0929777101025238  0.2220338552626231  1.0000
  C   C3        1.0  0.03315859443849692  0.592943372244264  0.2779775417498768  1.0000
  C   C4        1.0  0.9669051926666655  0.9070734930271911  0.7779822515607862  1.0000
  C   C5        1.0  0.27512116689695904  0.4056722314067046  0.7148332512474908  1.0000
  C   C6        1.0  0.7249041005239011  0.0943626919254825  0.21486771870427646  1.0000
  C   C7        1.0  0.7246848340464072  0.5941985568353587  0.285323651139194  1.0000
  C   C8        1.0  0.2753702346266849  0.9058261819757265  0.7853552496694931  1.0000
  C   C9        1.0  0.9883239711851245  0.6760936804499805  0.6602285301059823  1.0000
  C   C10       1.0  0.01164968245053195  0.8238719625783519  0.1602358323140649  1.0000
  C   C11       1.0  0.011816858419507503  0.3240342859339762  0.3397978657600333  1.0000
  C   C12       1.0  0.9881577328981382  0.17593203427239254  0.8398111410302178  1.0000
  C   C13       1.0  0.29692814312198124  0.6781299585738907  0.6635146666703091  1.0000
  C   C14       1.0  0.7030926168940044  0.8218460591986484  0.16353297781252954  1.0000
  C   C15       1.0  0.7031072279023862  0.32195997361309026  0.336551801793746  1.0000
  C   C16       1.0  0.29688331068498297  0.17801659173749573  0.8365735629799784  1.0000
  C   C17       1.0  0.663566429121019  0.7029318447699922  0.840322597714035  1.0000
  C   C18       1.0  0.33645939013242554  0.7970868285186511  0.3403101641884376  1.0000
  C   C19       1.0  0.33651545179468917  0.297041137592629  0.15962311118913416  1.0000
  C   C20       1.0  0.66350614967957  0.20298246343927673  0.659613342476959  1.0000
  C   C21       1.0  0.7122934345052486  0.7468071039538485  0.9075758774817614  1.0000
  C   C22       1.0  0.2877417003978168  0.753198615268012  0.4075617250782954  1.0000
  C   C23       1.0  0.2878059891739824  0.2531651449312804  0.09237524663514307  1.0000
  C   C24       1.0  0.7122128606144429  0.24684235417286973  0.5923655722048551  1.0000
  C   C25       1.0  0.7454066172975261  0.6803944296911766  0.9645855823494215  1.0000
  C   C26       1.0  0.25460293393756933  0.8196013172257182  0.4645770431418157  1.0000
  C   C27       1.0  0.2546067407089367  0.31961135307187055  0.03538991032208829  1.0000
  C   C28       1.0  0.7454094755462253  0.1803950327279082  0.535378954727733  1.0000
  C   C29       1.0  0.7243564224643892  0.570635643854807  0.9549328099971389  1.0000
  C   C30       1.0  0.2756471681282733  0.929367889407054  0.4549229342596135  1.0000
  C   C31       1.0  0.2756291019048761  0.42937634247360285  0.045036725948811786  1.0000
  C   C32       1.0  0.7243790337454713  0.07063085915574162  0.5450265653465179  1.0000
  C   C33       1.0  0.6686846922988465  0.5318836845682924  0.8854008147341189  1.0000
  C   C34       1.0  0.33130058625110353  0.9681241190506712  0.3853953479314995  1.0000
  C   C35       1.0  0.3313228249190063  0.4681448696950668  0.11455301709284528  1.0000
  C   C36       1.0  0.6686914903880352  0.0318721702025258  0.6145454873292805  1.0000
  C   C37       1.0  0.7590026775818046  0.4964756976073659  0.011865766742459998  1.0000
  C   C38       1.0  0.24100411462209345  0.003530528157448  0.511862171595652  1.0000
  C   C39       1.0  0.24094903771442944  0.5035369737070284  0.988110808998215  1.0000
  C   C40       1.0  0.7590653849587883  0.996467563800728  0.48810682278774914  1.0000
  C   C41       1.0  0.8245485761163565  0.5269477773130475  0.081028430224535  1.0000
  C   C42       1.0  0.1754570020196624  0.9730497356095571  0.5810212739308865  1.0000
  C   C43       1.0  0.17538545005439235  0.4730506963609288  0.9189546437644933  1.0000
  C   C44       1.0  0.8246204726121249  0.026946808493583798  0.41895042805798244  1.0000
  C   C45       1.0  0.8586302144043646  0.45005975405565823  0.13100104314272434  1.0000
  C   C46       1.0  0.14138200051115044  0.0499369403499017  0.6310024995959935  1.0000
  C   C47       1.0  0.14130670441056742  0.5499135817566484  0.8689733664605087  1.0000
  C   C48       1.0  0.858697371209857  0.9500784692826019  0.36897624220311787  1.0000
  C   C49       1.0  0.8251763283630285  0.3436398522747268  0.11213699057319809  1.0000
  C   C50       1.0  0.17483123943542012  0.1563504358549892  0.6121414271461916  1.0000
  C   C51       1.0  0.17477925161954033  0.6563303958803743  0.8878303792359646  1.0000
  C   C52       1.0  0.8252274041963688  0.8436609827944113  0.38783352399935467  1.0000
  C   C53       1.0  0.7314231853535563  0.3865682062728555  0.9977858951895867  1.0000
  C   C54       1.0  0.268579165574522  0.11343680251425778  0.4977811194659196  1.0000
  C   C55       1.0  0.26855053451642164  0.613447673993477  0.0021901390278386995  1.0000
  C   C56       1.0  0.7314574061896694  0.8865572620827037  0.5021900410082125  1.0000
  C   C57       1.0  0.6680408974524925  0.3517113780330305  0.9281423537068818  1.0000
  C   C58       1.0  0.33195764553171614  0.148307373681412  0.42814251385483  1.0000
  C   C59       1.0  0.33195551491729697  0.6483415037901704  0.07182880685772369  1.0000
  C   C60       1.0  0.6680586051137213  0.8516732712305811  0.5718281050843571  1.0000
  C   C61       1.0  0.6384292502237515  0.4213304648024661  0.8739095767392867  1.0000
  C   C62       1.0  0.3615657031243984  0.07867775625046391  0.3739019506616756  1.0000
  C   C63       1.0  0.3615937428085303  0.578690277399204  0.12605887616505373  1.0000
  C   C64       1.0  0.6384124903129376  0.9213287073970803  0.6260600039716877  1.0000
  N   N1        1.0  0.8236729915535294  0.4424226066252502  0.7189243576308114  1.0000
  N   N2        1.0  0.17634154651121747  0.05755965712997829  0.21892326811476437  1.0000
  N   N3        1.0  0.17626442184528912  0.5576230267683614  0.2810549257680818  1.0000
  N   N4        1.0  0.8237713885666553  0.9423717691303182  0.7810549320393816  1.0000
  N   N5        1.0  0.11740172567387931  0.36078444736382664  0.7279201912982457  1.0000
  N   N6        1.0  0.8826521299312944  0.13925220623693244  0.22792870639297286  1.0000
  N   N7        1.0  0.8823413797229167  0.6390672930913655  0.27212840669345434  1.0000
  N   N8        1.0  0.11773850815739452  0.8609747338800844  0.7721355960780867  1.0000
  N   N9        1.0  0.42553685411939324  0.4389606412809642  0.7036150894590064  1.0000
  N   N10       1.0  0.57448765363052  0.061066358662344604  0.20367391250881178  1.0000
  N   N11       1.0  0.5743180918741545  0.5609252240433307  0.2966674460225035  1.0000
  N   N12       1.0  0.42574563206735416  0.9391051050697001  0.7967228843902772  1.0000
  N   N13       1.0  0.8392403674555737  0.661199985992397  0.682187262488206  1.0000
  N   N14       1.0  0.1607329331223752  0.8387359177919649  0.18222214575138904  1.0000
  N   N15       1.0  0.160977902133844  0.33909166372511385  0.3179376905713056  1.0000
  N   N16       1.0  0.8389785185118657  0.16084147500644969  0.8179791610582113  1.0000
  N   N17       1.0  0.14651416207691173  0.6965645713822184  0.6314447191242962  1.0000
  N   N18       1.0  0.853486329735006  0.803437924080555  0.13142986949623747  1.0000
  N   N19       1.0  0.8536041481464665  0.3034203070902066  0.36851019565840193  1.0000
  N   N20       1.0  0.1463756721448704  0.19658548102233905  0.8684920125676641  1.0000
  N   N21       1.0  0.4412379695485953  0.6647551289537857  0.6880060233222662  1.0000
  N   N22       1.0  0.5588141608211998  0.8351967592312805  0.1880601859092224  1.0000
  N   N23       1.0  0.5586763377093504  0.33545153071622746  0.3122066562521866  1.0000
  N   N24       1.0  0.4413616555018934  0.164497535831714  0.8122721692457303  1.0000
  N   N25       1.0  0.6441339964435359  0.5992751127271845  0.8289672883154181  1.0000
  N   N26       1.0  0.35586753361465645  0.9007442102378677  0.3289545855174225  1.0000
  N   N27       1.0  0.3559041797782073  0.4007079549752817  0.17096759017425  1.0000
  N   N28       1.0  0.644100570915363  0.09931015862618862  0.6709580906884652  1.0000
  N   N29       1.0  0.7630239665754814  0.3115135284078292  0.04791354545319139  1.0000
  N   N30       1.0  0.23697739527224831  0.1884803101356383  0.5479202034748099  1.0000
  N   N31       1.0  0.23692042954225198  0.6884802611850632  0.9520500337374287  1.0000
  N   N32       1.0  0.7630827737184945  0.8115193256640296  0.4520569137419983  1.0000
  O   O1        1.0  0.6010478213701377  0.49267491654280365  0.567591307544319  1.0000
  O   O2        1.0  0.39856338865570257  0.006983892736826602  0.0678834706162235  1.0000
  O   O3        1.0  0.4003208867322243  0.5084382139769089  0.4335175916768534  1.0000
  O   O4        1.0  0.5991739907741406  0.9911684114687065  0.933842760508348  1.0000
