data_image0
_chemical_formula_structural       Zn4H48C60S2N4O26
_chemical_formula_sum              "Zn4 H48 C60 S2 N4 O26"
_cell_length_a       8.121672849711219
_cell_length_b       10.282592389657792
_cell_length_c       17.494014208354468
_cell_angle_alpha    83.40429810807011
_cell_angle_beta     77.47680002746871
_cell_angle_gamma    84.69631102806682

_space_group_name_H-M_alt    "P 1"
_space_group_IT_number       1

loop_
  _space_group_symop_operation_xyz
  'x, y, z'

loop_
  _atom_site_type_symbol
  _atom_site_label
  _atom_site_symmetry_multiplicity
  _atom_site_fract_x
  _atom_site_fract_y
  _atom_site_fract_z
  _atom_site_occupancy
  Zn  Zn1       1.0  0.4054795650271857  0.4374858097374456  0.6197390578879265  1.0000
  Zn  Zn2       1.0  0.5945204189426576  0.5625182782409367  0.38026076550556104  1.0000
  Zn  Zn3       1.0  0.01565045156128522  0.5845191345701366  0.0757243015385711  1.0000
  Zn  Zn4       1.0  0.9843488498623786  0.4154790588948742  0.9242759681378488  1.0000
  H   H1        1.0  0.407771461583984  0.9145551930525853  0.6435326374605665  1.0000
  H   H2        1.0  0.5922273553354673  0.08544790170108027  0.3564679374541768  1.0000
  H   H3        1.0  0.23643333047671428  0.7788110119592486  0.4529725252175184  1.0000
  H   H4        1.0  0.763566755314571  0.22119210552917679  0.54702620706923  1.0000
  H   H5        1.0  0.22622514163641946  0.19428272977943806  0.4742527142000554  1.0000
  H   H6        1.0  0.7737774654965577  0.8057204006192717  0.5257457663609486  1.0000
  H   H7        1.0  0.9766260056981012  0.8390812896106465  0.2658367985383308  1.0000
  H   H8        1.0  0.0233718341455074  0.16091884380568183  0.7341652069594035  1.0000
  H   H9        1.0  0.8796863475647428  0.07420450301017209  0.05955234890475232  1.0000
  H   H10       1.0  0.120311585899323  0.925794643636571  0.9404502822513693  1.0000
  H   H11       1.0  0.06399572055389768  0.2518904348398364  0.23239000078225303  1.0000
  H   H12       1.0  0.9360085299327139  0.7481087712153138  0.7676091397843053  1.0000
  H   H13       1.0  0.366008902333931  0.6450596372948922  0.2214145481397054  1.0000
  H   H14       1.0  0.6339943847451437  0.3549366345556208  0.7785831617346162  1.0000
  H   H15       1.0  0.45135724697940555  0.8591131237224587  0.2438440913153812  1.0000
  H   H16       1.0  0.5486422580871276  0.1408831287626313  0.7561539961475533  1.0000
  H   H17       1.0  0.3196363444437793  0.015778796452444493  0.02091975118712951  1.0000
  H   H18       1.0  0.6803591749673359  0.9842193776471359  0.9790808960779033  1.0000
  H   H19       1.0  0.24082164347325366  0.7919552548025521  0.009484104930791708  1.0000
  H   H20       1.0  0.759175045721925  0.20804391794828792  0.9905152185579382  1.0000
  H   H21       1.0  0.5632117557671208  0.027169017676811794  0.2437125071862454  1.0000
  H   H22       1.0  0.43678502431485094  0.9728291628779144  0.7562880142159187  1.0000
  H   H23       1.0  0.6408960373260941  0.2519636742262604  0.25565427968860627  1.0000
  H   H24       1.0  0.35910084184364877  0.7480335304119661  0.7443457228618584  1.0000
  H   H25       1.0  0.3312679797681427  0.19979316245575515  0.05089064247580669  1.0000
  H   H26       1.0  0.6687351091353975  0.8002050612277569  0.949108105101921  1.0000
  H   H27       1.0  0.41799321194900335  0.41606616839388255  0.07206606648110643  1.0000
  H   H28       1.0  0.5820111376253791  0.5839320617447753  0.9279325552337525  1.0000
  H   H29       1.0  0.973797357042706  0.34581129981679476  0.655168534136692  1.0000
  H   H30       1.0  0.026200287359024844  0.6541907908590756  0.3448339368094012  1.0000
  H   H31       1.0  0.0775339312492989  0.46226115125540446  0.5789267801974207  1.0000
  H   H32       1.0  0.9224676878732011  0.5377389960998044  0.4210754199667549  1.0000
  H   H33       1.0  0.9756329750766355  0.33101780667667663  0.5533544639552659  1.0000
  H   H34       1.0  0.02437135809578451  0.6689803909027389  0.44664759128986015  1.0000
  H   H35       1.0  0.699281984915942  0.6660285881051846  0.6905698312074408  1.0000
  H   H36       1.0  0.30071927339305654  0.3339755334610429  0.309427005047958  1.0000
  H   H37       1.0  0.9249278295459225  0.6434686611129762  0.6579553058329495  1.0000
  H   H38       1.0  0.07507487667483304  0.356533493369234  0.3420426558763552  1.0000
  H   H39       1.0  0.817066952668732  0.5285987617201896  0.7339690261574248  1.0000
  H   H40       1.0  0.18293303676843922  0.4714053371112782  0.266029652725976  1.0000
  H   H41       1.0  0.3144894338568492  0.5057027700435908  0.7613463049882085  1.0000
  H   H42       1.0  0.6855097657453797  0.4942963939113764  0.23865505579496474  1.0000
  H   H43       1.0  0.20390102997116344  0.38502396232280484  0.7622186950369427  1.0000
  H   H44       1.0  0.796100701907413  0.614975236248604  0.23778012500031312  1.0000
  H   H45       1.0  0.740477137699436  0.6922996783130202  0.06258957180519081  1.0000
  H   H46       1.0  0.25952090305338527  0.3076985086968448  0.9374108237340978  1.0000
  H   H47       1.0  0.6873546465606637  0.5440797725844461  0.09179047190763609  1.0000
  H   H48       1.0  0.3126432978380436  0.4559193957684612  0.9082098702283119  1.0000
  C   C1        1.0  0.35066301683168893  0.9351830981944924  0.5923793583719857  1.0000
  C   C2        1.0  0.6493395848339746  0.06482002135113869  0.4076202666991051  1.0000
  C   C3        1.0  0.3212622354960288  0.8313522048406554  0.5528595371364133  1.0000
  C   C4        1.0  0.6787354198403505  0.16864990754137207  0.4471406447894993  1.0000
  C   C5        1.0  0.25333275204687317  0.8586859065332956  0.48562829743685404  1.0000
  C   C6        1.0  0.7466686880357117  0.14131623064069737  0.514370934645406  1.0000
  C   C7        1.0  0.21679362695907392  0.9895476065950034  0.456895750483902  1.0000
  C   C8        1.0  0.7832089774402392  0.010455518377170802  0.543103302332149  1.0000
  C   C9        1.0  0.2487797922420398  0.09262405715399068  0.4969854858829167  1.0000
  C   C10       1.0  0.7512213587782028  0.9073810240491157  0.503013585989315  1.0000
  C   C11       1.0  0.3141849891976563  0.06552303967962558  0.565162950168947  1.0000
  C   C12       1.0  0.6858150911263012  0.9344800669557283  0.43483692662788803  1.0000
  C   C13       1.0  0.150670056678436  0.014436526377551195  0.3876772159282496  1.0000
  C   C14       1.0  0.8493353362556276  0.9855636240634666  0.6123263234124536  1.0000
  C   C15       1.0  0.09176230642998463  0.029735916519179294  0.32851165412390065  1.0000
  C   C16       1.0  0.9082344019008205  0.9702632942174388  0.6714836635795153  1.0000
  C   C17       1.0  0.028069552339133  0.0436447645841156  0.25864115280150923  1.0000
  C   C18       1.0  0.9719309106676097  0.9563544112525335  0.7413595098637487  1.0000
  C   C19       1.0  0.9740414957992056  0.9341113584486535  0.23162671976444224  1.0000
  C   C20       1.0  0.025956346778066602  0.06588878039421078  0.7683747134782524  1.0000
  C   C21       1.0  0.9186941456115109  0.9459706406116336  0.1608504007665701  1.0000
  C   C22       1.0  0.08130398602809662  0.054026554202110284  0.8391511926861526  1.0000
  C   C23       1.0  0.9188314557628774  0.06699126994974591  0.11551861692370123  1.0000
  C   C24       1.0  0.08116667314306618  0.9330059194374628  0.8844835487840684  1.0000
  C   C25       1.0  0.9705092092841953  0.17676449669124136  0.1417506698998068  1.0000
  C   C26       1.0  0.029491160102097128  0.8232356659149855  0.8582493671070639  1.0000
  C   C27       1.0  0.023520946894720406  0.16543626838743816  0.21318693750975373  1.0000
  C   C28       1.0  0.9764805840746502  0.834564876590434  0.7868134924859405  1.0000
  C   C29       1.0  0.35188526610171794  0.17451349600721494  0.6082199707762898  1.0000
  C   C30       1.0  0.648116074893089  0.8254896170832777  0.39177978015767684  1.0000
  C   C31       1.0  0.3714096392165018  0.6935127663970346  0.5815975850524071  1.0000
  C   C32       1.0  0.6285904438411194  0.30649034566485506  0.4184017194893812  1.0000
  C   C33       1.0  0.864827465063101  0.8293235891281439  0.13098155601547753  1.0000
  C   C34       1.0  0.13517066931016328  0.17067361111214296  0.8690194651822055  1.0000
  C   C35       1.0  0.9697722041454498  0.3067682137316226  0.0940152491784545  1.0000
  C   C36       1.0  0.030226805482222115  0.6932329183359652  0.9059854325429839  1.0000
  C   C37       1.0  0.35839412713598046  0.7313407817757916  0.17992360449868983  1.0000
  C   C38       1.0  0.6416051797550111  0.2686574225422902  0.8200755206676505  1.0000
  C   C39       1.0  0.4052661295873321  0.8525112630626025  0.19043500404398372  1.0000
  C   C40       1.0  0.5947344407081658  0.14748695313716806  0.8095634230044412  1.0000
  C   C41       1.0  0.3927397364990244  0.9611450352697091  0.1345428808339264  1.0000
  C   C42       1.0  0.6072569526961544  0.0388541374811382  0.8654564426547964  1.0000
  C   C43       1.0  0.3331514713361727  0.9388129479607126  0.06791583663120093  1.0000
  C   C44       1.0  0.6668427874041003  0.06118521968372189  0.9320849364966932  1.0000
  C   C45       1.0  0.28864487332498356  0.8160383686159206  0.05914984276465423  1.0000
  C   C46       1.0  0.7113531701615017  0.18395982382048703  0.9408499805195946  1.0000
  C   C47       1.0  0.4409337829560371  0.09091936280857026  0.14473420218494945  1.0000
  C   C48       1.0  0.559064260530441  0.9090788296278302  0.8552656210992994  1.0000
  C   C49       1.0  0.5279794204742316  0.10899374155209778  0.2034757515917036  1.0000
  C   C50       1.0  0.4720160989368908  0.8910044325474827  0.7965248956733293  1.0000
  C   C51       1.0  0.5756463430648042  0.23151485523188597  0.21086886014967376  1.0000
  C   C52       1.0  0.4243529610925236  0.7684833436596603  0.7891308372717064  1.0000
  C   C53       1.0  0.402472230068561  0.20383605766754442  0.09639384437748082  1.0000
  C   C54       1.0  0.5975295018100155  0.7961631409038719  0.9036049756597748  1.0000
  C   C55       1.0  0.4502918894049445  0.32530930993745233  0.1057099757896509  1.0000
  C   C56       1.0  0.5497086754232257  0.6746888954092398  0.8942895957688605  1.0000
  C   C57       1.0  0.9711386428261622  0.39935391407070836  0.5974531553740549  1.0000
  C   C58       1.0  0.02886307811776591  0.6006452627945434  0.40254795368338153  1.0000
  C   C59       1.0  0.8074532496180494  0.5938089820046171  0.680580667643696  1.0000
  C   C60       1.0  0.1925467398191145  0.4061951168268507  0.3194180112397049  1.0000
  S   S1        1.0  0.7787685058799524  0.5017645861191437  0.6035449435264298  1.0000
  S   S2        1.0  0.22123302782307516  0.4982365642852713  0.39645491421422463  1.0000
  N   N1        1.0  0.29872844896593165  0.7139919806558409  0.11507085784161572  1.0000
  N   N2        1.0  0.7012721185959095  0.28600623011738685  0.884928141461849  1.0000
  N   N3        1.0  0.5381830586089863  0.3379996316879355  0.1622315181936855  1.0000
  N   N4        1.0  0.46181498487749195  0.6619985607484721  0.837768305090563  1.0000
  O   O1        1.0  0.3427002679811153  0.29137400018779397  0.5714287650131313  1.0000
  O   O2        1.0  0.6573022345967702  0.708630095274337  0.428571378909659  1.0000
  O   O3        1.0  0.38821157073576984  0.1493733111520186  0.6745240902680649  1.0000
  O   O4        1.0  0.6117886059423013  0.850628814140293  0.32547583993211765  1.0000
  O   O5        1.0  0.46249252159749693  0.6750375307935241  0.6322066995357147  1.0000
  O   O6        1.0  0.5375077514346885  0.3249636131557451  0.3677932840678082  1.0000
  O   O7        1.0  0.318625140267777  0.5965251367680577  0.5542508225110582  1.0000
  O   O8        1.0  0.6813749455235012  0.40347798072036767  0.4457479097756902  1.0000
  O   O9        1.0  0.919467756087869  0.7149917542709757  0.15952079399612273  1.0000
  O   O10       1.0  0.08053270418520951  0.28500741613913755  0.8404804409241821  1.0000
  O   O11       1.0  0.7764423408573221  0.8464640053694905  0.07931678401404703  1.0000
  O   O12       1.0  0.22355443102366476  0.15353415890560737  0.9206854541532506  1.0000
  O   O13       1.0  0.9148706924943257  0.31416436086999505  0.03053502162222091  1.0000
  O   O14       1.0  0.0851272464370609  0.6858347966298266  0.9694664650238212  1.0000
  O   O15       1.0  0.022741977151596912  0.40101845591351526  0.12105314360930211  1.0000
  O   O16       1.0  0.9772611035509514  0.5989797514903825  0.8789473207335591  1.0000
  O   O17       1.0  0.2509357242283556  0.5975197185594964  0.10705219337019405  1.0000
  O   O18       1.0  0.7490648433334856  0.4024784922137383  0.8929468059332706  1.0000
  O   O19       1.0  0.5849837103645613  0.4545305510702419  0.17056121594858104  1.0000
  O   O20       1.0  0.41501423403414617  0.5454686172826654  0.829439126187367  1.0000
  O   O21       1.0  0.25649727729751964  0.4601588804295104  0.7279401613704124  1.0000
  O   O22       1.0  0.7435030920887726  0.5398412821767165  0.27205987563645107  1.0000
  O   O23       1.0  0.7633382990913873  0.5986878180673542  0.0500296538770328  1.0000
  O   O24       1.0  0.23666090597816952  0.4013113567406917  0.9499705623960466  1.0000
  O   O25       1.0  0.6416093490934999  0.4054255815490179  0.6408952146750124  1.0000
  O   O26       1.0  0.35839082758457164  0.5945765437432938  0.35910471552516304  1.0000
