data_image0
_chemical_formula_structural       Cu4H20C20N12O24
_chemical_formula_sum              "Cu4 H20 C20 N12 O24"
_cell_length_a       6.341845327158669
_cell_length_b       10.942717314430014
_cell_length_c       13.309262161491962
_cell_angle_alpha    101.41111989347245
_cell_angle_beta     90.00348601045631
_cell_angle_gamma    106.86224209107228

_space_group_name_H-M_alt    "P 1"
_space_group_IT_number       1

loop_
  _space_group_symop_operation_xyz
  'x, y, z'

loop_
  _atom_site_type_symbol
  _atom_site_label
  _atom_site_symmetry_multiplicity
  _atom_site_fract_x
  _atom_site_fract_y
  _atom_site_fract_z
  _atom_site_occupancy
  Cu  Cu1       1.0  0.5648568924406164  0.2745894487011783  0.15196870902830276  1.0000
  Cu  Cu2       1.0  0.28989395240733984  0.7252743646946274  0.348016446841484  1.0000
  Cu  Cu3       1.0  0.4351845408073203  0.7253715934015974  0.8480134953471461  1.0000
  Cu  Cu4       1.0  0.7101458337051271  0.27475587728900314  0.6519974866530159  1.0000
  H   H1        1.0  0.9946943597716569  0.342368071168096  0.8462272261116791  1.0000
  H   H2        1.0  0.6514451998518568  0.6575810946449397  0.6538605937916697  1.0000
  H   H3        1.0  0.005296144399892577  0.65763300646627  0.15375558663770048  1.0000
  H   H4        1.0  0.3485757109155827  0.34242087374263264  0.3461419020657884  1.0000
  H   H5        1.0  0.3199663921037512  0.17713334950629192  0.7669742780082274  1.0000
  H   H6        1.0  0.1425496809849561  0.823220242320211  0.7330072534913084  1.0000
  H   H7        1.0  0.6800377863860022  0.8228792982169894  0.2330420052448828  1.0000
  H   H8        1.0  0.8574615883141379  0.17675930225010464  0.26698627486020843  1.0000
  H   H9        1.0  0.2487090516709003  0.17349014294430995  0.9533800914058969  1.0000
  H   H10       1.0  0.07482101601608095  0.8265773401644766  0.5465085703515198  1.0000
  H   H11       1.0  0.7512756875009288  0.8265088634276908  0.04662867640709576  1.0000
  H   H12       1.0  0.9251766106578143  0.17342851605463494  0.45349757348181885  1.0000
  H   H13       1.0  0.5196138832121235  0.5288664565226571  0.23817322468766378  1.0000
  H   H14       1.0  0.9902695840787457  0.47113908679921945  0.26194914790019647  1.0000
  H   H15       1.0  0.4803989550548735  0.4711414413624981  0.7618137215719043  1.0000
  H   H16       1.0  0.009741121247458264  0.5288550900158883  0.738048302648252  1.0000
  H   H17       1.0  0.3731361458351968  0.45713393082498044  0.13209229675933187  1.0000
  H   H18       1.0  0.9155874580872021  0.5429057676275023  0.3680641269300792  1.0000
  H   H19       1.0  0.6268910232529946  0.5428837007444117  0.8679022700847339  1.0000
  H   H20       1.0  0.08442516385068906  0.45707963271539154  0.6319303697092449  1.0000
  C   C1        1.0  0.9634357683505638  0.359342038917305  0.0584326487020377  1.0000
  C   C2        1.0  0.6037949377621173  0.6407950354299459  0.44174535055929437  1.0000
  C   C3        1.0  0.03655481494909203  0.640656043020009  0.9415646959214495  1.0000
  C   C4        1.0  0.3961867927351078  0.35920111070748123  0.5582479170429976  1.0000
  C   C5        1.0  0.7874822662658261  0.3033592871297302  0.9724351077585067  1.0000
  C   C6        1.0  0.48343286121290424  0.696616587079639  0.5276202206457085  1.0000
  C   C7        1.0  0.21251548244443086  0.696643661649702  0.02756604715722938  1.0000
  C   C8        1.0  0.5165577978019015  0.30336588662429154  0.47237304039142447  1.0000
  C   C9        1.0  0.8279466987903347  0.3040812965597937  0.8698049520011393  1.0000
  C   C10       1.0  0.5230955200956515  0.6959240826324589  0.6302669167899281  1.0000
  C   C11       1.0  0.17205089971584203  0.6959118962052674  0.1301938383669423  1.0000
  C   C12       1.0  0.4769291580819369  0.3040759614111722  0.3697292500375723  1.0000
  C   C13       1.0  0.4541483167568074  0.21321988563364871  0.8264453645439287  1.0000
  C   C14       1.0  0.24056951131179724  0.787060450997494  0.6735401383025843  1.0000
  C   C15       1.0  0.5458604306997614  0.786782982790804  0.17357380990565469  1.0000
  C   C16       1.0  0.7594619743065891  0.21294059343254912  0.326450934511726  1.0000
  C   C17       1.0  0.41432688414020896  0.2115137343162559  0.929230624533339  1.0000
  C   C18       1.0  0.20236461386187438  0.788605567590338  0.5707143649858535  1.0000
  C   C19       1.0  0.5856480555317133  0.7884940511272164  0.07078034614515614  1.0000
  C   C20       1.0  0.7976206449237395  0.21139447926604765  0.4292802990226362  1.0000
  N   N1        1.0  0.581054632691803  0.2576015074166805  0.0008405237832888947  1.0000
  N   N2        1.0  0.322941871927334  0.7424225390364684  0.4991515425638297  1.0000
  N   N3        1.0  0.4189428884489175  0.7424072901872523  0.9991631009708325  1.0000
  N   N4        1.0  0.677042025967893  0.2575716350747683  0.5008459071552522  1.0000
  N   N5        1.0  0.6601393830297793  0.26083273154650755  0.797942575009891  1.0000
  N   N6        1.0  0.3987996403423111  0.7393796579502168  0.7020939897633623  1.0000
  N   N7        1.0  0.3398526104703308  0.7391555605903407  0.20205991311154037  1.0000
  N   N8        1.0  0.6012509167222859  0.2606311410083038  0.2979001989837186  1.0000
  N   N9        1.0  0.22232576753209088  0.048579591019681304  0.13262361791394278  1.0000
  N   N10       1.0  0.17321020219392855  0.9511078094633592  0.36739118765203216  1.0000
  N   N11       1.0  0.7776569793128941  0.9514438000579164  0.8673921873945287  1.0000
  N   N12       1.0  0.8267453722248915  0.04887072300093821  0.6326089347996768  1.0000
  O   O1        1.0  0.893002163550868  0.3514759957514642  0.14887740915908404  1.0000
  O   O2        1.0  0.5413477258324945  0.6486107870492718  0.3512468004540778  1.0000
  O   O3        1.0  0.10699790606209793  0.6485347438051862  0.8511287908217323  1.0000
  O   O4        1.0  0.45861264213383623  0.3513804806310291  0.6487449088159349  1.0000
  O   O5        1.0  0.1577250857153558  0.4110084604344095  0.03942771882866229  1.0000
  O   O6        1.0  0.7465102030918446  0.5893384169763893  0.46088446508747427  1.0000
  O   O7        1.0  0.8422990085732067  0.5889935693725264  0.9605612627321063  1.0000
  O   O8        1.0  0.25348722406791074  0.41067334577395814  0.5391113849896667  1.0000
  O   O9        1.0  0.24413626661499419  0.17459541771054182  0.14517724655737393  1.0000
  O   O10       1.0  0.0690846245945381  0.8250890046045855  0.3547374644684281  1.0000
  O   O11       1.0  0.7558720715996046  0.8253908732809522  0.8548361813170542  1.0000
  O   O12       1.0  0.9309269848326591  0.17492273921014603  0.6452628908458775  1.0000
  O   O13       1.0  0.03238886965334599  0.9737545457934903  0.1312062823039568  1.0000
  O   O14       1.0  0.0580085455062189  0.025859855978005396  0.3690648455294294  1.0000
  O   O15       1.0  0.9676151143855378  0.026276624391883295  0.8688175718537464  1.0000
  O   O16       1.0  0.9419613249648149  0.9741157331384187  0.6309385472402409  1.0000
  O   O17       1.0  0.3920791051063476  0.012332378597328403  0.12304395956851977  1.0000
  O   O18       1.0  0.37925728676698595  0.9874395522348465  0.37682262868643307  1.0000
  O   O19       1.0  0.6078667177841054  0.9876676371266556  0.876956709617765  1.0000
  O   O20       1.0  0.6206890243812211  0.012561439477742905  0.6231782018892884  1.0000
  O   O21       1.0  0.5119427651359273  0.46750847921404665  0.17205250900867233  1.0000
  O   O22       1.0  0.043931048598658234  0.5324934117577558  0.3280872127753795  1.0000
  O   O23       1.0  0.4880879057232548  0.5325003930147576  0.8279353499766555  1.0000
  O   O24       1.0  0.9560873795097676  0.4674909860766265  0.671913129067107  1.0000
