data_image0
_chemical_formula_structural       Co3H28C32N6O10
_chemical_formula_sum              "Co3 H28 C32 N6 O10"
_cell_length_a       8.17068152480823
_cell_length_b       9.907916023171387
_cell_length_c       10.342858427683383
_cell_angle_alpha    89.71959910900077
_cell_angle_beta     87.50714270032286
_cell_angle_gamma    69.32135844832298

_space_group_name_H-M_alt    "P 1"
_space_group_IT_number       1

loop_
  _space_group_symop_operation_xyz
  'x, y, z'

loop_
  _atom_site_type_symbol
  _atom_site_label
  _atom_site_symmetry_multiplicity
  _atom_site_fract_x
  _atom_site_fract_y
  _atom_site_fract_z
  _atom_site_occupancy
  Co  Co1       1.0  0.5014041984656996  0.9987267670471667  0.9983884256404282  1.0000
  Co  Co2       1.0  0.8575922729055704  0.9207670380019265  0.8045935853469713  1.0000
  Co  Co3       1.0  0.13984139285810923  0.07990003623193331  0.19702636288839412  1.0000
  H   H1        1.0  0.7733008820110926  0.08639262303012168  0.9977999263147695  1.0000
  H   H2        1.0  0.2304852197882281  0.9168113601131296  0.003054036379730008  1.0000
  H   H3        1.0  0.23462714521809144  0.08954642662273221  0.48372050013542633  1.0000
  H   H4        1.0  0.7649191943013489  0.9103441425109227  0.5168027598697336  1.0000
  H   H5        1.0  0.5401023146418921  0.7271116787580568  0.5954592899743361  1.0000
  H   H6        1.0  0.4592249178132802  0.2728703580877436  0.40440898507480944  1.0000
  H   H7        1.0  0.461384645915288  0.8862938309026946  0.5076635126854755  1.0000
  H   H8        1.0  0.5377876577284013  0.11382259531129792  0.4925712335043215  1.0000
  H   H9        1.0  0.23342364183606873  0.7735304288389458  0.578516553461661  1.0000
  H   H10       1.0  0.7661157631546516  0.22614586835786812  0.4214035019814233  1.0000
  H   H11       1.0  0.2646023024320668  0.8065137694327902  0.7411602241564665  1.0000
  H   H12       1.0  0.7346982600838031  0.19295324158039764  0.2588187009408642  1.0000
  H   H13       1.0  0.014449531230724151  0.3812716581293429  0.4441807645085589  1.0000
  H   H14       1.0  0.9851640413249213  0.6184753792181611  0.5563299291617554  1.0000
  H   H15       1.0  0.7159539773818011  0.5503592737123669  0.5094628689457252  1.0000
  H   H16       1.0  0.2835781080765754  0.4493673547578113  0.4909433290247166  1.0000
  H   H17       1.0  0.5304560210342117  0.48236707853824606  0.6752848616462472  1.0000
  H   H18       1.0  0.46905386187188464  0.5173823052782395  0.3251479702621438  1.0000
  H   H19       1.0  0.6385869185977454  0.23962807395560767  0.7799060882398763  1.0000
  H   H20       1.0  0.36081054775371507  0.7600423733003369  0.220416985918213  1.0000
  H   H21       1.0  0.344923050181869  0.5534009468059506  0.05630506380792611  1.0000
  H   H22       1.0  0.6569254020846101  0.4447870156038364  0.9437565395354  1.0000
  H   H23       1.0  0.5030577689855988  0.2878874606155648  0.09077781980922592  1.0000
  H   H24       1.0  0.49875943501809417  0.7094394462156474  0.9065607493694686  1.0000
  H   H25       1.0  0.19769374205664286  0.1792002993596213  0.8317577989894006  1.0000
  H   H26       1.0  0.8012159047058842  0.8223040975312587  0.16533810925805884  1.0000
  H   H27       1.0  0.0387987270842557  0.43957047176909486  0.7773114989973209  1.0000
  H   H28       1.0  0.960154347626556  0.5628342732810696  0.22256472374702702  1.0000
  C   C1        1.0  0.5318911905108903  0.9085497048961741  0.7040041042209921  1.0000
  C   C2        1.0  0.4675551882877824  0.09101136233829982  0.2962448291507656  1.0000
  C   C3        1.0  0.45317719169222653  0.8407096344854353  0.6038874714993625  1.0000
  C   C4        1.0  0.5460729684900725  0.15923061840236846  0.3962891983203534  1.0000
  C   C5        1.0  0.2687843003695816  0.8462711881755283  0.6423063175055931  1.0000
  C   C6        1.0  0.7305137946987158  0.15341253486914044  0.35776945952915906  1.0000
  C   C7        1.0  0.13200486114376273  0.9926336789538653  0.6387890994820822  1.0000
  C   C8        1.0  0.8671164877587074  0.0069961712925704035  0.36144758863707693  1.0000
  C   C9        1.0  0.9935346078638432  0.2192779508069975  0.5797149082000104  1.0000
  C   C10       1.0  0.005900355246453133  0.7804408463968002  0.420717722610874  1.0000
  C   C11       1.0  0.9356588007367178  0.3533272491112456  0.5198887470080322  1.0000
  C   C12       1.0  0.06387740331067691  0.6464289621111732  0.4805837783033695  1.0000
  C   C13       1.0  0.767279935475976  0.44608441871694293  0.5565919462326647  1.0000
  C   C14       1.0  0.23225686577476506  0.5536564968044717  0.4438516841412863  1.0000
  C   C15       1.0  0.6615728425736049  0.40662866396117187  0.649743408537347  1.0000
  C   C16       1.0  0.3379204034579645  0.5931140383827086  0.3506677839645391  1.0000
  C   C17       1.0  0.7197329042871488  0.2719774442835714  0.7088122636466636  1.0000
  C   C18       1.0  0.2796602343292278  0.7277169126798809  0.2915368527921274  1.0000
  C   C19       1.0  0.8879344227402158  0.17754682093864466  0.6719937514796399  1.0000
  C   C20       1.0  0.11144021878634891  0.8220998727531352  0.3283505724304661  1.0000
  C   C21       1.0  0.0966215292904166  0.6749697431633593  0.8868453120257983  1.0000
  C   C22       1.0  0.9045887101536323  0.32569464841449763  0.11430172939750348  1.0000
  C   C23       1.0  0.1836076460861021  0.5167075731962569  0.9116028983195434  1.0000
  C   C24       1.0  0.8170747925916828  0.4835546658237393  0.08842481809437429  1.0000
  C   C25       1.0  0.3125503393328017  0.4726174417508703  0.002950080295661896  1.0000
  C   C26       1.0  0.6887110550836654  0.5262779078583434  0.9965183716757551  1.0000
  C   C27       1.0  0.39754640958224735  0.32635232204000175  0.023759123576510898  1.0000
  C   C28       1.0  0.603799255359554  0.6721339911135972  0.974064468756403  1.0000
  C   C29       1.0  0.22910449477950573  0.2657721082325892  0.8767487266314901  1.0000
  C   C30       1.0  0.7708209806416092  0.7349542947442059  0.1209337472645373  1.0000
  C   C31       1.0  0.1408625538297271  0.4100745792425897  0.8475227151126036  1.0000
  C   C32       1.0  0.8588724168234663  0.5911453063421136  0.1517213047813115  1.0000
  N   N1        1.0  0.9784975657808845  0.03514537829369151  0.7069543277905481  1.0000
  N   N2        1.0  0.020656624421469757  0.9644174490823546  0.2932557577442481  1.0000
  N   N3        1.0  0.14619362294719448  0.1009630989530379  0.5623956953685081  1.0000
  N   N4        1.0  0.8531723546050994  0.8987595809701078  0.4380120754887002  1.0000
  N   N5        1.0  0.35733745572635195  0.2236662770325424  0.9620694360398688  1.0000
  N   N6        1.0  0.6436130603201773  0.7757832952312712  0.03459469393328621  1.0000
  O   O1        1.0  0.7246142795490089  0.0271603290600311  0.9473881330240274  1.0000
  O   O2        1.0  0.2769478066518757  0.9764460475437814  0.05518135967536611  1.0000
  O   O3        1.0  0.4524223147502081  0.9422905277126861  0.8122878728165192  1.0000
  O   O4        1.0  0.5470592299493829  0.0570666509264512  0.18818886879287083  1.0000
  O   O5        1.0  0.6801321124253545  0.9214395208987654  0.6717057545688618  1.0000
  O   O6        1.0  0.319142701790092  0.07841210568489031  0.32901424757973535  1.0000
  O   O7        1.0  0.9714232023301009  0.7105193818887231  0.8066539458198037  1.0000
  O   O8        1.0  0.028426527847123892  0.2907433726991755  0.19562386632416207  1.0000
  O   O9        1.0  0.14753778383683866  0.7648833962699088  0.9421806146985148  1.0000
  O   O10       1.0  0.8556914026733508  0.2348833387287428  0.05848391523750961  1.0000
