data_image0
_chemical_formula_structural       Cu6Mo8H32C32N16Cl2O26
_chemical_formula_sum              "Cu6 Mo8 H32 C32 N16 Cl2 O26"
_cell_length_a       10.567464275738299
_cell_length_b       11.240206494166586
_cell_length_c       12.834
_cell_angle_alpha    96.14483702693343
_cell_angle_beta     102.20921271480955
_cell_angle_gamma    108.35092028394293

_space_group_name_H-M_alt    "P 1"
_space_group_IT_number       1

loop_
  _space_group_symop_operation_xyz
  'x, y, z'

loop_
  _atom_site_type_symbol
  _atom_site_label
  _atom_site_symmetry_multiplicity
  _atom_site_fract_x
  _atom_site_fract_y
  _atom_site_fract_z
  _atom_site_occupancy
  Cu  Cu1       1.0  0.3353268025685026  0.6802984128504193  0.5114474404480518  1.0000
  Cu  Cu2       1.0  0.6646758733126745  0.3197018382927652  0.4885518023681925  1.0000
  Cu  Cu3       1.0  0.374563864142516  0.5098158928019103  0.9220480020267843  1.0000
  Cu  Cu4       1.0  0.6254330025408024  0.4901843583412742  0.07795100839441457  1.0000
  Cu  Cu5       1.0  0.1123223248214558  0.1233750433892808  0.0092989689684444  1.0000
  Cu  Cu6       1.0  0.887677087910383  0.8766242535624755  0.9907019537108327  1.0000
  Mo  Mo1       1.0  0.22555870262787178  0.2874196338662003  0.4167703996940162  1.0000
  Mo  Mo2       1.0  0.7744436147028964  0.7125796630855561  0.5832310287729356  1.0000
  Mo  Mo3       1.0  0.1691277753401081  0.9877178990688549  0.50249025703895  1.0000
  Mo  Mo4       1.0  0.8308715299401257  0.012278535308617201  0.4975111577459472  1.0000
  Mo  Mo5       1.0  0.0973194940692252  0.2504008231859842  0.6308141336395039  1.0000
  Mo  Mo6       1.0  0.9026805283118405  0.7495975195743441  0.3691868057454784  1.0000
  Mo  Mo7       1.0  0.06162525986258056  0.9570215607973154  0.7170638327631309  1.0000
  Mo  Mo8       1.0  0.9383734357684332  0.0429758277715777  0.2829360069554596  1.0000
  H   H1        1.0  0.28410682697494855  0.9624709480484412  0.92586425411438  1.0000
  H   H2        1.0  0.7158933028577082  0.0375302572861713  0.07413541398468479  1.0000
  H   H3        1.0  0.2925072661427421  0.12067754421943991  0.2416721017237791  1.0000
  H   H4        1.0  0.7074921465890895  0.8793217527323095  0.7583296001358022  1.0000
  H   H5        1.0  0.5028936470249404  0.0758095548441204  0.3441392426642196  1.0000
  H   H6        1.0  0.4971104630578864  0.9241945130647835  0.6558637244339991  1.0000
  H   H7        1.0  0.6185404400017163  0.0626254918693618  0.2648660576011821  1.0000
  H   H8        1.0  0.38146101658099957  0.9373766676566788  0.735136268524869  1.0000
  H   H9        1.0  0.5726887373122409  0.8249061239182254  0.1609504500531003  1.0000
  H   H10       1.0  0.4273153727705932  0.1750979439906715  0.8390486211436112  1.0000
  H   H11       1.0  0.5177034493096002  0.6013734229905552  0.194024951986421  1.0000
  H   H12       1.0  0.4822983658235245  0.3986296907269137  0.8059744093086111  1.0000
  H   H13       1.0  0.4078748233051074  0.5404082242076811  0.3441862460017618  1.0000
  H   H14       1.0  0.5921268843764267  0.4595920269355034  0.6558128282185862  1.0000
  H   H15       1.0  0.3981411585782055  0.9048597321385756  0.4238750601697491  1.0000
  H   H16       1.0  0.6018598320025034  0.0951386106217527  0.576124489450514  1.0000
  H   H17       1.0  0.4866788109914779  0.6332806301855172  0.735045308501988  1.0000
  H   H18       1.0  0.5133241159885245  0.3667177125748111  0.2649553574903649  1.0000
  H   H19       1.0  0.07714403726491532  0.6207740431253654  0.6143785323846133  1.0000
  H   H20       1.0  0.9228559851161505  0.3792242996349628  0.3856185110988548  1.0000
  H   H21       1.0  0.9767057670077293  0.5210915729186212  0.7534287260564342  1.0000
  H   H22       1.0  0.02329472137534339  0.4789105866074195  0.2465695355722133  1.0000
  H   H23       1.0  0.0753663918147609  0.4432629490107018  0.8322926807406504  1.0000
  H   H24       1.0  0.9246316941670187  0.5567353937496264  0.16770870063285065  1.0000
  H   H25       1.0  0.21916303981166146  0.5540359861969293  0.026354565970443382  1.0000
  H   H26       1.0  0.7808282687726091  0.44596235656339905  0.9736432976909057  1.0000
  H   H27       1.0  0.2170589571884776  0.6949404803287109  0.19139980851921481  1.0000
  H   H28       1.0  0.7829346463454953  0.3050588166230384  0.808601660945321  1.0000
  H   H29       1.0  0.07247161568749759  0.8339251413053148  0.16904552842128598  1.0000
  H   H30       1.0  0.9275240316973594  0.166077018220733  0.8309526694082051  1.0000
  H   H31       1.0  0.9430178902688624  0.7086092725494098  0.8352457889810411  1.0000
  H   H32       1.0  0.0569780082148128  0.2913909785937747  0.164751494483653  1.0000
  C   C1        1.0  0.313727445713468  0.9929201507398631  0.013331352293555226  1.0000
  C   C2        1.0  0.6862711062703184  0.007082008786177601  0.9866689096842123  1.0000
  C   C3        1.0  0.3160427942025165  0.075260894772434  0.1729595907753421  1.0000
  C   C4        1.0  0.6839569770797311  0.9247393563707504  0.8270414837941332  1.0000
  C   C5        1.0  0.5142442782556244  0.0181124617056341  0.2745753460425888  1.0000
  C   C6        1.0  0.4857583976255526  0.9818877894375504  0.7254277926751626  1.0000
  C   C7        1.0  0.4884425030876614  0.8824953934252306  0.2899736839465632  1.0000
  C   C8        1.0  0.5115582363942295  0.11750485771795381  0.7100267800384971  1.0000
  C   C9        1.0  0.5230957816462336  0.7959015670503433  0.2248900392194386  1.0000
  C   C10       1.0  0.4769083284366005  0.2041025008585606  0.7751082527969686  1.0000
  C   C11       1.0  0.49285567074514347  0.6715942786349061  0.2433476523866958  1.0000
  C   C12       1.0  0.5071474711380475  0.3284097892739908  0.7566504710338152  1.0000
  C   C13       1.0  0.43090575031368417  0.6363521723955259  0.32606076807979895  1.0000
  C   C14       1.0  0.5690972841179089  0.3636490329390867  0.6739386266266294  1.0000
  C   C15       1.0  0.4267470663667794  0.8409556237543256  0.37104206922242616  1.0000
  C   C16       1.0  0.5732555020627998  0.1590417648145745  0.6289592240600399  1.0000
  C   C17       1.0  0.3796156410434364  0.6229725001778235  0.7285936749817523  1.0000
  C   C18       1.0  0.6203859591864997  0.3770248883910696  0.2714058913442159  1.0000
  C   C19       1.0  0.171848863808826  0.6170698719979129  0.6646732361632459  1.0000
  C   C20       1.0  0.828153453521935  0.3829294249538435  0.3353250755824959  1.0000
  C   C21       1.0  0.0723603814085578  0.5360656990142161  0.8152216292613089  1.0000
  C   C22       1.0  0.9276393898736899  0.4639345521289684  0.1847771077672533  1.0000
  C   C23       1.0  0.08274629350611212  0.6223541841318223  0.9174221093556696  1.0000
  C   C24       1.0  0.9172498560763812  0.377644158628506  0.08257581810483576  1.0000
  C   C25       1.0  0.1604014794671187  0.6187282567015515  0.01905787023061119  1.0000
  C   C26       1.0  0.8395915144176198  0.381271994441633  0.9809420241676179  1.0000
  C   C27       1.0  0.15924332242546063  0.6962839818607733  0.110880755175998  1.0000
  C   C28       1.0  0.8407499225580963  0.3037143608995549  0.8891197832180424  1.0000
  C   C29       1.0  0.0797672733459933  0.7740143240515067  0.0995824835836245  1.0000
  C   C30       1.0  0.920229234786909  0.2259849729002497  0.9004171541276733  1.0000
  C   C31       1.0  0.006190441469421219  0.7033545403497996  0.9124671867202849  1.0000
  C   C32       1.0  0.9938070348631242  0.2966447566019568  0.08752872368539501  1.0000
  N   N1        1.0  0.2493615247277887  0.0572982411211527  0.0680847737372261  1.0000
  N   N2        1.0  0.7506363101551727  0.9427020100220318  0.9319159636404635  1.0000
  N   N3        1.0  0.4152087317513207  0.9706283305751242  0.07878267195187759  1.0000
  N   N4        1.0  0.584792832282993  0.0293766915252007  0.9212176037079515  1.0000
  N   N5        1.0  0.41536469779235563  0.023909174636926902  0.1788558206280868  1.0000
  N   N6        1.0  0.5846371173407761  0.976093939080549  0.8211450990275538  1.0000
  N   N7        1.0  0.3983960752497282  0.72028952983203  0.3896837914448598  1.0000
  N   N8        1.0  0.601605883530631  0.2797088129282983  0.6103159267712925  1.0000
  N   N9        1.0  0.29430607551979193  0.6414351501379087  0.6408923824484987  1.0000
  N   N10       1.0  0.7056945565105084  0.3585622384309843  0.3591062361012689  1.0000
  N   N11       1.0  0.3148747358818511  0.5874555868068825  0.8045584649644155  1.0000
  N   N12       1.0  0.6851246768499806  0.4125437101448668  0.19544089935426  1.0000
  N   N13       1.0  0.18307832342939892  0.584672210408435  0.762572240519205  1.0000
  N   N14       1.0  0.8169231331533168  0.4153299491176057  0.23742774806594008  1.0000
  N   N15       1.0  0.0042076231528654735  0.777795784684706  0.00161512662219822  1.0000
  N   N16       1.0  0.995787809328803  0.2222006496927591  0.9983817178776206  1.0000
  Cl  Cl1       1.0  0.3634477827975999  0.3869828301443121  0.0422192407024866  1.0000
  Cl  Cl2       1.0  0.6365588733337474  0.6130202835731566  0.9577825219326143  1.0000
  O   O1        1.0  0.14360214722810843  0.3947785741193997  0.3848421540579849  1.0000
  O   O2        1.0  0.8564011383023029  0.6052207228323567  0.6151578846442547  1.0000
  O   O3        1.0  0.3855626878405971  0.3510422557788857  0.39334127377905753  1.0000
  O   O4        1.0  0.6144419244398733  0.6489579953642988  0.606663760491081  1.0000
  O   O5        1.0  0.249953344049608  0.3169241870428934  0.5697271550292342  1.0000
  O   O6        1.0  0.7500451004825806  0.683075109908863  0.43027437823445785  1.0000
  O   O7        1.0  0.28216772838342746  0.1155754826484809  0.4614160812684106  1.0000
  O   O8        1.0  0.7178309672475791  0.8844219059204192  0.5385853168107886  1.0000
  O   O9        1.0  0.1765066755174374  0.3057983149805281  0.7665818337274644  1.0000
  O   O10       1.0  0.8234969685633827  0.6942019361626564  0.23341991522557495  1.0000
  O   O11       1.0  0.185276037896088  0.0750605145723355  0.64641585529845  1.0000
  O   O12       1.0  0.8147247015858098  0.924939736570849  0.3535830503260087  1.0000
  O   O13       1.0  0.2591182659310931  0.8870087188844877  0.5314993266609633  1.0000
  O   O14       1.0  0.7408757323489182  0.1129838987272649  0.46850314372050417  1.0000
  O   O15       1.0  0.0012995243029933973  0.3445537540615575  0.5949636139080426  1.0000
  O   O16       1.0  0.9986982031283703  0.6554436345073356  0.40503917393586875  1.0000
  O   O17       1.0  0.054376370437530915  0.9028301669690535  0.3578600143497965  1.0000
  O   O18       1.0  0.9456207473446059  0.09716817579127482  0.6421404192475038  1.0000
  O   O19       1.0  0.021167292082893096  0.1161527684630386  0.4636105251970761  1.0000
  O   O20       1.0  0.9788293596972366  0.8838417575315775  0.5363871318944434  1.0000
  O   O21       1.0  0.11975534427694609  0.1557583921073231  0.2908265042638192  1.0000
  O   O22       1.0  0.8802424906060153  0.8442418590358615  0.7091757914744719  1.0000
  O   O23       1.0  0.15975059331093178  0.8629678658303561  0.7486401218549332  1.0000
  O   O24       1.0  0.8402521900218429  0.1370352478871126  0.2513625247572051  1.0000
  O   O25       1.0  0.09321408077174452  0.05825911189017321  0.8386211160129733  1.0000
  O   O26       1.0  0.9067890611114463  0.9417449560187237  0.1613762282272333  1.0000
