data_image0
_chemical_formula_structural       Al2H10C22Cl2O10F2
_chemical_formula_sum              "Al2 H10 C22 Cl2 O10 F2"
_cell_length_a       6.682622147449179
_cell_length_b       11.099169502348264
_cell_length_c       15.480396378828328
_cell_angle_alpha    81.7522209267114
_cell_angle_beta     75.51218247151571
_cell_angle_gamma    73.63222249191033

_space_group_name_H-M_alt    "P 1"
_space_group_IT_number       1

loop_
  _space_group_symop_operation_xyz
  'x, y, z'

loop_
  _atom_site_type_symbol
  _atom_site_label
  _atom_site_symmetry_multiplicity
  _atom_site_fract_x
  _atom_site_fract_y
  _atom_site_fract_z
  _atom_site_occupancy
  Al  Al1       1.0  0.499997584829586  0.4999985658003822  0.5000012085020274  1.0000
  Al  Al2       1.0  0.9999999480799032  0.4999964562209839  0.5000007885428417  1.0000
  H   H1        1.0  0.27092926438306353  0.5839571080101464  0.3949134970525492  1.0000
  H   H2        1.0  0.729066796653868  0.4160381919948009  0.6050876858109434  1.0000
  H   H3        1.0  0.6905689558660059  0.12299172607934847  0.5560173440778443  1.0000
  H   H4        1.0  0.30943677115116247  0.8770027308759722  0.443982914239676  1.0000
  H   H5        1.0  0.7191376310626583  0.4635975429078272  0.9464661597740331  1.0000
  H   H6        1.0  0.2808678800607894  0.5364072678152992  0.0535345652120114  1.0000
  H   H7        1.0  0.607669476922119  0.4538797347202816  0.23970012339371755  1.0000
  H   H8        1.0  0.6689997742690679  0.4573761936501626  0.07694844687290468  1.0000
  H   H9        1.0  0.3923319301695046  0.5461243161596839  0.7602952692861676  1.0000
  H   H10       1.0  0.33100469745904376  0.5426344359853699  0.9230480307314934  1.0000
  C   C1        1.0  0.8534013858253999  0.4914813385565893  0.33956143219697316  1.0000
  C   C2        1.0  0.6392551259981616  0.7267686643583743  0.5000536650303289  1.0000
  C   C3        1.0  0.1465966716488936  0.5085196849388822  0.6604384303766295  1.0000
  C   C4        1.0  0.3607435815792214  0.2732276355295724  0.49994651761971903  1.0000
  C   C5        1.0  0.5725602314448112  0.8671534211756935  0.5027323482104225  1.0000
  C   C6        1.0  0.4274490173772494  0.1328401527790959  0.4972669741460863  1.0000
  C   C7        1.0  0.6792254949225978  0.9374775875160137  0.5355551510704403  1.0000
  C   C8        1.0  0.3207883761301389  0.0625160612786999  0.4644430437534766  1.0000
  C   C9        1.0  0.6065411244335621  0.06827993207518551  0.5319434830619726  1.0000
  C   C10       1.0  0.3934712005045071  0.9317136746769847  0.46805552040380854  1.0000
  C   C11       1.0  0.09485187757258029  0.5094443569452878  0.7598338964745112  1.0000
  C   C12       1.0  0.9051481602257426  0.4905623387530013  0.2401659442021966  1.0000
  C   C13       1.0  0.9065969607418866  0.4875595604205785  0.8160844190383258  1.0000
  C   C14       1.0  0.8683377563896498  0.4837507149817029  0.9085751281226777  1.0000
  C   C15       1.0  0.09340303677311823  0.5124470070584409  0.1839186676208584  1.0000
  C   C16       1.0  0.13166577904357274  0.5162550207844915  0.09142572418250694  1.0000
  C   C17       1.0  0.7556361016821498  0.47087408888035037  0.19764554128261844  1.0000
  C   C18       1.0  0.7917174897978612  0.4734487695712417  0.10528655154357838  1.0000
  C   C19       1.0  0.24436502042863154  0.5291335133706878  0.8023554062154973  1.0000
  C   C20       1.0  0.2082874115058004  0.5265608929786723  0.8947106073835371  1.0000
  C   C21       1.0  0.019425236108396943  0.5028898542692701  0.9505623150070763  1.0000
  C   C22       1.0  0.9805816328288232  0.49711885759371915  0.049435365797378894  1.0000
  Cl  Cl1       1.0  0.8949777429870875  0.8685981538896855  0.584027133392489  1.0000
  Cl  Cl2       1.0  0.10503504717603822  0.1313880167502361  0.41596919999127385  1.0000
  O   O1        1.0  0.6569051716623234  0.5048842350249458  0.3780708498485695  1.0000
  O   O2        1.0  0.8376898909196059  0.6728930611039203  0.4876975395706751  1.0000
  O   O3        1.0  0.9950767706916966  0.5197980635020583  0.6216493957899161  1.0000
  O   O4        1.0  0.5109015808186682  0.3261459479333908  0.4928449629432947  1.0000
  O   O5        1.0  0.3430902392715184  0.49511578858752625  0.6219300129384777  1.0000
  O   O6        1.0  0.1623103823086254  0.3270967605122408  0.5122997814257744  1.0000
  O   O7        1.0  0.004917547873027705  0.4802010279138075  0.3783510093722101  1.0000
  O   O8        1.0  0.4890962112109636  0.6738521066188171  0.5071584014368042  1.0000
  O   O9        1.0  0.24937257621179054  0.5538164068979227  0.45765239952618236  1.0000
  O   O10       1.0  0.7506265609411572  0.4461789259044051  0.5423484644465831  1.0000
  F   F1        1.0  0.7533303295556666  0.46484172352021585  0.7816586260936875  1.0000
  F   F2        1.0  0.2466681460146702  0.5351648788478229  0.21834332161787268  1.0000
