data_image0
_chemical_formula_structural       Cd4H40C68S4N12Cl4O16
_chemical_formula_sum              "Cd4 H40 C68 S4 N12 Cl4 O16"
_cell_length_a       7.275923881583419
_cell_length_b       10.71632551210029
_cell_length_c       21.72394907362687
_cell_angle_alpha    90.00032928112425
_cell_angle_beta     89.28277760817788
_cell_angle_gamma    89.99962051614364

_space_group_name_H-M_alt    "P 1"
_space_group_IT_number       1

loop_
  _space_group_symop_operation_xyz
  'x, y, z'

loop_
  _atom_site_type_symbol
  _atom_site_label
  _atom_site_symmetry_multiplicity
  _atom_site_fract_x
  _atom_site_fract_y
  _atom_site_fract_z
  _atom_site_occupancy
  Cd  Cd1       1.0  0.0214378015203209  0.6533184101426598  0.6933733644100355  1.0000
  Cd  Cd2       1.0  0.4785684688774198  0.15330975252172152  0.3066252622429104  1.0000
  Cd  Cd3       1.0  0.9785653917169057  0.3466771092952357  0.30662531567707413  1.0000
  Cd  Cd4       1.0  0.5214361234723411  0.8466876332216132  0.693372960054546  1.0000
  H   H1        1.0  0.0400690847593737  0.7303572650464576  0.9162277109885365  1.0000
  H   H2        1.0  0.45990476858076335  0.2303778253194935  0.08377245941780129  1.0000
  H   H3        1.0  0.9599288101402124  0.26962985598114386  0.08376727605076438  1.0000
  H   H4        1.0  0.5400775619179896  0.7696447557081781  0.9162307858411293  1.0000
  H   H5        1.0  0.34127873250140783  0.053512103255499696  0.9872317773516881  1.0000
  H   H6        1.0  0.1586675235422277  0.5535271242314793  0.012775656832573597  1.0000
  H   H7        1.0  0.6586915277136427  0.9464852825646232  0.012765920643161597  1.0000
  H   H8        1.0  0.8412925452966676  0.4464805263863738  0.9872326113301423  1.0000
  H   H9        1.0  0.22362457734776345  0.5074878428141429  0.8088813588004979  1.0000
  H   H10       1.0  0.27636924025492254  0.007480646382632  0.19111866439465786  1.0000
  H   H11       1.0  0.7763647985672009  0.4925086098194599  0.19111867675834296  1.0000
  H   H12       1.0  0.723625583096151  0.992514873088048  0.8088823020960373  1.0000
  H   H13       1.0  0.28863900590918223  0.2906841119104869  0.8452122609137118  1.0000
  H   H14       1.0  0.2113479659112869  0.790678146629432  0.15478902918327006  1.0000
  H   H15       1.0  0.7113528701450562  0.7093114075884728  0.15479238326418707  1.0000
  H   H16       1.0  0.7886468574397868  0.20931737284124813  0.8452119373074325  1.0000
  H   H17       1.0  0.19593680706779537  0.1087017790064593  0.7774895825482557  1.0000
  H   H18       1.0  0.30406699077942534  0.6086961714267289  0.22251167281716985  1.0000
  H   H19       1.0  0.8040691347231499  0.8912946735807522  0.22250910265636742  1.0000
  H   H20       1.0  0.6959374276739894  0.3913012143357762  0.7774897719332469  1.0000
  H   H21       1.0  0.047557246034998016  0.0333417895963066  0.6833664837200286  1.0000
  H   H22       1.0  0.45246373628107506  0.5333393877599023  0.31663504602828846  1.0000
  H   H23       1.0  0.9524597396732658  0.9666546629599752  0.3166313012484494  1.0000
  H   H24       1.0  0.5475475784011933  0.4666598642953162  0.6833659511648164  1.0000
  H   H25       1.0  0.9009815791681816  0.07917956609713882  0.5840974006160379  1.0000
  H   H26       1.0  0.5990403005607233  0.5791762319754666  0.4159010599634953  1.0000
  H   H27       1.0  0.0990283612038922  0.9208262180510045  0.41590359402837146  1.0000
  H   H28       1.0  0.4009779351882869  0.42082581952539755  0.5840990293232265  1.0000
  H   H29       1.0  0.7970190793019822  0.23811256028033512  0.5057444142722429  1.0000
  H   H30       1.0  0.7029999119384981  0.7381105885260553  0.4942545007029506  1.0000
  H   H31       1.0  0.2029910101907717  0.7618792265162003  0.49425381824951115  1.0000
  H   H32       1.0  0.29702529456636745  0.2618933292593013  0.5057437599752033  1.0000
  H   H33       1.0  0.7332752890940525  0.459487881908494  0.4804032503355557  1.0000
  H   H34       1.0  0.7667305739749325  0.9594831094379045  0.519596741002445  1.0000
  H   H35       1.0  0.2667211072792171  0.5405067043814141  0.5195940359085042  1.0000
  H   H36       1.0  0.23329892925462303  0.0405226746300968  0.4803983048996939  1.0000
  H   H37       1.0  0.8164647995578633  0.6265799347267774  0.558932586190906  1.0000
  H   H38       1.0  0.6835235216973032  0.12656954984286983  0.44106825101836467  1.0000
  H   H39       1.0  0.18351633066927772  0.37341931739295126  0.4410674340234379  1.0000
  H   H40       1.0  0.31649646096579426  0.8734325016137277  0.5589249355701041  1.0000
  C   C1        1.0  0.17595147932281915  0.8268669473242555  0.7969862094529245  1.0000
  C   C2        1.0  0.3240558612723916  0.3268727318639719  0.20301338166063934  1.0000
  C   C3        1.0  0.8240504886937784  0.1731276389447132  0.20300970597222084  1.0000
  C   C4        1.0  0.6759595761937832  0.673137718049837  0.7969876232228256  1.0000
  C   C5        1.0  0.19702387246469746  0.8659543716159774  0.8624671928664113  1.0000
  C   C6        1.0  0.30296770534256723  0.3659716224407177  0.13753754636044846  1.0000
  C   C7        1.0  0.8029753221691891  0.13403648203937735  0.13752917778761284  1.0000
  C   C8        1.0  0.6970323914238036  0.6340490922451991  0.8624675735526209  1.0000
  C   C9        1.0  0.1256898654059029  0.81334166241745  0.9154037985268103  1.0000
  C   C10       1.0  0.374281674008344  0.3133570316346024  0.08459937000679929  1.0000
  C   C11       1.0  0.8743092547187602  0.1866454586234099  0.084593953173119  1.0000
  C   C12       1.0  0.625692410855926  0.6866571510110547  0.9154038598915263  1.0000
  C   C13       1.0  0.17683463495180257  0.8831596247624418  0.9680432510487902  1.0000
  C   C14       1.0  0.3231237217304752  0.38317275238708964  0.03196285729652709  1.0000
  C   C15       1.0  0.8231589383496357  0.11683216207500641  0.03195541112633998  1.0000
  C   C16       1.0  0.6768337227619339  0.6168348982234306  0.9680431039978995  1.0000
  C   C17       1.0  0.2861150419846865  0.9860621045360175  0.9551121583365256  1.0000
  C   C18       1.0  0.21383953606847678  0.48607589112521055  0.044895161451613284  1.0000
  C   C19       1.0  0.713868961038962  0.0139315486295857  0.04488556523383379  1.0000
  C   C20       1.0  0.7861123367894933  0.5139298931948986  0.9551121706590492  1.0000
  C   C21       1.0  0.1853261234333914  0.4266540935382822  0.7812602770252253  1.0000
  C   C22       1.0  0.3146746948707814  0.926648392684065  0.2187409717909928  1.0000
  C   C23       1.0  0.814663128269906  0.5733423591090201  0.21874206028572724  1.0000
  C   C24       1.0  0.6853270247091388  0.0733489930793283  0.7812595471424045  1.0000
  C   C25       1.0  0.22042297455165993  0.3043603454076731  0.8014728479490498  1.0000
  C   C26       1.0  0.27957768429697444  0.8043527060181505  0.19852712599597303  1.0000
  C   C27       1.0  0.7795730988579308  0.6956370403848808  0.19853042285453168  1.0000
  C   C28       1.0  0.720425459251139  0.19564374658089886  0.8014724747933141  1.0000
  C   C29       1.0  0.1696779117338707  0.20545041347369164  0.7647587575850351  1.0000
  C   C30       1.0  0.33031949209897965  0.7054420326077917  0.23524230535778654  1.0000
  C   C31       1.0  0.830318161671279  0.7945479054745378  0.23524451321988946  1.0000
  C   C32       1.0  0.6696822026430524  0.2945544200026617  0.7647586739246887  1.0000
  C   C33       1.0  0.08342937461025458  0.2285328229419434  0.7081084977635114  1.0000
  C   C34       1.0  0.4165858239725253  0.7285284334128264  0.2918899027023869  1.0000
  C   C35       1.0  0.9165875117153419  0.7714664290923279  0.291891128610679  1.0000
  C   C36       1.0  0.5834241909665537  0.2714689523260033  0.7081097108786805  1.0000
  C   C37       1.0  0.025830917737067707  0.1294745190832387  0.668628478203672  1.0000
  C   C38       1.0  0.47419894252956846  0.6294749873087682  0.33137012339577854  1.0000
  C   C39       1.0  0.974181696719505  0.8705200671986265  0.3313739025920909  1.0000
  C   C40       1.0  0.5258248897184357  0.37052426470138045  0.6686281347175793  1.0000
  C   C41       1.0  0.9450486573978479  0.155249553921216  0.6137273347589057  1.0000
  C   C42       1.0  0.5549850151289348  0.6552516784910838  0.38626860545923586  1.0000
  C   C43       1.0  0.05498339569120961  0.8447478317612322  0.38627139905071306  1.0000
  C   C44       1.0  0.445045812708365  0.3447513061121796  0.6137273636978121  1.0000
  C   C45       1.0  0.9147584841809505  0.28106036007411456  0.5944504945724417  1.0000
  C   C46       1.0  0.585257374169295  0.7810579025962596  0.4055480784156271  1.0000
  C   C47       1.0  0.08525133202390116  0.7189360925309459  0.4055528018106712  1.0000
  C   C48       1.0  0.41476503410162735  0.21894414888958383  0.5944510978445123  1.0000
  C   C49       1.0  0.8326991579216951  0.31190101699485234  0.5379526083351465  1.0000
  C   C50       1.0  0.6673247019669902  0.8118969696638845  0.46204514796897195  1.0000
  C   C51       1.0  0.1673218264343745  0.6880907697871947  0.46204748605299517  1.0000
  C   C52       1.0  0.33269775598860457  0.1881050818164808  0.5379531075903187  1.0000
  C   C53       1.0  0.7966217402180503  0.4351046303066682  0.5239402169627779  1.0000
  C   C54       1.0  0.7033899764821356  0.9351005784299959  0.47605741275167185  1.0000
  C   C55       1.0  0.20338285215837712  0.5648871565025929  0.476058005326628  1.0000
  C   C56       1.0  0.2966256349159409  0.06490240621921829  0.5239403696681109  1.0000
  C   C57       1.0  0.8440064772995868  0.5277587292421444  0.5666378039603757  1.0000
  C   C58       1.0  0.6560007256011745  0.027750248961695003  0.4333614013324548  1.0000
  C   C59       1.0  0.15599669106863695  0.4722423891325603  0.4333613364852056  1.0000
  C   C60       1.0  0.3440287031236053  0.9722508693361291  0.5666350256142465  1.0000
  C   C61       1.0  0.9636546520085857  0.38160893328775125  0.6338443375274989  1.0000
  C   C62       1.0  0.5363546519047875  0.8816053111986477  0.3661563557176776  1.0000
  C   C63       1.0  0.0363498906431658  0.6183912519280952  0.36615480547482077  1.0000
  C   C64       1.0  0.4636608352905042  0.11839580715290772  0.6338437284515307  1.0000
  C   C65       1.0  0.05236457561952787  0.3548708795206609  0.6915212349518356  1.0000
  C   C66       1.0  0.4476300303231043  0.8548702714186691  0.3084802550461774  1.0000
  C   C67       1.0  0.9476413413157515  0.6451283725363197  0.3084779106072374  1.0000
  C   C68       1.0  0.5523744378149829  0.1451271143383579  0.6915202690033906  1.0000
  S   S1        1.0  0.3266377575324313  0.9976093659223508  0.878561945716079  1.0000
  S   S2        1.0  0.17333452644916036  0.4976232995810009  0.12144636122804539  1.0000
  S   S3        1.0  0.6733462703202164  0.0023870867075431  0.12143531750788127  1.0000
  S   S4        1.0  0.826647481148143  0.5023890167698256  0.8785628685716202  1.0000
  N   N1        1.0  0.9267831798408749  0.5017583264625998  0.619239774761695  1.0000
  N   N2        1.0  0.5732187487893725  0.0017552173713966002  0.3807598059025921  1.0000
  N   N3        1.0  0.07321863910394197  0.49823999244551237  0.3807589027713476  1.0000
  N   N4        1.0  0.42679961117575266  0.9982459009600931  0.6192379816306824  1.0000
  N   N5        1.0  0.10285625552019441  0.4508264410730903  0.7282191959082451  1.0000
  N   N6        1.0  0.39714987928213225  0.950821907659204  0.27178121193961147  1.0000
  N   N7        1.0  0.8971371935295736  0.5491737441791571  0.2717817680310758  1.0000
  N   N8        1.0  0.6028545888692919  0.0491726786307964  0.728219312105935  1.0000
  N   N9        1.0  0.11986802515885127  0.853815878777965  0.029986700055879098  1.0000
  N   N10       1.0  0.3800797658696453  0.3538378030285116  0.9700165413679966  1.0000
  N   N11       1.0  0.8801118301718773  0.1461805738669497  0.9700114761946632  1.0000
  N   N12       1.0  0.6198708817099075  0.646179179146479  0.029988026098145288  1.0000
  Cl  Cl1       1.0  0.8461124085884889  0.8239613936758019  0.6342776451481241  1.0000
  Cl  Cl2       1.0  0.6538962938481347  0.3239586672893325  0.36571873664273363  1.0000
  Cl  Cl3       1.0  0.15389100824753402  0.1760303931147291  0.3657168917798187  1.0000
  Cl  Cl4       1.0  0.3461152195461352  0.6760461836780394  0.6342785777550473  1.0000
  O   O1        1.0  0.23791082428523672  0.8998160083727883  0.7557847288330137  1.0000
  O   O2        1.0  0.2621079414090985  0.3998178953111804  0.24421969853943173  1.0000
  O   O3        1.0  0.7620923689431081  0.1001813773764653  0.24421395125677484  1.0000
  O   O4        1.0  0.737915518172784  0.6001878888298079  0.7557854648396614  1.0000
  O   O5        1.0  0.09451389932611678  0.72283982678875  0.788729187550018  1.0000
  O   O6        1.0  0.40549313261629993  0.22284532871029944  0.21126872086309587  1.0000
  O   O7        1.0  0.9054948655766709  0.2771510268498075  0.21126812171146261  1.0000
  O   O8        1.0  0.5945252024620444  0.7771651211807153  0.7887295270340076  1.0000
  O   O9        1.0  0.1613215158535652  0.9280970833570239  0.0716534414268182  1.0000
  O   O10       1.0  0.3386432591329083  0.42813457865455007  0.9283532692950726  1.0000
  O   O11       1.0  0.8386705589971298  0.07188630509620002  0.9283475199302627  1.0000
  O   O12       1.0  0.6613100624555771  0.5718870693006864  0.07165268434521718  1.0000
  O   O13       1.0  0.030340856240641798  0.7557816027824487  0.03889110758806419  1.0000
  O   O14       1.0  0.469586004565663  0.25579740797291356  0.9611095092849736  1.0000
  O   O15       1.0  0.9696323512756918  0.2442148498537264  0.9611029127182388  1.0000
  O   O16       1.0  0.5303508505561824  0.7442158416166578  0.038895953295771286  1.0000
