data_image0
_chemical_formula_structural       Zn2H24C52N6Cl8O8
_chemical_formula_sum              "Zn2 H24 C52 N6 Cl8 O8"
_cell_length_a       18.764111094428984
_cell_length_b       19.386363323849544
_cell_length_c       19.601385245739625
_cell_angle_alpha    91.62466657702045
_cell_angle_beta     89.82984118749951
_cell_angle_gamma    90.22629873638235

_space_group_name_H-M_alt    "P 1"
_space_group_IT_number       1

loop_
  _space_group_symop_operation_xyz
  'x, y, z'

loop_
  _atom_site_type_symbol
  _atom_site_label
  _atom_site_symmetry_multiplicity
  _atom_site_fract_x
  _atom_site_fract_y
  _atom_site_fract_z
  _atom_site_occupancy
  Zn  Zn1       1.0  0.5785936207204614  0.5002041053816767  0.49977846606828535  1.0000
  Zn  Zn2       1.0  0.4214118214231348  0.4997930763337164  0.500215746595984  1.0000
  H   H1        1.0  0.6145208744144385  0.7201543005670386  0.5023352490751946  1.0000
  H   H2        1.0  0.6147168412430303  0.49698873431965024  0.8428440590074615  1.0000
  H   H3        1.0  0.38526537385403964  0.5037321984136793  0.8435792988539746  1.0000
  H   H4        1.0  0.6147246403127369  0.49627568815674983  0.1564108998133023  1.0000
  H   H5        1.0  0.5821081756956943  0.42253777750920546  0.060486399543911794  1.0000
  H   H6        1.0  0.4178898074264197  0.5774630877861566  0.9395114120469117  1.0000
  H   H7        1.0  0.5821781608262314  0.42288434424825266  0.9343481077320134  1.0000
  H   H8        1.0  0.41781609359886557  0.5771159484437262  0.06564766557454502  1.0000
  H   H9        1.0  0.8340527118983444  0.4197737455361119  0.4212353565163269  1.0000
  H   H10       1.0  0.1659532705050353  0.5802286456297521  0.5787609190175687  1.0000
  H   H11       1.0  0.8340794697855215  0.5802453549043419  0.5790008325465195  1.0000
  H   H12       1.0  0.38548723564765197  0.2798524323672352  0.49766971738490895  1.0000
  H   H13       1.0  0.1659174635567311  0.4197594991986051  0.4209913842523107  1.0000
  H   H14       1.0  0.9340933909987257  0.5167953512995352  0.6093153988363795  1.0000
  H   H15       1.0  0.0659077931647261  0.4832102622247945  0.39068651102186885  1.0000
  H   H16       1.0  0.9343918141205736  0.48326842728396713  0.3908231234831661  1.0000
  H   H17       1.0  0.0656083125762521  0.5167391734267068  0.6091757345672235  1.0000
  H   H18       1.0  0.6143770136321081  0.28086021906105424  0.5030725043294026  1.0000
  H   H19       1.0  0.38563372381642574  0.7191423590653512  0.496952342743846  1.0000
  H   H20       1.0  0.3858277564408468  0.5037765895176561  0.2845590782245252  1.0000
  H   H21       1.0  0.6141691395525583  0.49621503728793204  0.7154407364982801  1.0000
  H   H22       1.0  0.38591303504272634  0.5032410162058479  0.716200452462239  1.0000
  H   H23       1.0  0.6140823020718641  0.4967632570047795  0.2837892125901078  1.0000
  H   H24       1.0  0.38527366604967733  0.5030054348621247  0.15715475533416168  1.0000
  C   C1        1.0  0.5000255413047582  0.4992891862026522  0.6319128977176334  1.0000
  C   C2        1.0  0.4531448433265339  0.5422976399633369  0.0369289860031898  1.0000
  C   C3        1.0  0.500010679577528  0.5001960944558588  0.9275569237949951  1.0000
  C   C4        1.0  0.49997770203334824  0.49979849981301055  0.07243832326609119  1.0000
  C   C5        1.0  0.733351225043549  0.4580661367401504  0.45749759830020054  1.0000
  C   C6        1.0  0.26665104145263285  0.5419402628841608  0.5424941070468706  1.0000
  C   C7        1.0  0.7333731302356127  0.5422142430546657  0.5422440836711216  1.0000
  C   C8        1.0  0.2666253983136926  0.4577906760524824  0.457750682657867  1.0000
  C   C9        1.0  0.8075526180311173  0.4562845421905306  0.45585329384461903  1.0000
  C   C10       1.0  0.192446444897044  0.543720353168453  0.5441404509715255  1.0000
  C   C11       1.0  0.8075732223620663  0.5438060585212198  0.5442497716337157  1.0000
  C   C12       1.0  0.49996868922515597  0.5006997817232558  0.3680838475697001  1.0000
  C   C13       1.0  0.1924274489840769  0.4562029422431877  0.45574296785395774  1.0000
  C   C14       1.0  0.8462658139441928  0.5000269853515318  0.5000970546216265  1.0000
  C   C15       1.0  0.15373324988320997  0.4999794948305405  0.49989822795311767  1.0000
  C   C16       1.0  0.9628785527905134  0.5105048223460853  0.5611338089071366  1.0000
  C   C17       1.0  0.037118904417390304  0.489500722076741  0.4388655545132777  1.0000
  C   C18       1.0  0.9630516429485496  0.4895337312392057  0.438943764387254  1.0000
  C   C19       1.0  0.03694688127557551  0.510471262185412  0.5610540641610343  1.0000
  C   C20       1.0  0.0751760870273941  0.49998107814797504  0.4999225136042327  1.0000
  C   C21       1.0  0.9248245641419145  0.5000218682077315  0.5000758133563323  1.0000
  C   C22       1.0  0.5000127709384969  0.6346633395659819  0.49949746437248876  1.0000
  C   C23       1.0  0.49999700253679447  0.49969144103881286  0.14774306406221877  1.0000
  C   C24       1.0  0.4999964037418323  0.36533861617519386  0.5005018665258872  1.0000
  C   C25       1.0  0.5646810469245196  0.7485903524212175  0.5010951982796213  1.0000
  C   C26       1.0  0.4353270462009604  0.25141347097802214  0.49891741043081334  1.0000
  C   C27       1.0  0.5645271172150075  0.25198834949873117  0.5016427461027533  1.0000
  C   C28       1.0  0.4354815041012969  0.7480160899029185  0.49837394700998056  1.0000
  C   C29       1.0  0.5642367743359031  0.820388887623146  0.5014642157374709  1.0000
  C   C30       1.0  0.43577238141626407  0.17961819417463684  0.4985550395331798  1.0000
  C   C31       1.0  0.5640541704776679  0.18018491089251396  0.5012944376611869  1.0000
  C   C32       1.0  0.4359544405681675  0.819818104707238  0.49872735250141176  1.0000
  C   C33       1.0  0.5000960673178482  0.8576052956450435  0.5002026553340214  1.0000
  C   C34       1.0  0.4999951106545523  0.5003036762884532  0.8522521798036067  1.0000
  C   C35       1.0  0.499913614284182  0.14240084210454998  0.49982016732008816  1.0000
  C   C36       1.0  0.5000819077537527  0.7124500041336713  0.4994781202206012  1.0000
  C   C37       1.0  0.49992671830884194  0.2875538202898936  0.500534487716756  1.0000
  C   C38       1.0  0.4999233624929856  0.06597286799319589  0.4998539127735242  1.0000
  C   C39       1.0  0.5000831180033528  0.9340322566066988  0.5001699308262104  1.0000
  C   C40       1.0  0.43556823328207633  0.5024954992275426  0.2557140062271444  1.0000
  C   C41       1.0  0.5644238683827963  0.4974934150560769  0.7442807006729879  1.0000
  C   C42       1.0  0.4356566261932855  0.5022431835105791  0.7447175960312364  1.0000
  C   C43       1.0  0.5643365694448265  0.4977580522052703  0.25527461066494794  1.0000
  C   C44       1.0  0.43566055926500263  0.502428543829623  0.18474960915191468  1.0000
  C   C45       1.0  0.4999523434650328  0.5004177058429065  0.2916868851713089  1.0000
  C   C46       1.0  0.5643262117652981  0.49756198219255765  0.815248174347296  1.0000
  C   C47       1.0  0.4356789871081687  0.5029122046764838  0.8156976822832078  1.0000
  C   C48       1.0  0.5643142182579268  0.49709206443684195  0.1842919858614707  1.0000
  C   C49       1.0  0.5000445591375139  0.4995727405515067  0.7083068006802761  1.0000
  C   C50       1.0  0.5468208143064786  0.4575072188097662  0.034073214220072104  1.0000
  C   C51       1.0  0.45317183926601945  0.5424920390330071  0.9659225569730979  1.0000
  C   C52       1.0  0.5468472707640614  0.457699062187011  0.9630677956212421  1.0000
  N   N1        1.0  0.4755407344748264  0.9674773112911055  0.5567261191241784  1.0000
  N   N2        1.0  0.5244614851082331  0.03252722729484249  0.44329517659448914  1.0000
  N   N3        1.0  0.4754495733368174  0.035813531338455086  0.5565662510037654  1.0000
  N   N4        1.0  0.5245537147612112  0.9641930976210986  0.44345607277377036  1.0000
  N   N5        1.0  0.6953269518154316  0.5002092425295145  0.49977914509697297  1.0000
  N   N6        1.0  0.3046737138281586  0.4997961222455841  0.5002125581367095  1.0000
  Cl  Cl1       1.0  0.6446956422057043  0.8644237794260614  0.5056804158410912  1.0000
  Cl  Cl2       1.0  0.35531031730843665  0.13558060530897353  0.49433423965751894  1.0000
  Cl  Cl3       1.0  0.6445487817027526  0.13696934989559398  0.5047854188313606  1.0000
  Cl  Cl4       1.0  0.3554571341458157  0.8630299174511863  0.49525217893246776  1.0000
  Cl  Cl5       1.0  0.6887540267982076  0.4028972656791224  0.40275285042283576  1.0000
  Cl  Cl6       1.0  0.3112482454648812  0.5971090348552365  0.5972347719651765  1.0000
  Cl  Cl7       1.0  0.6887611008399191  0.5975491795454672  0.5967216439929857  1.0000
  Cl  Cl8       1.0  0.31123634886694157  0.402449559241873  0.4032736076562458  1.0000
  O   O1        1.0  0.5605823536791162  0.49925835197498686  0.6022756174784192  1.0000
  O   O2        1.0  0.43941829046728026  0.5007399142289299  0.39772115842564665  1.0000
  O   O3        1.0  0.5605468150832422  0.5005134754055333  0.39734751298728105  1.0000
  O   O4        1.0  0.43945061355487514  0.499471222926452  0.6026430854924314  1.0000
  O   O5        1.0  0.5606188899270492  0.6056629153583016  0.499633430746904  1.0000
  O   O6        1.0  0.43939350129684834  0.39434032169578603  0.5003546740245141  1.0000
  O   O7        1.0  0.5606847327023416  0.3946148924732497  0.5001860506635082  1.0000
  O   O8        1.0  0.43932604349443233  0.6053854195865965  0.49980918830761567  1.0000
