data_image0
_chemical_formula_structural       Cd4H56C48N32O8
_chemical_formula_sum              "Cd4 H56 C48 N32 O8"
_cell_length_a       8.87044686993521
_cell_length_b       12.839935084341477
_cell_length_c       15.198
_cell_angle_alpha    68.44373147953732
_cell_angle_beta     77.25560832109457
_cell_angle_gamma    73.54084208787376

_space_group_name_H-M_alt    "P 1"
_space_group_IT_number       1

loop_
  _space_group_symop_operation_xyz
  'x, y, z'

loop_
  _atom_site_type_symbol
  _atom_site_label
  _atom_site_symmetry_multiplicity
  _atom_site_fract_x
  _atom_site_fract_y
  _atom_site_fract_z
  _atom_site_occupancy
  Cd  Cd1       1.0  0.3889837479269929  0.9976565568114069  0.6137804451953243  1.0000
  Cd  Cd2       1.0  0.6110159767698349  0.0023442599428449  0.3862193367245652  1.0000
  Cd  Cd3       1.0  0.16325525325177642  0.9867410159196126  0.8437751191849755  1.0000
  Cd  Cd4       1.0  0.8367438444026121  0.013258082798770898  0.15622593474410706  1.0000
  H   H1        1.0  0.6709283557298491  0.9783913615977227  0.718393237386593  1.0000
  H   H2        1.0  0.32907189773818146  0.0216077371206538  0.2816070097429062  1.0000
  H   H3        1.0  0.8575572767199946  0.8340548731784522  0.8300202050940158  1.0000
  H   H4        1.0  0.1424429767480291  0.1659442255399313  0.169981357998104  1.0000
  H   H5        1.0  0.6972869145239217  0.5691346012426379  0.7890665428581015  1.0000
  H   H6        1.0  0.3027130745585113  0.4308653564936833  0.21093347166659265  1.0000
  H   H7        1.0  0.5195826068782381  0.7227862801420102  0.6797919111512484  1.0000
  H   H8        1.0  0.48041880240342744  0.2772128185763734  0.32020752917865997  1.0000
  H   H9        1.0  0.023386236789917803  0.6127684172179784  0.8590420889548938  1.0000
  H   H10       1.0  0.9766125964788727  0.3872315405183356  0.14095873236938425  1.0000
  H   H11       1.0  0.8729925214528292  0.6225397462212214  0.955056109964964  1.0000
  H   H12       1.0  0.1270077320151941  0.3774593524971621  0.04494413716453493  1.0000
  H   H13       1.0  0.12297679097707  0.0393507525546681  0.4879269601499985  1.0000
  H   H14       1.0  0.8770217779061227  0.9606500641995835  0.512072312606854  1.0000
  H   H15       1.0  0.9273882564311576  0.1968963597504541  0.39002675986560575  1.0000
  H   H16       1.0  0.07260773643915998  0.8031053160217283  0.6099738938856091  1.0000
  H   H17       1.0  0.07757323273207821  0.43495514087912557  0.47371135721727603  1.0000
  H   H18       1.0  0.9224256005367053  0.5650448168571955  0.5262894641069948  1.0000
  H   H19       1.0  0.2605112762411609  0.26930813554447747  0.5698084236428897  1.0000
  H   H20       1.0  0.7394884484556741  0.7306926812097743  0.4301913582770068  1.0000
  H   H21       1.0  0.9300941370431417  0.4461996856397761  0.2866188211394202  1.0000
  H   H22       1.0  0.06990469622564892  0.5538002720965451  0.7133813422035403  1.0000
  H   H23       1.0  0.7654345469681445  0.4010153422929291  0.36708289455553  1.0000
  H   H24       1.0  0.2345640219150482  0.5989854744613226  0.6329170361826328  1.0000
  H   H25       1.0  0.46661483344912114  0.9533028838070834  0.9313979363960172  1.0000
  H   H26       1.0  0.5333848912477138  0.04669793294716839  0.06860250350518268  1.0000
  H   H27       1.0  0.6546117116964039  0.8071091986137375  0.04080912619376427  1.0000
  H   H28       1.0  0.3453885417716265  0.192889900104646  0.9591904629544175  1.0000
  H   H29       1.0  0.4033433247780849  0.5549410479133599  0.058613143593284234  1.0000
  H   H30       1.0  0.5966566643043478  0.4450589098229614  0.9413862129500997  1.0000
  H   H31       1.0  0.22253349873895437  0.7114876172514925  0.9529824198595945  1.0000
  H   H32       1.0  0.7774662259578733  0.2885131995027592  0.047017362060302006  1.0000
  H   H33       1.0  0.5935204266174949  0.5402140444468486  0.1930841310165121  1.0000
  H   H34       1.0  0.40647840665129564  0.45978591328946544  0.8069153743451309  1.0000
  H   H35       1.0  0.7091764921855486  0.502827006890108  0.0939958451484415  1.0000
  H   H36       1.0  0.2908237612824749  0.4971720918282756  0.9060037439997402  1.0000
  H   H37       1.0  0.9169434696052646  0.0439731280594131  0.7048054571264473  1.0000
  H   H38       1.0  0.08305678386275876  0.9560259706589702  0.29519544798435504  1.0000
  H   H39       1.0  0.7103825437543279  0.2047881575133346  0.6171635424494539  1.0000
  H   H40       1.0  0.28961975695537495  0.7952118002229867  0.38283617443870105  1.0000
  H   H41       1.0  0.8111500532998477  0.4207435481732276  0.7467343441586178  1.0000
  H   H42       1.0  0.18885109159622  0.5792564095630937  0.2532655215478101  1.0000
  H   H43       1.0  0.008819003763534306  0.2506176233288784  0.8315148999614621  1.0000
  H   H44       1.0  0.9911812497044893  0.7493814753895052  0.16848600514934728  1.0000
  H   H45       1.0  0.6833526912805679  0.45757308309057976  0.5450329612993343  1.0000
  H   H46       1.0  0.31664729780186457  0.5424268746457415  0.45496705322536  1.0000
  H   H47       1.0  0.5246505965281543  0.3940461297915405  0.6175199925593375  1.0000
  H   H48       1.0  0.4753508127535114  0.605952968926843  0.3824801057518883  1.0000
  H   H49       1.0  0.0012856049220389086  0.4421932259939609  0.8973122434507487  1.0000
  H   H50       1.0  0.9987158043596266  0.5578058727244226  0.1026885128417874  1.0000
  H   H51       1.0  0.7829107928646195  0.592090996520227  0.34542588382461753  1.0000
  H   H52       1.0  0.21708866744661756  0.40791067925196234  0.6545736654904744  1.0000
  H   H53       1.0  0.7528654096620144  0.658914001633363  0.1746554496535282  1.0000
  H   H54       1.0  0.24713457942041123  0.3410859561029511  0.8253445648711661  1.0000
  H   H55       1.0  0.5271901211975347  0.5840256771346047  0.6144002708006369  1.0000
  H   H56       1.0  0.472811023698533  0.4159742806017093  0.3855995949057914  1.0000
  C   C1        1.0  0.6821512634261852  0.8864901869091495  0.7354487654323166  1.0000
  C   C2        1.0  0.3178478342282034  0.1135089118092338  0.26455163051544867  1.0000
  C   C3        1.0  0.7851932331757255  0.8059374981512875  0.7972942367137322  1.0000
  C   C4        1.0  0.214807020292298  0.1940616005670961  0.20270601041575992  1.0000
  C   C5        1.0  0.7923730469327027  0.6885638646554142  0.8193649044504241  1.0000
  C   C6        1.0  0.20762694214973007  0.3114360930809069  0.18063511007427022  1.0000
  C   C7        1.0  0.6960284186291902  0.658575548567228  0.7755823784567469  1.0000
  C   C8        1.0  0.3039715704532426  0.3414244091690861  0.22441763606794743  1.0000
  C   C9        1.0  0.5962594032697268  0.7447247391673883  0.7138851768241705  1.0000
  C   C10       1.0  0.4037408501983037  0.2552743595509952  0.2861150703053283  1.0000
  C   C11       1.0  0.9015388891500821  0.6012953736867884  0.888168457142072  1.0000
  C   C12       1.0  0.09846136431794149  0.398703725031595  0.1118324479687374  1.0000
  C   C13       1.0  0.10700897524182551  0.1285339944989587  0.4833992046367541  1.0000
  C   C14       1.0  0.8929870176284922  0.8714676812732307  0.516600133151833  1.0000
  C   C15       1.0  0.999791272731919  0.21660652625413224  0.4285676665423638  1.0000
  C   C16       1.0  0.00020587595204089014  0.7833951495180569  0.5714321804092677  1.0000
  C   C17       1.0  0.9866464014231084  0.3302958318295737  0.4228559783009445  1.0000
  C   C18       1.0  0.013351903074493512  0.6697058439426087  0.5771443778137312  1.0000
  C   C19       1.0  0.08215892215804393  0.34905678351579167  0.4748838202520106  1.0000
  C   C20       1.0  0.9178408025387911  0.65094403323846  0.5251166196491965  1.0000
  C   C21       1.0  0.18526059487541596  0.2561539939157669  0.528980626208714  1.0000
  C   C22       1.0  0.8147382383933747  0.7438459638205471  0.4710195371342465  1.0000
  C   C23       1.0  0.8754531258630749  0.4279558627500322  0.3620096842471554  1.0000
  C   C24       1.0  0.1245465988337529  0.5720449540042196  0.637990097672734  1.0000
  C   C25       1.0  0.45772283331190516  0.8636145393173962  0.9612592552102655  1.0000
  C   C26       1.0  0.5422783115841625  0.136385418418925  0.0387406104961627  1.0000
  C   C27       1.0  0.56257910138266  0.7816358807885067  0.02167604123216897  1.0000
  C   C28       1.0  0.4374211520853634  0.2183632179298769  0.9783242058973228  1.0000
  C   C29       1.0  0.5480754803070341  0.6674217152551734  0.05748640630148566  1.0000
  C   C30       1.0  0.45192477316098945  0.3325773834632102  0.9425125248653784  1.0000
  C   C31       1.0  0.4239022028686393  0.6416623444577993  0.03187836128773823  1.0000
  C   C32       1.0  0.5760963660145535  0.3583384722964524  0.9681209114691143  1.0000
  C   C33       1.0  0.3221765620448949  0.728655949687429  0.9722462474169546  1.0000
  C   C34       1.0  0.677824318465575  0.2713448670668228  0.027752727703358526  1.0000
  C   C35       1.0  0.6601421633735639  0.5748401983625939  0.12224720072618572  1.0000
  C   C36       1.0  0.3398592459081016  0.4251589003557896  0.8777528975850402  1.0000
  C   C37       1.0  0.8876226700106002  0.1288973590851867  0.7126090517564165  1.0000
  C   C38       1.0  0.11237731907182542  0.8711025986511274  0.2873916207495952  1.0000
  C   C39       1.0  0.7744940060342387  0.2182936374771955  0.6639908253285327  1.0000
  C   C40       1.0  0.22550713886182902  0.7817063202591186  0.33600904037789553  1.0000
  C   C41       1.0  0.7443294596519578  0.3266776482900866  0.6744972519711749  1.0000
  C   C42       1.0  0.255672841057752  0.6733223094462275  0.32550180693566944  1.0000
  C   C43       1.0  0.829682028169323  0.33865235829493656  0.73596765427105  1.0000
  C   C44       1.0  0.17032053692598478  0.661346740423447  0.26403229522190225  1.0000
  C   C45       1.0  0.9400949346088796  0.24467321922317345  0.7829833223753511  1.0000
  C   C46       1.0  0.05990621028718833  0.7553267385131477  0.21701720131238741  1.0000
  C   C47       1.0  0.6270099332038868  0.4255145337806141  0.6196107008176951  1.0000
  C   C48       1.0  0.3729912116921812  0.5744854239557071  0.3803891648887258  1.0000
  N   N1        1.0  0.4084547241271038  0.907812730075605  0.49542303459488574  1.0000
  N   N2        1.0  0.5915441091416866  0.092187227660709  0.5045771287480818  1.0000
  N   N3        1.0  0.4212708247852746  0.807017283694762  0.5118233340256281  1.0000
  N   N4        1.0  0.5787288999115602  0.1929835330594898  0.48817644789426134  1.0000
  N   N5        1.0  0.43093527571346607  0.70967594842795  0.5250917881831042  1.0000
  N   N6        1.0  0.5690649777545573  0.2903231502904333  0.47490845894639483  1.0000
  N   N7        1.0  0.19260914890312358  0.9070456270602278  0.7205114472220444  1.0000
  N   N8        1.0  0.807390840179302  0.0929543306760863  0.27948856730265  1.0000
  N   N9        1.0  0.20787854579757692  0.8039797962789024  0.7458102873344855  1.0000
  N   N10       1.0  0.7921202874712137  0.1960201614574189  0.2541898760084749  1.0000
  N   N11       1.0  0.2201154758853008  0.705069894263957  0.7691995414184729  1.0000
  N   N12       1.0  0.7798842488115341  0.2949309224902946  0.2308002405014165  1.0000
  N   N13       1.0  0.3715295503622329  0.0881378171181808  0.7333826475965423  1.0000
  N   N14       1.0  0.6284704387201926  0.9118621406181333  0.26661802490946945  1.0000
  N   N15       1.0  0.3533199358931043  0.1839251889417568  0.7328219477950098  1.0000
  N   N16       1.0  0.6466812090029636  0.8160747687945572  0.2671779179114182  1.0000
  N   N17       1.0  0.33680788211091783  0.2778622361347445  0.7334270071007224  1.0000
  N   N18       1.0  0.6631921069715077  0.7221377216015766  0.26657300742397183  1.0000
  N   N19       1.0  0.9706195078249636  0.8779120338167274  0.9254193219653644  1.0000
  N   N20       1.0  0.029380216871871284  0.1220887829375243  0.07458111793584268  1.0000
  N   N21       1.0  0.893569001868684  0.8925746109381548  0.9959044810700348  1.0000
  N   N22       1.0  0.1064309872137414  0.1074253467981592  0.004095533454659501  1.0000
  N   N23       1.0  0.8125330732718156  0.9034523550408406  0.06657348585120816  1.0000
  N   N24       1.0  0.1874669158106173  0.09654760269547319  0.933426528673486  1.0000
  N   N25       1.0  0.5873069100872994  0.8572303180293019  0.6943901304440913  1.0000
  N   N26       1.0  0.41269307899513313  0.1427696397070193  0.305609884080603  1.0000
  N   N27       1.0  0.19923098202620076  0.1472932281493087  0.53317142793491  1.0000
  N   N28       1.0  0.8007678512425899  0.8527067295870124  0.4668280774267402  1.0000
  N   N29       1.0  0.33932525535880137  0.8382829594513267  0.9364855142479201  1.0000
  N   N30       1.0  0.6606756251516686  0.161717857302925  0.0635134608723931  1.0000
  N   N31       1.0  0.9698803865840444  0.1413514010974026  0.771493905684018  1.0000
  N   N32       1.0  0.03012075831202316  0.8586485566389114  0.22850661800372052  1.0000
  O   O1        1.0  0.8913475260341032  0.48630036085113193  0.906632810955763  1.0000
  O   O2        1.0  0.10865272743392751  0.5136987378672515  0.09336743617373605  1.0000
  O   O3        1.0  0.8451715834123803  0.5262275144397535  0.3911155861977064  1.0000
  O   O4        1.0  0.1548267210852146  0.4737741613324288  0.6088841119356516  1.0000
  O   O5        1.0  0.7914466975368839  0.6125983316669803  0.13100632744987442  1.0000
  O   O6        1.0  0.2085509799182645  0.38740162606934087  0.8689939847113592  1.0000
  O   O7        1.0  0.5793637169679897  0.5140964631708513  0.6618697750952336  1.0000
  O   O8        1.0  0.4206362721144431  0.4859034945654628  0.3381302394294606  1.0000
