data_image0
_chemical_formula_structural       Cd4H36C44N12O16
_chemical_formula_sum              "Cd4 H36 C44 N12 O16"
_cell_length_a       8.810575501727373
_cell_length_b       10.332357354586572
_cell_length_c       13.30610001938233
_cell_angle_alpha    89.99914930777972
_cell_angle_beta     89.99981714021044
_cell_angle_gamma    93.57613090105544

_space_group_name_H-M_alt    "P 1"
_space_group_IT_number       1

loop_
  _space_group_symop_operation_xyz
  'x, y, z'

loop_
  _atom_site_type_symbol
  _atom_site_label
  _atom_site_symmetry_multiplicity
  _atom_site_fract_x
  _atom_site_fract_y
  _atom_site_fract_z
  _atom_site_occupancy
  Cd  Cd1       1.0  0.5136252752709182  0.8605989126620273  0.9126277238649934  1.0000
  Cd  Cd2       1.0  0.9863756594225703  0.6394033094550197  0.41261501842117815  1.0000
  Cd  Cd3       1.0  0.486383780407145  0.1394082575973812  0.0873909366979717  1.0000
  Cd  Cd4       1.0  0.013607147123821094  0.3606029200168237  0.5873901145437301  1.0000
  H   H1        1.0  0.145908529647329  0.9223850913642268  0.3622636150804297  1.0000
  H   H2        1.0  0.35410445937590396  0.5776158985886966  0.8622744484379083  1.0000
  H   H3        1.0  0.8540836386915129  0.07760520496704969  0.6377197234533868  1.0000
  H   H4        1.0  0.6459060918088324  0.4223941348294034  0.1377201629864189  1.0000
  H   H5        1.0  0.3225416828237753  0.0949356435430744  0.44136134716490016  1.0000
  H   H6        1.0  0.1774742313405396  0.4050687065949957  0.941375452699333  1.0000
  H   H7        1.0  0.6774574763012635  0.905065092271265  0.558637773535672  1.0000
  H   H8        1.0  0.8225240767288112  0.5949252479121299  0.058627425716999  1.0000
  H   H9        1.0  0.41002652895610225  0.06132676331370129  0.6182066622129554  1.0000
  H   H10       1.0  0.08997886330489277  0.43869202474646574  0.11822656344788382  1.0000
  H   H11       1.0  0.5899532502892129  0.9386825025721774  0.38178118543195444  1.0000
  H   H12       1.0  0.9100323687319045  0.5613053281287889  0.8817778180054034  1.0000
  H   H13       1.0  0.762420827606782  0.8555005782517641  0.10256895851324539  1.0000
  H   H14       1.0  0.7375752641227749  0.6444893288782368  0.6025597017211268  1.0000
  H   H15       1.0  0.23757106102371486  0.1444965425158813  0.89743166528595  1.0000
  H   H16       1.0  0.26241165195198585  0.3554953282187725  0.3974273945261899  1.0000
  H   H17       1.0  0.07351469772586229  0.8486586978492595  0.07847773843356262  1.0000
  H   H18       1.0  0.4264831035036849  0.6513298657564804  0.5784777886511492  1.0000
  H   H19       1.0  0.9264909173404019  0.15133010961147167  0.9215221338655866  1.0000
  H   H20       1.0  0.5734975511857455  0.34865016418211786  0.4215138168397631  1.0000
  H   H21       1.0  0.8117879121359265  0.7504949481533104  0.7344361123228894  1.0000
  H   H22       1.0  0.6882037101120274  0.7495178894292067  0.234446013859845  1.0000
  H   H23       1.0  0.18821294910773637  0.24951935029697128  0.2655532383411199  1.0000
  H   H24       1.0  0.3117937590011053  0.25049653888907397  0.7655561129019831  1.0000
  H   H25       1.0  0.9646241410144896  0.8712157635646562  0.7254746961082432  1.0000
  H   H26       1.0  0.5353786025743118  0.62879487431929  0.22547805936202542  1.0000
  H   H27       1.0  0.0353769633579688  0.1288004723128324  0.2745229214292308  1.0000
  H   H28       1.0  0.4646259303876406  0.37121246946801983  0.7745188066892299  1.0000
  H   H29       1.0  0.7727801686448783  0.9166910378494463  0.7417213068835693  1.0000
  H   H30       1.0  0.7272196013822664  0.5833145327815644  0.2417300770216926  1.0000
  H   H31       1.0  0.22721895401154765  0.0833184601583881  0.2582687953454226  1.0000
  H   H32       1.0  0.27278291334440036  0.4166948351789729  0.7582660374847023  1.0000
  H   H33       1.0  0.11316870902322047  0.8537826325144025  0.8842945479970581  1.0000
  H   H34       1.0  0.38682726330431894  0.6462283179144207  0.3842879762282791  1.0000
  H   H35       1.0  0.8868291613228649  0.14622593996277541  0.1157068272637787  1.0000
  H   H36       1.0  0.6131643822263229  0.3537668655120783  0.6156953622773358  1.0000
  C   C1        1.0  0.18333501911759942  0.9151164426376183  0.43997985520995536  1.0000
  C   C2        1.0  0.31666762312926977  0.5848951223035215  0.939989927321406  1.0000
  C   C3        1.0  0.816653963755719  0.0848846831966981  0.5600140047535618  1.0000
  C   C4        1.0  0.6833515237686355  0.4151019272188706  0.0600189633357076  1.0000
  C   C5        1.0  0.2820408378874149  0.0095859205990223  0.48393559656441454  1.0000
  C   C6        1.0  0.21796737449670897  0.4904217952718355  0.9839478652234916  1.0000
  C   C7        1.0  0.7179486312603841  0.9904190801399223  0.5160695364009626  1.0000
  C   C8        1.0  0.7820504350445032  0.509564597959823  0.0160617770326184  1.0000
  C   C9        1.0  0.33018346908449564  0.9909524748678323  0.582117828612887  1.0000
  C   C10       1.0  0.16982364606351297  0.5090561030017398  0.0821275879338543  1.0000
  C   C11       1.0  0.6698039818280107  0.0090545500443326  0.41788655280763015  1.0000
  C   C12       1.0  0.8301910145459033  0.4909323577331222  0.9178813027782837  1.0000
  C   C13       1.0  0.2793351765197087  0.8785655151980974  0.6343614968332787  1.0000
  C   C14       1.0  0.22068844224007475  0.6214404468530786  0.1343660743641237  1.0000
  C   C15       1.0  0.7206768700559394  0.12144738103442879  0.36564513913285884  1.0000
  C   C16       1.0  0.77932056488919  0.3785482305388328  0.8656420648174574  1.0000
  C   C17       1.0  0.1792274856067948  0.7885556070655043  0.585185433912514  1.0000
  C   C18       1.0  0.32077981652600573  0.7114636119067512  0.0851910051764264  1.0000
  C   C19       1.0  0.8207832722284818  0.21146512594461336  0.41481143205374593  1.0000
  C   C20       1.0  0.6792164732960018  0.2885323667377336  0.9148148793700843  1.0000
  C   C21       1.0  0.34125013635107837  0.8601821267378965  0.7384671778104277  1.0000
  C   C22       1.0  0.15876404840863498  0.6398153703642463  0.2384656523909783  1.0000
  C   C23       1.0  0.6587522567665829  0.13982627237634657  0.261538706656907  1.0000
  C   C24       1.0  0.8412382110656437  0.3601648049789787  0.7615342199623073  1.0000
  C   C25       1.0  0.12465214798683627  0.6615711159582033  0.6351648167233606  1.0000
  C   C26       1.0  0.37535963582697457  0.8384401511035762  0.13517479704953672  1.0000
  C   C27       1.0  0.8753529928537843  0.33844107156566844  0.3648350554388458  1.0000
  C   C28       1.0  0.6246445688537248  0.1615555241808764  0.864836348235805  1.0000
  C   C29       1.0  0.8290219771736529  0.84784829966285  0.0346993124498525  1.0000
  C   C30       1.0  0.670976361676132  0.6521301790594051  0.5346946098404572  1.0000
  C   C31       1.0  0.1709827868537985  0.1521337265408746  0.9652990568200011  1.0000
  C   C32       1.0  0.32901067595700073  0.3478554467332771  0.4652984986811219  1.0000
  C   C33       1.0  0.9835166178344251  0.8459082278474381  0.023214209421730903  1.0000
  C   C34       1.0  0.516478122965857  0.6540774246414642  0.5232135544843644  1.0000
  C   C35       1.0  0.016483380254065597  0.1540720341772541  0.9767834083283091  1.0000
  C   C36       1.0  0.4835051213399737  0.345914186967903  0.4767818086109017  1.0000
  C   C37       1.0  0.87436155914488  0.8448460440742026  0.8726803593431498  1.0000
  C   C38       1.0  0.625626464743739  0.6551516045022225  0.37268022378664517  1.0000
  C   C39       1.0  0.12563772155782257  0.1551556604931861  0.1273187613515958  1.0000
  C   C40       1.0  0.37436114428015077  0.34484762716314776  0.6273128846543798  1.0000
  C   C41       1.0  0.855423293762783  0.8458940818428076  0.7620671951005846  1.0000
  C   C42       1.0  0.6445801025357266  0.6541138767758028  0.2620700395792426  1.0000
  C   C43       1.0  0.1445793425367299  0.15411625485643302  0.23793042247001492  1.0000
  C   C44       1.0  0.3554225337686034  0.34589645993777657  0.737926074921333  1.0000
  N   N1        1.0  0.13335038893229265  0.8082623791297148  0.48987794927164435  1.0000
  N   N2        1.0  0.3666433373547378  0.6917612172383938  0.989881403252653  1.0000
  N   N3        1.0  0.866636332533538  0.19173883332152286  0.5101204199036999  1.0000
  N   N4        1.0  0.6333678581700397  0.30824489770125746  0.0101274873592274  1.0000
  N   N5        1.0  0.7622192208435334  0.846583749242178  0.9405418193944045  1.0000
  N   N6        1.0  0.7377793097803287  0.6534092645326054  0.4405399741307932  1.0000
  N   N7        1.0  0.23778300213801623  0.15340518822281976  0.059456549837392514  1.0000
  N   N8        1.0  0.26221064570946595  0.3465996113117811  0.5594553888562004  1.0000
  N   N9        1.0  0.009517584102283608  0.8430519268725761  0.9210237349810628  1.0000
  N   N10       1.0  0.49047758112040885  0.6569447166292762  0.421018330337013  1.0000
  N   N11       1.0  0.9904844807919985  0.156944803910946  0.0789783918801419  1.0000
  N   N12       1.0  0.5095088121485674  0.34304482757013227  0.5789680143471045  1.0000
  O   O1        1.0  0.47041381725573916  0.8116945199438843  0.7446336767813477  1.0000
  O   O2        1.0  0.029607039161106685  0.6883201238336624  0.2446175636480774  1.0000
  O   O3        1.0  0.529588174609678  0.188319734954085  0.2553789714670529  1.0000
  O   O4        1.0  0.9704118280887497  0.31168375030440393  0.7553898238991934  1.0000
  O   O5        1.0  0.27220035719116703  0.9069863405396034  0.8125382631262213  1.0000
  O   O6        1.0  0.22778544949607488  0.5930137321713858  0.31254917265953003  1.0000
  O   O7        1.0  0.7278018778633422  0.09302985196487872  0.1874638636204153  1.0000
  O   O8        1.0  0.7721931383393326  0.40694982886494563  0.6874529544204009  1.0000
  O   O9        1.0  0.03619621427840508  0.5853090393362166  0.5809045268630727  1.0000
  O   O10       1.0  0.46382762592937604  0.9146969741792929  0.080920195417221  1.0000
  O   O11       1.0  0.9638066651764275  0.41470323486912264  0.41909309069588835  1.0000
  O   O12       1.0  0.5361855027264608  0.08529738565493258  0.9190969621468954  1.0000
  O   O13       1.0  0.16882192720984784  0.6393045605249481  0.7219807240696385  1.0000
  O   O14       1.0  0.33119571889800875  0.8607018832317265  0.2219935382478582  1.0000
  O   O15       1.0  0.8311912135936976  0.3607170545710971  0.27801689342403085  1.0000
  O   O16       1.0  0.6688254827206777  0.1392843799741499  0.7780198616806332  1.0000
