data_image0
_chemical_formula_structural       Cd2H56C64N8O8
_chemical_formula_sum              "Cd2 H56 C64 N8 O8"
_cell_length_a       10.893823004609184
_cell_length_b       11.155386995531265
_cell_length_c       13.511
_cell_angle_alpha    84.18990759528583
_cell_angle_beta     78.03442742928347
_cell_angle_gamma    60.77273387292529

_space_group_name_H-M_alt    "P 1"
_space_group_IT_number       1

loop_
  _space_group_symop_operation_xyz
  'x, y, z'

loop_
  _atom_site_type_symbol
  _atom_site_label
  _atom_site_symmetry_multiplicity
  _atom_site_fract_x
  _atom_site_fract_y
  _atom_site_fract_z
  _atom_site_occupancy
  Cd  Cd1       1.0  0.7779364771218198  0.44415351362557237  0.2499488729324213  1.0000
  Cd  Cd2       1.0  0.22206044617838216  0.5558482734988033  0.7500524541878377  1.0000
  H   H1        1.0  0.7038924687893342  0.3997373405021847  0.5007571223407296  1.0000
  H   H2        1.0  0.8962579267708862  0.4000239295933312  0.9990355144957662  1.0000
  H   H3        1.0  0.2961110228859596  0.6002644466221909  0.4992431067850447  1.0000
  H   H4        1.0  0.10374129794819  0.5999788847320816  0.0009675624680269982  1.0000
  H   H5        1.0  0.7364191462936133  0.4533202557382765  0.6672553029900997  1.0000
  H   H6        1.0  0.809911881084034  0.4536427968659495  0.8326300898720476  1.0000
  H   H7        1.0  0.26358622206027604  0.5466815313860991  0.33274387228529884  1.0000
  H   H8        1.0  0.19008861785585654  0.5463630990625958  0.16737325665913258  1.0000
  H   H9        1.0  0.8297111961854211  0.6213313128244948  0.6680549638740986  1.0000
  H   H10       1.0  0.5485146387375011  0.6216179019156485  0.8320112103662041  1.0000
  H   H11       1.0  0.1702961377058188  0.3786684198977923  0.331941834132749  1.0000
  H   H12       1.0  0.4514832229019987  0.3783838852087271  0.167990700035368  1.0000
  H   H13       1.0  0.9079471835583133  0.7802619126856811  0.5729593706315157  1.0000
  H   H14       1.0  0.3114891925526991  0.7803440887691622  0.9272327327827056  1.0000
  H   H15       1.0  0.09205485617864893  0.2197409016397387  0.4270373146618809  1.0000
  H   H16       1.0  0.6885117506809522  0.21965153514894814  0.0727699177589471  1.0000
  H   H17       1.0  0.9464420803441275  0.8946992993452056  0.4097505661144325  1.0000
  H   H18       1.0  0.15866351833111733  0.8945914432356262  0.09053208270523781  1.0000
  H   H19       1.0  0.05355714437494903  0.1053035149802142  0.590245109472697  1.0000
  H   H20       1.0  0.841336575421991  0.10540212628039572  0.9094701414122639  1.0000
  H   H21       1.0  0.9442105057823655  0.9226679293591644  0.22278037827712885  1.0000
  H   H22       1.0  0.1331460659897915  0.9225395292287217  0.27748799353933146  1.0000
  H   H23       1.0  0.0557859039188102  0.0773348849662554  0.7772172481544004  1.0000
  H   H24       1.0  0.8668510350279207  0.0774581490914841  0.7225136472952514  1.0000
  H   H25       1.0  0.9211782518473371  0.8374585211930068  0.06535343148937052  1.0000
  H   H26       1.0  0.24172708224171674  0.8374729020076117  0.4347952344047457  1.0000
  H   H27       1.0  0.07882200006978482  0.1625422387303246  0.9346437243738991  1.0000
  H   H28       1.0  0.7582730808166571  0.1625299123178081  0.5652062054273586  1.0000
  H   H29       1.0  0.859845686720945  0.6480108055287985  0.08043607622094844  1.0000
  H   H30       1.0  0.4926115034971374  0.6482080281291616  0.4195363682477193  1.0000
  H   H31       1.0  0.1401551676539583  0.3519868727914073  0.9195604963622158  1.0000
  H   H32       1.0  0.5073885707024816  0.35179684059834676  0.5804656548648879  1.0000
  H   H33       1.0  0.2888916309380106  0.2151215785468636  0.2095471805261084  1.0000
  H   H34       1.0  0.4955801257027446  0.2153270187555734  0.29049542279141594  1.0000
  H   H35       1.0  0.711103929282622  0.7848791813764677  0.7904514997565998  1.0000
  H   H36       1.0  0.5044255980861581  0.7846665507604484  0.709504379912616  1.0000
  H   H37       1.0  0.2561795453201015  0.0748069431980625  0.22683797850073253  1.0000
  H   H38       1.0  0.6686491483672299  0.0750770970725156  0.2729990102142281  1.0000
  H   H39       1.0  0.743814562962207  0.9251948439263131  0.7731645593262612  1.0000
  H   H40       1.0  0.33135597296389113  0.9249195540466388  0.727001375769909  1.0000
  H   H41       1.0  0.2943170972027431  0.21724788470702802  0.02462934502364081  1.0000
  H   H42       1.0  0.48851232051659116  0.21718727984545444  0.47539826057843726  1.0000
  H   H43       1.0  0.7056777023960947  0.7827487664121336  0.9753712861050801  1.0000
  H   H44       1.0  0.5114932255548084  0.7828103984747443  0.524602708686615  1.0000
  H   H45       1.0  0.2521905461805858  0.0825653926800456  0.03756389926536492  1.0000
  H   H46       1.0  0.6653292581532071  0.0824975974111695  0.46217659423331986  1.0000
  H   H47       1.0  0.747805191757557  0.917431258439116  0.9624373151446691  1.0000
  H   H48       1.0  0.33467765099776164  0.9175011081100736  0.5378225810432794  1.0000
  H   H49       1.0  0.48160604703608106  0.9268743176325316  0.1000563106856305  1.0000
  H   H50       1.0  0.5913429423905471  0.92692875928784  0.39987588401758245  1.0000
  H   H51       1.0  0.518392505919948  0.07312233348663  0.8999422127423388  1.0000
  H   H52       1.0  0.40866354202014316  0.07306891903236591  0.6001227079781158  1.0000
  H   H53       1.0  0.5253539774214104  0.06098595315700811  0.0858435156592137  1.0000
  H   H54       1.0  0.4134765150389867  0.06105580282796551  0.41426346703489975  1.0000
  H   H55       1.0  0.4746407333186794  0.9390127523642421  0.9141547381993504  1.0000
  H   H56       1.0  0.5865285174333863  0.9389429026932774  0.5857360219544105  1.0000
  C   C1        1.0  0.7432720615942401  0.4714298101361791  0.5056404443479537  1.0000
  C   C2        1.0  0.7851712765530152  0.4716896920001973  0.9942338163739352  1.0000
  C   C3        1.0  0.2567286150631602  0.5285719769881965  0.4943602553468907  1.0000
  C   C4        1.0  0.21482794816605374  0.5283131223252227  0.005769260589850924  1.0000
  C   C5        1.0  0.7614992288219329  0.5028231284293625  0.5981762506654533  1.0000
  C   C6        1.0  0.7354290760830934  0.5030789014892036  0.9017527368496445  1.0000
  C   C7        1.0  0.23850374925433476  0.4971796858960574  0.4018232383222511  1.0000
  C   C8        1.0  0.2645730525126241  0.4969218584341277  0.09824780598924579  1.0000
  C   C9        1.0  0.8114507744034894  0.5950565373313594  0.5987998069841679  1.0000
  C   C10       1.0  0.5932151631275888  0.5952938207724259  0.9012117736124452  1.0000
  C   C11       1.0  0.1885532308708305  0.40494422259197194  0.4011989418666815  1.0000
  C   C12       1.0  0.4067908076840824  0.4047048847488242  0.09878829865817812  1.0000
  C   C13       1.0  0.8412521893950216  0.6570101138713937  0.5069664315949609  1.0000
  C   C14       1.0  0.5015488012346979  0.6571549492185369  0.993103174108704  1.0000
  C   C15       1.0  0.15874661058378337  0.3429916732529819  0.49303162126192746  1.0000
  C   C16       1.0  0.4984519642814505  0.3428447835037503  0.006900642993954923  1.0000
  C   C17       1.0  0.8891785628959141  0.7565274053732551  0.5027094040421645  1.0000
  C   C18       1.0  0.35406137217387373  0.7565952006421314  0.9974686647532494  1.0000
  C   C19       1.0  0.11082535351964405  0.2434754089521576  0.4972869675385212  1.0000
  C   C20       1.0  0.6459371807821627  0.24340145047702322  0.0025350396383742937  1.0000
  C   C21       1.0  0.912370181416648  0.8170305740397907  0.41284823412046023  1.0000
  C   C22       1.0  0.2704327986696313  0.8169925676011829  0.08737792071658389  1.0000
  C   C23       1.0  0.08762665302479891  0.1829732674866733  0.5871477551789893  1.0000
  C   C24       1.0  0.7295658431451529  0.1830020291158903  0.9126244602568718  1.0000
  C   C25       1.0  0.8947943397591022  0.7795058927176228  0.3205487504941614  1.0000
  C   C26       1.0  0.3256905867735895  0.7794740494852732  0.17960768329967888  1.0000
  C   C27       1.0  0.10520104274402087  0.2204989760098854  0.679447395661235  1.0000
  C   C28       1.0  0.6743083909227182  0.2205236288349326  0.820395124097523  1.0000
  C   C29       1.0  0.9172847309581513  0.8399289397027588  0.22613086652755507  1.0000
  C   C30       1.0  0.24286277212585358  0.8398631988359712  0.2740547770278496  1.0000
  C   C31       1.0  0.08271219234205061  0.1600728474216169  0.7738660197667144  1.0000
  C   C32       1.0  0.7571375686500234  0.1601355066852719  0.7259484567939083  1.0000
  C   C33       1.0  0.9034582866823089  0.794685869739304  0.13969830595011962  1.0000
  C   C34       1.0  0.3021016402955113  0.7947259305800003  0.3604257734884868  1.0000
  C   C35       1.0  0.0965399108387146  0.2053189989882043  0.860298849911544  1.0000
  C   C36       1.0  0.6978974955648027  0.2052789381475009  0.6395771466181444  1.0000
  C   C37       1.0  0.8670056622859333  0.6886663956317278  0.14786020577191292  1.0000
  C   C38       1.0  0.444644390074423  0.6888122581799152  0.3521573956270245  1.0000
  C   C39       1.0  0.13299356243313545  0.31133641869369205  0.8521376902282185  1.0000
  C   C40       1.0  0.5553556841251891  0.3111926105475932  0.6478453676232476  1.0000
  C   C41       1.0  0.8528105095119259  0.6767118298868127  0.3215557485473113  1.0000
  C   C42       1.0  0.47052462113825294  0.6767960603723893  0.17849207255266464  1.0000
  C   C43       1.0  0.14718520887272044  0.3232961204438212  0.6784415641694963  1.0000
  C   C44       1.0  0.529474781298326  0.3232026451488608  0.8215105779877803  1.0000
  C   C45       1.0  0.821088373231305  0.6175337505664658  0.41727290307157017  1.0000
  C   C46       1.0  0.5613168157429625  0.6176816675167416  0.0827469621312602  1.0000
  C   C47       1.0  0.1789079476111155  0.3824711181610354  0.5827253066404694  1.0000
  C   C48       1.0  0.4386816483543186  0.3823170380045013  0.9172573255408736  1.0000
  C   C49       1.0  0.0779421005553331  0.264477561488718  0.1938010096651226  1.0000
  C   C50       1.0  0.657206886252027  0.2646994369141282  0.3061821035478829  1.0000
  C   C51       1.0  0.9220549116036167  0.7355221712335691  0.8061952933486438  1.0000
  C   C52       1.0  0.3427953312024457  0.7352992686071147  0.6938185961481692  1.0000
  C   C53       1.0  0.23840799526169576  0.1655077681430726  0.17873728861049193  1.0000
  C   C54       1.0  0.5957618084996881  0.1657039635423914  0.32119802328293906  1.0000
  C   C55       1.0  0.761587742676447  0.834488882976082  0.8212639257995349  1.0000
  C   C56       1.0  0.4042428880911615  0.8342916603757189  0.6788010392826251  1.0000
  C   C57       1.0  0.308716290406828  0.1246046225886488  0.0691581443208236  1.0000
  C   C58       1.0  0.5666381269427133  0.12460359538760461  0.4307643759903073  1.0000
  C   C59       1.0  0.6912775708527121  0.8753920285305128  0.930843383801921  1.0000
  C   C60       1.0  0.4333661449078648  0.8753910013294686  0.569234103294356  1.0000
  C   C61       1.0  0.4668951810064074  0.0198270345427289  0.05531890125458008  1.0000
  C   C62       1.0  0.513174352421963  0.0198640137802997  0.4446723478978285  1.0000
  C   C63       1.0  0.5331020088700525  0.9801685893753813  0.9446806760241628  1.0000
  C   C64       1.0  0.48682991942861514  0.9801305829367736  0.5553298320751523  1.0000
  N   N1        1.0  0.7727761913338258  0.5261878433661025  0.4180974394101113  1.0000
  N   N2        1.0  0.701002108276306  0.5263840387654213  0.08180506995837797  1.0000
  N   N3        1.0  0.22722064310762852  0.4738159981603616  0.5819022505776559  1.0000
  N   N4        1.0  0.2989991708388688  0.4736146667558216  0.9181972668693561  1.0000
  N   N5        1.0  0.8409819596903602  0.6327014011756305  0.2357860302513473  1.0000
  N   N6        1.0  0.5265265167824469  0.6328667805436368  0.2641952213891656  1.0000
  N   N7        1.0  0.15901308693124613  0.3673003859487451  0.7642141303062999  1.0000
  N   N8        1.0  0.47347424873370164  0.3671329521786504  0.7358085957134932  1.0000
  O   O1        1.0  0.022542854435329204  0.3310936035654635  0.1189541443832027  1.0000
  O   O2        1.0  0.6461858108709607  0.3311120931842453  0.3810746625418204  1.0000
  O   O3        1.0  0.977460973121481  0.6689112651620448  0.8810413302026561  1.0000
  O   O4        1.0  0.3538159818432405  0.6688855851359534  0.6189269341486465  1.0000
  O   O5        1.0  0.006387392034810125  0.2763715223720666  0.28397037614166715  1.0000
  O   O6        1.0  0.7166711841041292  0.2768080828155774  0.21600098407252227  1.0000
  O   O7        1.0  0.9936037430655915  0.7236230743450065  0.716024378030646  1.0000
  O   O8        1.0  0.28332864307272143  0.7231916499067097  0.7839992891981638  1.0000
