data_image0
_chemical_formula_structural       Cd2H20C30N24
_chemical_formula_sum              "Cd2 H20 C30 N24"
_cell_length_a       7.424807706099456
_cell_length_b       8.091527995909697
_cell_length_c       15.596418823983008
_cell_angle_alpha    74.70041947840546
_cell_angle_beta     76.72559158488966
_cell_angle_gamma    76.47861419519819

_space_group_name_H-M_alt    "P 1"
_space_group_IT_number       1

loop_
  _space_group_symop_operation_xyz
  'x, y, z'

loop_
  _atom_site_type_symbol
  _atom_site_label
  _atom_site_symmetry_multiplicity
  _atom_site_fract_x
  _atom_site_fract_y
  _atom_site_fract_z
  _atom_site_occupancy
  Cd  Cd1       1.0  0.7596044736245774  0.19771760962557747  0.2053588123801404  1.0000
  Cd  Cd2       1.0  0.2403848575449957  0.8022854475369596  0.7946474122885477  1.0000
  H   H1        1.0  0.3947167586024706  0.29811745356632  0.10135545046989591  1.0000
  H   H2        1.0  0.6052636493842486  0.7018894887037278  0.8986472944716938  1.0000
  H   H3        1.0  0.12420757300827041  0.5431536413891818  0.07091149216820726  1.0000
  H   H4        1.0  0.8757869658414706  0.45686017684008806  0.9290819299612494  1.0000
  H   H5        1.0  0.11321992018257282  0.8248302884964434  0.11553923224083461  1.0000
  H   H6        1.0  0.8867884785956904  0.17518374222336058  0.8844515271631224  1.0000
  H   H7        1.0  0.37503579861561326  0.8471775898784769  0.18534166800342433  1.0000
  H   H8        1.0  0.6249680584605528  0.15282454676599852  0.81465427833934  1.0000
  H   H9        1.0  0.6661566704280589  0.7112070707576663  0.24597439259423481  1.0000
  H   H10       1.0  0.33383825340448686  0.2887975197195871  0.7540240326672389  1.0000
  H   H11       1.0  0.18599936114036109  0.5551807044461866  0.3247789750308742  1.0000
  H   H12       1.0  0.814004372567027  0.4448082899018431  0.6752218883803637  1.0000
  H   H13       1.0  0.46073898204845426  0.3613880277933319  0.5450884017026567  1.0000
  H   H14       1.0  0.5392814350808878  0.6386012442683794  0.45490823220969645  1.0000
  H   H15       1.0  0.23359211849182063  0.15255565286436476  0.6147128996037099  1.0000
  H   H16       1.0  0.766440536934347  0.8474220454451427  0.38528275257053224  1.0000
  H   H17       1.0  0.6972710243151142  0.21863878605870468  0.40206375701362873  1.0000
  H   H18       1.0  0.30273922551653953  0.7813646466522355  0.5979358879961013  1.0000
  H   H19       1.0  0.8338663368077092  0.15273161470984317  0.488304116980018  1.0000
  H   H20       1.0  0.1661576086557091  0.8472668409071107  0.5116916275670179  1.0000
  C   C1        1.0  0.11937624516198041  0.20266819425901864  0.038507935832186015  1.0000
  C   C2        1.0  0.8806018610787805  0.797349147175808  0.9614949730011162  1.0000
  C   C3        1.0  0.2870070166724119  0.047137107900717  0.9323665810255974  1.0000
  C   C4        1.0  0.712967637689701  0.9528682300388737  0.0676471952865967  1.0000
  C   C5        1.0  0.12500190342725406  0.9966245326013449  0.3082059305802504  1.0000
  C   C6        1.0  0.8750129733529803  0.0033660828982533964  0.6917859390550306  1.0000
  C   C7        1.0  0.39533509462176414  0.0450971746047628  0.3400717150297083  1.0000
  C   C8        1.0  0.6046655547184656  0.9548865223261628  0.6599314165957467  1.0000
  C   C9        1.0  0.38307754369797203  0.4219451370443323  0.11968052457928023  1.0000
  C   C10       1.0  0.6169047066064836  0.5780591741319228  0.8803243047697367  1.0000
  C   C11       1.0  0.23334012540175314  0.5595832034831218  0.10235261068218902  1.0000
  C   C12       1.0  0.7666498207571381  0.4404252421080199  0.897645802226208  1.0000
  C   C13       1.0  0.22885119154160802  0.7148596655532912  0.12635463998047677  1.0000
  C   C14       1.0  0.7711470963282637  0.2851489188946913  0.8736416581784782  1.0000
  C   C15       1.0  0.37292680229744246  0.727549686701785  0.16640313332000997  1.0000
  C   C16       1.0  0.6270702757153188  0.2724509834384462  0.8335968710679182  1.0000
  C   C17       1.0  0.5157479478883431  0.5821115525391747  0.18392238512996073  1.0000
  C   C18       1.0  0.4842425985388559  0.4178863334472709  0.8160824648075151  1.0000
  C   C19       1.0  0.6586363875345146  0.5864292508136584  0.23318931428851647  1.0000
  C   C20       1.0  0.3413631377245352  0.413572745386652  0.7668109213923557  1.0000
  C   C21       1.0  0.9190404702264274  0.3452195410908843  0.3840800732985273  1.0000
  C   C22       1.0  0.08097360307077392  0.6547801175197918  0.6159151963095512  1.0000
  C   C23       1.0  0.0739929688035943  0.3490510359059087  0.4283993155844996  1.0000
  C   C24       1.0  0.9260179235494662  0.650943282678206  0.571600161415823  1.0000
  C   C25       1.0  0.19992211443375407  0.46465414927077836  0.3895089356551367  1.0000
  C   C26       1.0  0.8000848545416519  0.5353387822353852  0.6104923862242942  1.0000
  C   C27       1.0  0.3498889883293756  0.35701278408474485  0.5105429789956375  1.0000
  C   C28       1.0  0.6501271935598256  0.6429763901422517  0.48945600507678927  1.0000
  C   C29       1.0  0.22429718682108302  0.24196811270605414  0.5493424031821448  1.0000
  C   C30       1.0  0.7757199628479087  0.7580172079943852  0.4506544186546861  1.0000
  N   N1        1.0  0.9891541325979818  0.28052069586868805  0.08018117825971416  1.0000
  N   N2        1.0  0.010808147287470158  0.7195135241153706  0.919816604318804  1.0000
  N   N3        1.0  0.2730290048337808  0.12365765738987018  0.9970497913149005  1.0000
  N   N4        1.0  0.7269429272721339  0.8763621746945844  0.002955322449082606  1.0000
  N   N5        1.0  0.31805751880630584  0.9765267934645009  0.8718220247404673  1.0000
  N   N6        1.0  0.6819244337718402  0.023457754556069705  0.1281924425856289  1.0000
  N   N7        1.0  0.0022931721291997026  0.009762800985669192  0.2689026958875189  1.0000
  N   N8        1.0  0.9977115051610287  0.9902419609599986  0.7310928312378168  1.0000
  N   N9        1.0  0.2554288455290674  0.9658040293641361  0.35566501836768805  1.0000
  N   N10       1.0  0.7445730780529162  0.03418761028083849  0.6443331142434374  1.0000
  N   N11       1.0  0.5286427855847933  0.10638078622299219  0.3345739831115324  1.0000
  N   N12       1.0  0.47134967087992413  0.8936196156447307  0.6654361281485992  1.0000
  N   N13       1.0  0.5198207199561793  0.4322500368322294  0.15976552168671532  1.0000
  N   N14       1.0  0.48016148476004616  0.5677477102973825  0.8402414430001955  1.0000
  N   N15       1.0  0.7690727762207957  0.4447995015905661  0.2646366736149447  1.0000
  N   N16       1.0  0.2309345636012239  0.5552052545625089  0.7353605187003966  1.0000
  N   N17       1.0  0.9021709123844206  0.46020963804389226  0.30753761726578693  1.0000
  N   N18       1.0  0.09783984246367793  0.5397925906427047  0.6924576441069022  1.0000
  N   N19       1.0  0.0869220838639109  0.23676161708365837  0.508309514433023  1.0000
  N   N20       1.0  0.9130928472402078  0.7632275955475124  0.4916870210627096  1.0000
  N   N21       1.0  0.3385479290617042  0.46836953317011887  0.43021539184763924  1.0000
  N   N22       1.0  0.6614588568205235  0.5316247443918769  0.569783849742052  1.0000
  N   N23       1.0  0.8059695814486718  0.23084506881844646  0.4280911274383286  1.0000
  N   N24       1.0  0.1940494695221773  0.7691507346783408  0.5719041545228194  1.0000
