data_image0
_chemical_formula_structural       Ag4H16C16S2N12O14
_chemical_formula_sum              "Ag4 H16 C16 S2 N12 O14"
_cell_length_a       7.591574592928801
_cell_length_b       8.71750683516318
_cell_length_c       12.371020955482297
_cell_angle_alpha    69.38090136723169
_cell_angle_beta     84.13740897028485
_cell_angle_gamma    73.10226088919907

_space_group_name_H-M_alt    "P 1"
_space_group_IT_number       1

loop_
  _space_group_symop_operation_xyz
  'x, y, z'

loop_
  _atom_site_type_symbol
  _atom_site_label
  _atom_site_symmetry_multiplicity
  _atom_site_fract_x
  _atom_site_fract_y
  _atom_site_fract_z
  _atom_site_occupancy
  Ag  Ag1       1.0  0.6097945000518122  0.36570786859338267  0.3551307058523676  1.0000
  Ag  Ag2       1.0  0.11007124998813803  0.720961024433322  0.6446992073478057  1.0000
  Ag  Ag3       1.0  0.28217116962458266  0.01628837377091937  0.9882453796472532  1.0000
  Ag  Ag4       1.0  0.7819552438586257  0.0042417206650356  0.01180833034695891  1.0000
  H   H1        1.0  0.2202465594681867  0.9733887733822757  0.25067651789533574  1.0000
  H   H2        1.0  0.7206239747965527  0.22423469694623313  0.7494793166332415  1.0000
  H   H3        1.0  0.9605335131065756  0.33924344571301646  0.9499449519755815  1.0000
  H   H4        1.0  0.4606491588626582  0.28942486993333466  0.0500756215516063  1.0000
  H   H5        1.0  0.7106125815979069  0.46710865165898957  0.0700989142839248  1.0000
  H   H6        1.0  0.21113411455181097  0.5376921892755105  0.9297978360056122  1.0000
  H   H7        1.0  0.24097666331081766  0.2886632398658904  0.32869000234343565  1.0000
  H   H8        1.0  0.740795748882242  0.617332536773347  0.6713595838345726  1.0000
  H   H9        1.0  0.6392408571520248  0.049399211288694365  0.5885998783803643  1.0000
  H   H10       1.0  0.13932297371780317  0.637841117778798  0.41175763320051584  1.0000
  H   H11       1.0  0.4673102560822641  0.8318550713669953  0.6877875237960893  1.0000
  H   H12       1.0  0.9673313920624906  0.5199916681451882  0.31217088008686733  1.0000
  H   H13       1.0  0.4403097360603779  0.7076368277820039  0.2364844274176505  1.0000
  H   H14       1.0  0.94056610722874  0.9444137603885778  0.763492325986448  1.0000
  H   H15       1.0  0.3017774965856928  0.6109149413951441  0.2190385007194565  1.0000
  H   H16       1.0  0.8021264937736701  0.8302049627136938  0.7808604048016505  1.0000
  C   C1        1.0  0.9783715462250555  0.16522380051208777  0.27538059603472226  1.0000
  C   C2        1.0  0.4786359789931821  0.4405749044556729  0.724653272944373  1.0000
  C   C3        1.0  0.1110748856085024  0.08780289517113002  0.20981781494499782  1.0000
  C   C4        1.0  0.6113735877230295  0.2977792776670327  0.7903097977860584  1.0000
  C   C5        1.0  0.9632219352239489  0.287955895660474  0.04398034435449463  1.0000
  C   C6        1.0  0.463459038506045  0.3321511401482338  0.956025987600171  1.0000
  C   C7        1.0  0.8276865351183531  0.3601141174541169  0.11029084048801961  1.0000
  C   C8        1.0  0.32806267465451794  0.47073818177649696  0.8896454153276779  1.0000
  C   C9        1.0  0.19361018670979743  0.06642852080290844  0.467530812014502  1.0000
  C   C10       1.0  0.6935850842792776  0.5338741326560735  0.5324194738215837  1.0000
  C   C11       1.0  0.29054821239504486  0.18685707841461152  0.4096264068298865  1.0000
  C   C12       1.0  0.7903814904315354  0.5964635049101478  0.5904502802463156  1.0000
  C   C13       1.0  0.5113774640696176  0.05520559984565656  0.5523198014527608  1.0000
  C   C14       1.0  0.011430116780893042  0.6074020198578938  0.44791243324159785  1.0000
  C   C15       1.0  0.41586847381140035  0.9347278582548956  0.6077253070405604  1.0000
  C   C16       1.0  0.9159275323106258  0.5425595671892155  0.3923163642995037  1.0000
  S   S1        1.0  0.9727893124390548  0.0776979987050126  0.42745801392381116  1.0000
  S   S2        1.0  0.4730551723356412  0.504444318666124  0.5725669257341437  1.0000
  N   N1        1.0  0.8363708917131306  0.3002051469790247  0.22591581600655536  1.0000
  N   N2        1.0  0.33670741204932136  0.5263276118439251  0.773988597231103  1.0000
  N   N3        1.0  0.10418885284148872  0.15166488805922995  0.09400447574155632  1.0000
  N   N4        1.0  0.6044925706791701  0.24585124024086027  0.9061177015835113  1.0000
  N   N5        1.0  0.2585143340803383  0.9388941200855214  0.5652420929318183  1.0000
  N   N6        1.0  0.7585300790112726  0.5042823872833821  0.43464335235010765  1.0000
  N   N7        1.0  0.4486155601902197  0.18022478021328683  0.4522086028353556  1.0000
  N   N8        1.0  0.948477817435368  0.6323740158328235  0.547981728403208  1.0000
  N   N9        1.0  0.5472846356751544  0.758402490518627  0.9122802213107237  1.0000
  N   N10       1.0  0.04737778891442448  0.6704458577445678  0.08752277629700701  1.0000
  N   N11       1.0  0.07820552736161096  0.17749231944428334  0.7531273654600313  1.0000
  N   N12       1.0  0.5783790653884466  0.9301042591493952  0.2468956980136312  1.0000
  O   O1        1.0  0.663198913582171  0.678781653759472  0.8558110401815854  1.0000
  O   O2        1.0  0.16328881847323362  0.5342944470034112  0.143969226521385  1.0000
  O   O3        1.0  0.519623635224782  0.921024582896159  0.8821510980110362  1.0000
  O   O4        1.0  0.019660053381926293  0.8027755260994952  0.11782911116407042  1.0000
  O   O5        1.0  0.45965771439923486  0.6831729010477333  0.9958053823201851  1.0000
  O   O6        1.0  0.9598800020237089  0.6788716172660402  0.0038660368180388114  1.0000
  O   O7        1.0  0.06530054589799751  0.032329214080981196  0.8267032295197724  1.0000
  O   O8        1.0  0.5661145489097451  0.8580880701124728  0.17340985935768313  1.0000
  O   O9        1.0  0.1489595300186508  0.2683150558927067  0.7859281754533356  1.0000
  O   O10       1.0  0.6493777961958711  0.053542649499064524  0.2142168946466043  1.0000
  O   O11       1.0  0.018887211890799362  0.22488221529575705  0.6523399508819169  1.0000
  O   O12       1.0  0.5182058711489149  0.8772800161776786  0.3474703351795796  1.0000
  O   O13       1.0  0.3712741127337082  0.6224859364107405  0.2775138482669206  1.0000
  O   O14       1.0  0.8716435509050767  0.9001989210692899  0.7224290216393854  1.0000
