data_image0
_chemical_formula_structural       Ag4H36C36N16O16
_chemical_formula_sum              "Ag4 H36 C36 N16 O16"
_cell_length_a       7.467141525
_cell_length_b       10.55256621886526
_cell_length_c       15.062
_cell_angle_alpha    90.0
_cell_angle_beta     90.0
_cell_angle_gamma    104.44285024146556

_space_group_name_H-M_alt    "P 1"
_space_group_IT_number       1

loop_
  _space_group_symop_operation_xyz
  'x, y, z'

loop_
  _atom_site_type_symbol
  _atom_site_label
  _atom_site_symmetry_multiplicity
  _atom_site_fract_x
  _atom_site_fract_y
  _atom_site_fract_z
  _atom_site_occupancy
  Ag  Ag1       1.0  0.7500851626186459  0.791205861715575  0.3454833355464045  1.0000
  Ag  Ag2       1.0  0.749913088950592  0.208793901472319  0.8454833355464044  1.0000
  Ag  Ag3       1.0  0.24991319106463547  0.208793901472319  0.6545166644535952  1.0000
  Ag  Ag4       1.0  0.2500866039332336  0.791205861715575  0.15451799229850136  1.0000
  H   H1        1.0  0.3341566727750802  0.3802889186296596  0.8617195591554887  1.0000
  H   H2        1.0  0.16584243239069  0.6197088874334469  0.3617202230779455  1.0000
  H   H3        1.0  0.6658383126750139  0.6197088874334469  0.13827911299960494  1.0000
  H   H4        1.0  0.8341565706610369  0.3802889186296596  0.6382804408445109  1.0000
  H   H5        1.0  0.413136106675914  0.5711203287470212  0.965873721949279  1.0000
  H   H6        1.0  0.08686066500481358  0.4288784558784826  0.46587372194927906  1.0000
  H   H7        1.0  0.5868592236902259  0.4288784558784826  0.0341256141282713  1.0000
  H   H8        1.0  0.9131410164480087  0.5711193501846239  0.5341269419731773  1.0000
  H   H9        1.0  0.48196272629534326  0.7985812864999744  0.9098692072765926  1.0000
  H   H10       1.0  0.018033700469338484  0.2014165195631321  0.4098692072765927  1.0000
  H   H11       1.0  0.5180362767563835  0.2014165195631321  0.0901294648785012  1.0000
  H   H12       1.0  0.981967980983484  0.7985812864999744  0.5901301288009577  1.0000
  H   H13       1.0  0.4640189478111836  0.8467245992958752  0.7487345638029479  1.0000
  H   H14       1.0  0.035980847186685594  0.153275163892026  0.24873456380294803  1.0000
  H   H15       1.0  0.5359820842731863  0.153275163892026  0.2512647722745953  1.0000
  H   H16       1.0  0.9640201848976846  0.8467245992958752  0.7512647722745951  1.0000
  H   H17       1.0  0.568037230315291  0.6485070002077578  0.5019306864958182  1.0000
  H   H18       1.0  0.9319637401186895  0.3514966772297328  0.0019293586509120996  1.0000
  H   H19       1.0  0.4319644916011782  0.3514947201049381  0.4980693135041817  1.0000
  H   H20       1.0  0.06803932099832366  0.6485050430829631  0.9980706413490876  1.0000
  H   H21       1.0  0.6560265044746957  0.7975626030449448  0.5643181516398881  1.0000
  H   H22       1.0  0.8439734716747864  0.202442052954936  0.0643168237949823  1.0000
  H   H23       1.0  0.34397556235781934  0.2024400958301484  0.4356818483601116  1.0000
  H   H24       1.0  0.15602423264004975  0.7975596673577526  0.9356818483601115  1.0000
  H   H25       1.0  0.4071757158695917  0.79203666119043  0.39850883016863736  1.0000
  H   H26       1.0  0.09282174564322791  0.20796408055986856  0.8985075023237312  1.0000
  H   H27       1.0  0.5928246668463262  0.2079650591222659  0.6014918337538191  1.0000
  H   H28       1.0  0.9071776023245448  0.7920347040656351  0.1014931615987251  1.0000
  H   H29       1.0  0.7591128393665942  0.987968338519714  0.4703366086841072  1.0000
  H   H30       1.0  0.7408874412352873  0.0120333817929819  0.9703372726065567  1.0000
  H   H31       1.0  0.24088987683437327  0.0120324032305845  0.5296633913158926  1.0000
  H   H32       1.0  0.25911125736404017  0.9879673599573165  0.0296640552383494  1.0000
  H   H33       1.0  0.6202465963511798  0.0079557122856784  0.3703379365290118  1.0000
  H   H34       1.0  0.8797533393346484  0.9920450294646201  0.8703386004514682  1.0000
  H   H35       1.0  0.37975646476582636  0.9920460080270176  0.6296627273934376  1.0000
  H   H36       1.0  0.12024501434863312  0.007954733723281  0.12966272739343757  1.0000
  C   C1        1.0  0.34517162470628904  0.5077339494967603  0.7473609082459163  1.0000
  C   C2        1.0  0.15482449760598627  0.49226679225353814  0.24736090824591625  1.0000
  C   C3        1.0  0.6548260796085401  0.4922677708159355  0.2526377639091776  1.0000
  C   C4        1.0  0.8451742009933412  0.5077339494967603  0.7526384278316272  1.0000
  C   C5        1.0  0.3568347493303036  0.4806287496688455  0.8382020979949516  1.0000
  C   C6        1.0  0.1431633615509753  0.5193700349566583  0.3382020979949516  1.0000
  C   C7        1.0  0.6431622651524338  0.5193710135190557  0.1617979020050484  1.0000
  C   C8        1.0  0.8568339573841612  0.4806267925440507  0.6617992298499544  1.0000
  C   C9        1.0  0.40436807159969135  0.5874153497778991  0.894759660071706  1.0000
  C   C10       1.0  0.09562736088049209  0.4125834348476047  0.3947596600717062  1.0000
  C   C11       1.0  0.5956272587664557  0.4125834348476047  0.1052390120833877  1.0000
  C   C12       1.0  0.9043750104044221  0.5874163283402964  0.605238348160938  1.0000
  C   C13       1.0  0.44224824667980306  0.7179555735059537  0.8629458239277665  1.0000
  C   C14       1.0  0.05774684088433449  0.2820422325571528  0.3629444960828606  1.0000
  C   C15       1.0  0.5577494171713866  0.2820422325571528  0.1370541760722332  1.0000
  C   C16       1.0  0.9422538462839897  0.7179565520683511  0.6370548399946896  1.0000
  C   C17       1.0  0.4310986903504883  0.7469053634517664  0.7736436064267664  1.0000
  C   C18       1.0  0.06889877116233828  0.2530953782985321  0.273644270349223  1.0000
  C   C19       1.0  0.5689003531648924  0.2530963568609295  0.2263550657283204  1.0000
  C   C20       1.0  0.9311022609220315  0.746904384889369  0.726354401805871  1.0000
  C   C21       1.0  0.3806116047882711  0.6385814418174007  0.717139158146331  1.0000
  C   C22       1.0  0.11938551180850249  0.3614183213705005  0.2171391581463311  1.0000
  C   C23       1.0  0.6193884330116006  0.3614192999328978  0.2828595140087629  1.0000
  C   C24       1.0  0.8806141810753232  0.6385814418174007  0.7828615057761252  1.0000
  C   C25       1.0  0.5472258148910925  0.7451263370144474  0.519035320674547  1.0000
  C   C26       1.0  0.9527724771417924  0.254877340423036  0.0190333289071845  1.0000
  C   C27       1.0  0.4527759070253765  0.2548753832982413  0.4809646793254528  1.0000
  C   C28       1.0  0.04722691128962704  0.7451253584520572  0.9809660071703588  1.0000
  C   C29       1.0  0.5313827140602356  0.8255406805307643  0.4390559022706171  1.0000
  C   C30       1.0  0.9686179114576989  0.1744620183443217  0.9390559022706169  1.0000
  C   C31       1.0  0.46861801357173505  0.1744620183443217  0.5609440977293827  1.0000
  C   C32       1.0  0.03138381045877024  0.8255397019683741  0.06094409772938288  1.0000
  C   C33       1.0  0.6495864997916742  0.9458177418415801  0.423240605497277  1.0000
  C   C34       1.0  0.850412441609663  0.0541839784711087  0.9232399415748205  1.0000
  C   C35       1.0  0.3504152221247949  0.0541839784711087  0.576759394502723  1.0000
  C   C36       1.0  0.14958759619020873  0.9458167632791827  0.076760722347629  1.0000
  N   N1        1.0  0.35521144998133286  0.6239548696729926  0.6274346036382923  1.0000
  N   N2        1.0  0.14478700581598503  0.3760448935149014  0.1274346036382923  1.0000
  N   N3        1.0  0.6447912662196275  0.3760458720772988  0.3725640685167946  1.0000
  N   N4        1.0  0.8552123421517875  0.6239538911105953  0.8725667242066137  1.0000
  N   N5        1.0  0.3098649044935868  0.498208623126679  0.6022214845306095  1.0000
  N   N6        1.0  0.19013489050427518  0.501791140061222  0.10222148453060947  1.0000
  N   N7        1.0  0.6901361275907831  0.501791140061222  0.3977771876244844  1.0000
  N   N8        1.0  0.8098648023795507  0.498208623126679  0.8977778515469408  1.0000
  N   N9        1.0  0.30367273081050433  0.4267911822861876  0.6743281104766936  1.0000
  N   N10       1.0  0.19632606990286658  0.5732095594641038  0.1743281104766936  1.0000
  N   N11       1.0  0.6963242836722331  0.5732085809017065  0.3256718895233064  1.0000
  N   N12       1.0  0.8036726286964608  0.4267911822861876  0.8256725534457557  1.0000
  N   N13       1.0  0.16288178882556537  0.9273512908522861  0.33105364493427186  1.0000
  N   N14       1.0  0.3371176612562579  0.0726474937732178  0.8310529810118155  1.0000
  N   N15       1.0  0.8371165243940697  0.0726445580860258  0.6689470189881845  1.0000
  N   N16       1.0  0.6628820316275679  0.9273522694146833  0.1689490107555471  1.0000
  O   O1        1.0  0.36636413873633694  0.7204186150586054  0.5658265834550491  1.0000
  O   O2        1.0  0.1336350068930798  0.2795831052540905  0.0658259195325996  1.0000
  O   O3        1.0  0.633637238264086  0.2795821266916931  0.4341734165449508  1.0000
  O   O4        1.0  0.866364685990746  0.7204166579338107  0.9341740804674001  1.0000
  O   O5        1.0  0.05956579243778035  0.8151933617474043  0.3058299030673196  1.0000
  O   O6        1.0  0.4404349968445871  0.1848054228780995  0.8058285752224135  1.0000
  O   O7        1.0  0.9404305322128581  0.1848044443157022  0.6941714247775863  1.0000
  O   O8        1.0  0.5595666846082354  0.8151923831850071  0.19417142477758625  1.0000
  O   O9        1.0  0.10909692910544068  0.9894802174227095  0.3921550922852219  1.0000
  O   O10       1.0  0.3909028658924214  0.0105195457651917  0.8921550922852217  1.0000
  O   O11       1.0  0.8909054421794738  0.0105195457651917  0.6078449077147781  1.0000
  O   O12       1.0  0.6090938441379096  0.9894831531099014  0.1078488912495033  1.0000
  O   O13       1.0  0.31583200662485916  0.969628122079598  0.2922686230248317  1.0000
  O   O14       1.0  0.18416610425641985  0.0303706625459057  0.7922692869472809  1.0000
  O   O15       1.0  0.6841689445322245  0.0303638126091315  0.7077320408976246  1.0000
  O   O16       1.0  0.815832553879261  0.9696261649548035  0.20773336874253084  1.0000
