data_image0
_chemical_formula_structural       MnH24C28N14O4
_chemical_formula_sum              "Mn1 H24 C28 N14 O4"
_cell_length_a       7.307459235156058
_cell_length_b       7.565785782913719
_cell_length_c       14.321808915904132
_cell_angle_alpha    100.25532587738968
_cell_angle_beta     93.2259970617711
_cell_angle_gamma    115.71999375229265

_space_group_name_H-M_alt    "P 1"
_space_group_IT_number       1

loop_
  _space_group_symop_operation_xyz
  'x, y, z'

loop_
  _atom_site_type_symbol
  _atom_site_label
  _atom_site_symmetry_multiplicity
  _atom_site_fract_x
  _atom_site_fract_y
  _atom_site_fract_z
  _atom_site_occupancy
  Mn  Mn1       1.0  0.9999975574704437  0.9999989161964324  3.1304594799080564e-05  1.0000
  H   H1        1.0  0.17650604804463643  0.49962939156674213  0.3385577242560558  1.0000
  H   H2        1.0  0.8234988992702766  0.5003723781760813  0.661437815691059  1.0000
  H   H3        1.0  0.08591977035904105  0.5629664254934568  0.4437723244121443  1.0000
  H   H4        1.0  0.9140844797028721  0.4370338385407848  0.556223056969003  1.0000
  H   H5        1.0  0.05287396166369968  0.2737847220364528  0.20587290576306572  1.0000
  H   H6        1.0  0.9471316457100015  0.7262155321782018  0.7941218109934879  1.0000
  H   H7        1.0  0.8972758962746143  0.8810038241637489  0.404697254747127  1.0000
  H   H8        1.0  0.10273049454676907  0.1190039848266906  0.5953002832624676  1.0000
  H   H9        1.0  0.8579628690106846  0.601848297725283  0.2692624129694821  1.0000
  H   H10       1.0  0.14204486376512201  0.3981534919406615  0.7307359927723525  1.0000
  H   H11       1.0  0.9214903456937407  0.6783092505710898  0.10710194078225041  1.0000
  H   H12       1.0  0.07850017066719055  0.32167902011828886  0.8928954606446595  1.0000
  H   H13       1.0  0.593900277035445  0.6491111998747527  0.46568049312945453  1.0000
  H   H14       1.0  0.4060999264791221  0.35089210826127026  0.534317164708014  1.0000
  H   H15       1.0  0.6899357820472077  0.9140183076344787  0.5026823853175416  1.0000
  H   H16       1.0  0.3100664506441433  0.08598348174751179  0.49731448387876054  1.0000
  H   H17       1.0  0.6872952360428214  0.1514782010212415  0.5840708849053371  1.0000
  H   H18       1.0  0.3127077411264167  0.8485251204441937  0.41592893955287014  1.0000
  H   H19       1.0  0.4094498913982251  0.750129549289021  0.768916582725737  1.0000
  H   H20       1.0  0.5905503103407739  0.249870757391399  0.23108219087714593  1.0000
  H   H21       1.0  0.4406014404010535  0.051296040884785996  0.8904643149097423  1.0000
  H   H22       1.0  0.5593994213967194  0.9487027502674723  0.1095336355025722  1.0000
  H   H23       1.0  0.6056856966452315  0.3913640087974528  0.851657162177098  1.0000
  H   H24       1.0  0.39431517695877  0.6086347889485209  0.14834148740920478  1.0000
  C   C1        1.0  0.46648031128016504  0.2684794588604476  0.0432688388226268  1.0000
  C   C2        1.0  0.5335126480980037  0.731528527450422  0.956743735520675  1.0000
  C   C3        1.0  0.7762382260848355  0.2627171958360606  0.0387591659683011  1.0000
  C   C4        1.0  0.22375928757140431  0.7372681429866789  0.9612486132327619  1.0000
  C   C5        1.0  0.012585006315731624  0.12887060877133652  0.2241636882148512  1.0000
  C   C6        1.0  0.9874171301502983  0.8711281264053313  0.7758287033549963  1.0000
  C   C7        1.0  0.9778249287795829  0.0993998845907242  0.31662535819411636  1.0000
  C   C8        1.0  0.022177928551883507  0.9006003694819498  0.6833685902896676  1.0000
  C   C9        1.0  0.9215867810050612  0.9071156319356249  0.3332045512395823  1.0000
  C   C10       1.0  0.07841750625108548  0.09288765333536729  0.6667918118981007  1.0000
  C   C11       1.0  0.9023374024114972  0.7529280588704313  0.2582919787912489  1.0000
  C   C12       1.0  0.09766689665086402  0.24707523299427692  0.7417050835204152  1.0000
  C   C13       1.0  0.9385531161625238  0.7941908929480235  0.1684960610415445  1.0000
  C   C14       1.0  0.06144153471600329  0.2058033841623867  0.8315006108506893  1.0000
  C   C15       1.0  0.9855684152501709  0.2600652773994412  0.3971757734324868  1.0000
  C   C16       1.0  0.014436471258079613  0.7399334579192072  0.6028173864101234  1.0000
  C   C17       1.0  0.6316296652861553  0.12209158567910089  0.6515076517182764  1.0000
  C   C18       1.0  0.3683725656296275  0.8779072022472931  0.3484903332434328  1.0000
  C   C19       1.0  0.5452322227745299  0.9267288830205233  0.6671213073214588  1.0000
  C   C20       1.0  0.4547707307822648  0.07327442525748043  0.3328771187887796  1.0000
  C   C21       1.0  0.47709400280994885  0.9008934568707403  0.7551440399353953  1.0000
  C   C22       1.0  0.5229054898698281  0.0991053375073889  0.2448538759275323  1.0000
  C   C23       1.0  0.4967921429857966  0.06767425218717452  0.8222768101407993  1.0000
  C   C24       1.0  0.5032087560062096  0.9323275602018274  0.17772212202805804  1.0000
  C   C25       1.0  0.5859858953005599  0.25673165049641267  0.8002630954394334  1.0000
  C   C26       1.0  0.41401500191587814  0.743267160436993  0.1997369524948311  1.0000
  C   C27       1.0  0.5220711846060625  0.7455370595365526  0.5951236332811476  1.0000
  C   C28       1.0  0.4779317317565059  0.2544632275047078  0.40487381107255527  1.0000
  N   N1        1.0  0.285452828173689  0.20078125286703846  0.032171663060807994  1.0000
  N   N2        1.0  0.7145390164965945  0.7992178773646259  0.9678596058569582  1.0000
  N   N3        1.0  0.6657504371872065  0.3562090246036221  0.0579159358199917  1.0000
  N   N4        1.0  0.3342428516755902  0.6437972615550578  0.9420762384612189  1.0000
  N   N5        1.0  0.8925827407197957  0.19371579496318958  0.02529715379247219  1.0000
  N   N6        1.0  0.10740081662957127  0.8062803136057967  0.9747308285504489  1.0000
  N   N7        1.0  0.9908539889393425  0.9781913873198606  0.1513497232924408  1.0000
  N   N8        1.0  0.009135715657528498  0.021801314634991804  0.8486382962978496  1.0000
  N   N9        1.0  0.0852870680519189  0.4512506107855856  0.39039553286820444  1.0000
  N   N10       1.0  0.9147199456340118  0.5487526614399486  0.6096002001942865  1.0000
  N   N11       1.0  0.6529965113052681  0.2842212910122869  0.7161285730325061  1.0000
  N   N12       1.0  0.3470036904337235  0.7157790156681331  0.28387020057037654  1.0000
  N   N13       1.0  0.607247015345969  0.7742733505848634  0.5149762898729833  1.0000
  N   N14       1.0  0.39275246552758597  0.22572543719955013  0.485020926815956  1.0000
  O   O1        1.0  0.894481400446729  0.20954798678668138  0.4674918208913255  1.0000
  O   O2        1.0  0.10552282600274054  0.7904522640601287  0.5325021621418529  1.0000
  O   O3        1.0  0.4259476498181271  0.5740690563198855  0.6119683207555511  1.0000
  O   O4        1.0  0.5740538856202163  0.4259312273535231  0.3880283898747763  1.0000
