data_image0
_chemical_formula_structural       Zn4P4H20C8N16O12
_chemical_formula_sum              "Zn4 P4 H20 C8 N16 O12"
_cell_length_a       8.839475833691433
_cell_length_b       8.839489316823745
_cell_length_c       10.348853130236627
_cell_angle_alpha    70.25757281405271
_cell_angle_beta     70.25756078918516
_cell_angle_gamma    73.83995847102992

_space_group_name_H-M_alt    "P 1"
_space_group_IT_number       1

loop_
  _space_group_symop_operation_xyz
  'x, y, z'

loop_
  _atom_site_type_symbol
  _atom_site_label
  _atom_site_symmetry_multiplicity
  _atom_site_fract_x
  _atom_site_fract_y
  _atom_site_fract_z
  _atom_site_occupancy
  Zn  Zn1       1.0  0.2737668675828645  0.559734302244095  0.9561290024275307  1.0000
  Zn  Zn2       1.0  0.4402655238530997  0.7262363045469512  0.5438707303955823  1.0000
  Zn  Zn3       1.0  0.7262333689088792  0.4402638235662692  0.04387176281493058  1.0000
  Zn  Zn4       1.0  0.5597334651537478  0.27376793583332665  0.45612862988907205  1.0000
  P   P1        1.0  0.6162770435601388  0.6727879301865869  0.7754346464856425  1.0000
  P   P2        1.0  0.3272143442290131  0.3837265681245938  0.724564283817095  1.0000
  P   P3        1.0  0.38372389135707863  0.3272126646603226  0.22456520442114677  1.0000
  P   P4        1.0  0.6727863410153603  0.6162752494606849  0.2754343199089107  1.0000
  H   H1        1.0  0.6725922262248076  0.8182237191781992  0.7458409083490807  1.0000
  H   H2        1.0  0.1817769637425499  0.3274095144863267  0.754157076783798  1.0000
  H   H3        1.0  0.32740776076995814  0.18177562954615203  0.2541595759018165  1.0000
  H   H4        1.0  0.8182251680665187  0.672591103042336  0.24583952320278266  1.0000
  H   H5        1.0  0.6107071666834542  0.13820893147084937  0.7886704345486846  1.0000
  H   H6        1.0  0.8617896858263306  0.3892943046033679  0.71133120730299  1.0000
  H   H7        1.0  0.38929112407377886  0.861792840048494  0.2113308062608681  1.0000
  H   H8        1.0  0.1382074073356137  0.6107074435317869  0.2886694196699011  1.0000
  H   H9        1.0  0.5596865854157826  0.211173899351941  0.9358649423906014  1.0000
  H   H10       1.0  0.788822953852744  0.4403144390604652  0.564136354571943  1.0000
  H   H11       1.0  0.4403160462665384  0.7888242732268008  0.06413705052517574  1.0000
  H   H12       1.0  0.21117583537086662  0.5596848861040867  0.4358625496530805  1.0000
  H   H13       1.0  0.693793925529022  0.09496726641014418  0.1093901970435383  1.0000
  H   H14       1.0  0.9050332171456861  0.3062044385178453  0.39061113100430567  1.0000
  H   H15       1.0  0.3062060614657369  0.9050320823142071  0.8906102872073658  1.0000
  H   H16       1.0  0.0949682167654871  0.6937937105011045  0.6093892818855977  1.0000
  H   H17       1.0  0.8507649648725675  0.9216776858046243  0.10171366558611783  1.0000
  H   H18       1.0  0.0783224598053422  0.14923519738002966  0.3982881164293203  1.0000
  H   H19       1.0  0.1492352712674574  0.0783204396545258  0.8982851672779117  1.0000
  H   H20       1.0  0.9216775273652758  0.8507641515199323  0.601713334010796  1.0000
  C   C1        1.0  0.9575711232198213  0.7983943159591788  0.8973384075762566  1.0000
  C   C2        1.0  0.2016087418367647  0.04242789599840789  0.6026626178084412  1.0000
  C   C3        1.0  0.042424772522686324  0.20160740896739773  0.10266257174919251  1.0000
  C   C4        1.0  0.7983967833266589  0.9575678768183095  0.39733730000691736  1.0000
  C   C5        1.0  0.7477988455552802  0.013482692360660995  0.9330197919960665  1.0000
  C   C6        1.0  0.9865171449939394  0.2522007802945864  0.5669801332944928  1.0000
  C   C7        1.0  0.2522001933411744  0.9865154100655218  0.06698035940973307  1.0000
  C   C8        1.0  0.013479698671019879  0.7478021907545552  0.4330202126868413  1.0000
  N   N1        1.0  0.06754836457935907  0.6946385113549242  0.926801178277742  1.0000
  N   N2        1.0  0.30535787110697055  0.9324559010779223  0.5732011192741808  1.0000
  N   N3        1.0  0.9324540673197249  0.30535474600810625  0.07320035857839698  1.0000
  N   N4        1.0  0.6946384735640337  0.06754951579917899  0.426798664724032  1.0000
  N   N5        1.0  0.8409849783180121  0.907067487400461  0.8556621632608739  1.0000
  N   N6        1.0  0.09293201779043873  0.15901836593221924  0.6443376423214175  1.0000
  N   N7        1.0  0.15901550749484977  0.0929294153203202  0.14433791678393246  1.0000
  N   N8        1.0  0.907066023645676  0.8409846286767149  0.3556642836857905  1.0000
  N   N9        1.0  0.6314424152749751  0.12672631288327096  0.8830421655825089  1.0000
  N   N10       1.0  0.8732732794524054  0.3685578597073942  0.6169585782181812  1.0000
  N   N11       1.0  0.3685563743003615  0.8732730126325022  0.11695867102094575  1.0000
  N   N12       1.0  0.12672526062594613  0.631442688722359  0.38304197739371654  1.0000
  N   N13       1.0  0.7686122109508844  0.010458866085379295  0.056534860267078185  1.0000
  N   N14       1.0  0.9895402049789935  0.23138802860999863  0.44346635572213  1.0000
  N   N15       1.0  0.23138802536499978  0.9895392595493818  0.9434649387861711  1.0000
  N   N16       1.0  0.010459782191631538  0.7686113202899633  0.5565350947179865  1.0000
  O   O1        1.0  0.4434631822979823  0.7004561207928361  0.8783659655501025  1.0000
  O   O2        1.0  0.29954504715298913  0.556540124137797  0.6216333450869626  1.0000
  O   O3        1.0  0.5565365550239464  0.2995444506698918  0.12163327152002511  1.0000
  O   O4        1.0  0.700455638091384  0.44346169344748887  0.3783652586390502  1.0000
  O   O5        1.0  0.7378547486724969  0.530462382301728  0.8419117048219105  1.0000
  O   O6        1.0  0.4695400955923717  0.2621475166784464  0.6580875911608145  1.0000
  O   O7        1.0  0.26214523832226894  0.4695369664226234  0.15808877942899355  1.0000
  O   O8        1.0  0.5304617874231424  0.7378543244666315  0.3419125925910648  1.0000
  O   O9        1.0  0.6180414242768605  0.6516724448811145  0.6337318470891091  1.0000
  O   O10       1.0  0.348327468728229  0.3819594510383695  0.8662685576919457  1.0000
  O   O11       1.0  0.3819585625420459  0.3483269036676261  0.3662676709725758  1.0000
  O   O12       1.0  0.6516725180906705  0.6180398975103713  0.13373096036973922  1.0000
