data_image0
_chemical_formula_structural       Cd3H52C62N8O12F2
_chemical_formula_sum              "Cd3 H52 C62 N8 O12 F2"
_cell_length_a       8.425511002163548
_cell_length_b       12.093433559375125
_cell_length_c       15.053589295268342
_cell_angle_alpha    67.580099631291
_cell_angle_beta     79.73037833385872
_cell_angle_gamma    81.74332443683227

_space_group_name_H-M_alt    "P 1"
_space_group_IT_number       1

loop_
  _space_group_symop_operation_xyz
  'x, y, z'

loop_
  _atom_site_type_symbol
  _atom_site_label
  _atom_site_symmetry_multiplicity
  _atom_site_fract_x
  _atom_site_fract_y
  _atom_site_fract_z
  _atom_site_occupancy
  Cd  Cd1       1.0  0.0402961374953676  0.48010496447624706  0.2718512474370769  1.0000
  Cd  Cd2       1.0  0.9597033226645239  0.5198960536280238  0.7281488447891036  1.0000
  Cd  Cd3       1.0  4.6992448688491897e-07  0.49999943557402554  0.5000000833013232  1.0000
  H   H1        1.0  0.7659932147261658  0.8106449998285185  0.347725251276728  1.0000
  H   H2        1.0  0.2340061557866377  0.1893569079745774  0.6522752473734101  1.0000
  H   H3        1.0  0.99897251694761  0.0891119456990452  0.5886655489071799  1.0000
  H   H4        1.0  0.0010259122081066852  0.9108873064016689  0.41133318435207405  1.0000
  H   H5        1.0  0.19304125098110353  0.06941100467845727  0.4022233220546455  1.0000
  H   H6        1.0  0.8069580158481812  0.9305918242795951  0.5977749177167766  1.0000
  H   H7        1.0  0.27419194122275314  0.04889376277336049  0.5084169423851108  1.0000
  H   H8        1.0  0.725807518937131  0.9511072553309105  0.4915831498410696  1.0000
  H   H9        1.0  0.7625579372127261  0.14943775462383257  0.49912572632869984  1.0000
  H   H10       1.0  0.23744392599828504  0.8505632760124654  0.5008721265071543  1.0000
  H   H11       1.0  0.8832547573821545  0.12893811127551658  0.39683939319925793  1.0000
  H   H12       1.0  0.11674701969088373  0.8710638011955677  0.603159532386222  1.0000
  H   H13       1.0  0.3221095786348799  0.5247828748313734  0.09511035741210352  1.0000
  H   H14       1.0  0.6778886852631131  0.4752181252108372  0.9048918539977465  1.0000
  H   H15       1.0  0.4174124460927047  0.46616880278091327  0.9476849037179421  1.0000
  H   H16       1.0  0.5825874973936962  0.5338276881889285  0.05231981964514183  1.0000
  H   H17       1.0  0.24485512475502702  0.3423614554711846  0.9103898853364073  1.0000
  H   H18       1.0  0.7551497460626776  0.6576341000875842  0.08961594975309589  1.0000
  H   H19       1.0  0.6542136728532313  0.40538362611820833  0.3597777491513909  1.0000
  H   H20       1.0  0.3457858804628486  0.5946164944232136  0.6402226029765004  1.0000
  H   H21       1.0  0.45317944300442287  0.28360969242098827  0.33947297977582025  1.0000
  H   H22       1.0  0.546821410257074  0.7163895250275443  0.6605275120471249  1.0000
  H   H23       1.0  0.5311738152442088  0.1896633725171171  0.21334344490892226  1.0000
  H   H24       1.0  0.4688283379627052  0.8103349418385266  0.7866571866090765  1.0000
  H   H25       1.0  0.6211756194921848  0.9792694863658081  0.03373512727932149  1.0000
  H   H26       1.0  0.37882745401715573  0.02073153087641799  0.9662632716755369  1.0000
  H   H27       1.0  0.5642683694141153  0.8577051691904883  0.9414884011451435  1.0000
  H   H28       1.0  0.4357372108298634  0.14229493942880816  0.058510017298111394  1.0000
  H   H29       1.0  0.9657946187976167  0.9995992228826294  0.7248372005175058  1.0000
  H   H30       1.0  0.0342087306711889  0.0003991095350670984  0.2751613118168167  1.0000
  H   H31       1.0  0.010453721693103496  0.13088366482293878  0.8096149736590164  1.0000
  H   H32       1.0  0.9895544549326016  0.869114645474603  0.19038305784867068  1.0000
  H   H33       1.0  0.2824317839840163  0.770424074335295  0.31897970217217875  1.0000
  H   H34       1.0  0.7175677763502861  0.22957603047806416  0.6810219826070495  1.0000
  H   H35       1.0  0.3478289297638639  0.6053813827640794  0.4645047916665348  1.0000
  H   H36       1.0  0.6521719270067408  0.39461782682041496  0.5354963664820787  1.0000
  H   H37       1.0  0.5132163193701942  0.5487786645872178  0.4006093789305395  1.0000
  H   H38       1.0  0.4867845303821952  0.45122056072534616  0.5993904465667371  1.0000
  H   H39       1.0  0.6182902945394346  0.6527089879520102  0.48559978771611173  1.0000
  H   H40       1.0  0.3817104690749814  0.34729111919534006  0.5144011105307913  1.0000
  H   H41       1.0  0.4911339656131729  0.7846337126051279  0.43527845310443786  1.0000
  H   H42       1.0  0.5088655841937991  0.21536641580032517  0.5647212326977852  1.0000
  H   H43       1.0  0.6955292216005872  0.8701174885707416  0.1801332194676064  1.0000
  H   H44       1.0  0.3044704213625735  0.1298817422718628  0.8198667262363274  1.0000
  H   H45       1.0  0.531481794989702  0.9072489403139766  0.257023163397399  1.0000
  H   H46       1.0  0.468517568504879  0.09275298321718135  0.7429760026014025  1.0000
  H   H47       1.0  0.4388420979362451  0.8068921475575265  0.15779892612897575  1.0000
  H   H48       1.0  0.5611563452559167  0.1931070730870488  0.842202472432959  1.0000
  H   H49       1.0  0.5751237575041729  0.6816194140917914  0.2044960204624503  1.0000
  H   H50       1.0  0.4248721789533435  0.3183807151757207  0.7955053586110952  1.0000
  H   H51       1.0  0.04549592281017571  0.22919424062221336  0.8909707199889212  1.0000
  H   H52       1.0  0.9545060511025768  0.7708058531310653  0.10903072437699284  1.0000
  C   C1        1.0  0.688328144250967  0.7553224377600714  0.3327120686221009  1.0000
  C   C2        1.0  0.3116738156253476  0.24467768744934654  0.6672867104411325  1.0000
  C   C3        1.0  0.804858429502886  0.6554342947335382  0.3132423774013874  1.0000
  C   C4        1.0  0.19514214078092348  0.3445676232675793  0.6867566683907499  1.0000
  C   C5        1.0  0.0454753860603176  0.24829112766540357  0.4663190638528434  1.0000
  C   C6        1.0  0.954520557415421  0.7517089858740318  0.5336836478720386  1.0000
  C   C7        1.0  0.0204268851530784  0.11473107063345364  0.5094360559531097  1.0000
  C   C8        1.0  0.97957146137378  0.8852690554380085  0.49056441638144593  1.0000
  C   C9        1.0  0.1663195770825823  0.037267712440623796  0.48179542836204103  1.0000
  C   C10       1.0  0.8336786727789729  0.962733319057726  0.5182041177451283  1.0000
  C   C11       1.0  0.8668797572500964  0.09523070296543067  0.47679324566031056  1.0000
  C   C12       1.0  0.1331209026808011  0.9047703253368694  0.5232053937078689  1.0000
  C   C13       1.0  0.25370690228950116  0.4695220638387949  0.07533541184343318  1.0000
  C   C14       1.0  0.74628903767713  0.5304780575646788  0.9246666335557806  1.0000
  C   C15       1.0  0.30488321856402223  0.4368520291688184  0.9941180623523638  1.0000
  C   C16       1.0  0.695118855523134  0.5631471512935419  0.0058849745666051815  1.0000
  C   C17       1.0  0.2093865009759739  0.368208225613209  0.9734895255451833  1.0000
  C   C18       1.0  0.7906118525690999  0.6317918847301838  0.026512279440709084  1.0000
  C   C19       1.0  0.063191893563399  0.3327760666783134  0.03423555136087228  1.0000
  C   C20       1.0  0.9368061734948797  0.6672267520817029  0.9657641412685436  1.0000
  C   C21       1.0  0.018904887811586904  0.3697829590378061  0.11525387002199496  1.0000
  C   C22       1.0  0.9810906690029455  0.6302207762091782  0.884745136793356  1.0000
  C   C23       1.0  0.8661784831730727  0.33881151967107564  0.17862876916173323  1.0000
  C   C24       1.0  0.13381967353228671  0.6611904093901302  0.8213705170437252  1.0000
  C   C25       1.0  0.6809610161617101  0.3648281590798134  0.30468450197118113  1.0000
  C   C26       1.0  0.3190375201866402  0.6351701640019057  0.6953171564924646  1.0000
  C   C27       1.0  0.570480158254341  0.2953580464587019  0.293987524690266  1.0000
  C   C28       1.0  0.4295209744757357  0.7046384783012698  0.7060137468378117  1.0000
  C   C29       1.0  0.6130281492438527  0.24399078171162358  0.22419642412106802  1.0000
  C   C30       1.0  0.3869691873334986  0.7560075311720733  0.7758066872005713  1.0000
  C   C31       1.0  0.7631147018970592  0.2649397586382348  0.16413291560187568  1.0000
  C   C32       1.0  0.2368837307677722  0.735059485598441  0.8358664839830469  1.0000
  C   C33       1.0  0.8153304340522425  0.22182334223661115  0.08638980171328113  1.0000
  C   C34       1.0  0.18466790194728586  0.778176807426952  0.9136086716442621  1.0000
  C   C35       1.0  0.957029615110443  0.25961440246997103  0.02262677917997986  1.0000
  C   C36       1.0  0.0429708655262857  0.7403884052299713  0.9773726730361149  1.0000
  C   C37       1.0  0.8398499369733515  0.13805689651818653  0.9809108971800312  1.0000
  C   C38       1.0  0.160152123077367  0.8619423154003057  0.01908947443625659  1.0000
  C   C39       1.0  0.8170322326840563  0.06410298015290289  0.9280119197097606  1.0000
  C   C40       1.0  0.18297324738551884  0.9358980417573047  0.07198490618043958  1.0000
  C   C41       1.0  0.6941388266597883  0.9848149855542441  0.9651617037576302  1.0000
  C   C42       1.0  0.3058618297619944  0.015186050612093993  0.03483626928488091  1.0000
  C   C43       1.0  0.6638093650413522  0.9156049719114348  0.9153599546271779  1.0000
  C   C44       1.0  0.3361949012207717  0.08439607125688298  0.08463565881834259  1.0000
  C   C45       1.0  0.7629489771973682  0.9241911395537697  0.8291064131748698  1.0000
  C   C46       1.0  0.23705306530780493  0.07580811168488569  0.170890626813069  1.0000
  C   C47       1.0  0.8895175754133078  0.9980386682946399  0.7916424203776984  1.0000
  C   C48       1.0  0.11048594984055879  0.001957892589459198  0.20835461278304024  1.0000
  C   C49       1.0  0.9150782968476746  0.06954787563674358  0.8407632306573803  1.0000
  C   C50       1.0  0.0849250561302455  0.9304504489169215  0.15923594800261767  1.0000
  C   C51       1.0  0.2731534581287037  0.6165514861129039  0.2875420388334931  1.0000
  C   C52       1.0  0.7268448743617171  0.38344867141469047  0.7124557681983746  1.0000
  C   C53       1.0  0.37131386740249894  0.6981771685009333  0.30856567417727393  1.0000
  C   C54       1.0  0.628689209615949  0.30182384087725467  0.6914333911032529  1.0000
  C   C55       1.0  0.44515473242459785  0.6323784761040512  0.40339133108270897  1.0000
  C   C56       1.0  0.5548473206079053  0.3676207515425105  0.5966077078822352  1.0000
  C   C57       1.0  0.559949205769982  0.7069600535688493  0.42103687412158314  1.0000
  C   C58       1.0  0.4400514576700232  0.29304096686941955  0.5789624315722648  1.0000
  C   C59       1.0  0.6052902982849773  0.8310966429895287  0.2431647905578487  1.0000
  C   C60       1.0  0.39470814139806976  0.16890258551907775  0.7568359416784177  1.0000
  C   C61       1.0  0.4986131456327954  0.7545513709047492  0.2219006929853366  1.0000
  C   C62       1.0  0.5013829736279973  0.24544697110108862  0.7781005395659619  1.0000
  N   N1        1.0  0.11580223109101691  0.43661115639450526  0.13329562314767435  1.0000
  N   N2        1.0  0.8841971359126788  0.5633907592726216  0.8667042091767952  1.0000
  N   N3        1.0  0.8234089395893492  0.3855275392863433  0.2489781935781892  1.0000
  N   N4        1.0  0.17659042390523888  0.614474384244822  0.751020972420605  1.0000
  N   N5        1.0  0.7439292901374726  0.14592763508569104  0.059908330930937816  1.0000
  N   N6        1.0  0.25606923919266217  0.8540707037241044  0.940091994881364  1.0000
  N   N7        1.0  0.9694650764311559  0.20613728278031115  0.9560202732122535  1.0000
  N   N8        1.0  0.030539210885628224  0.7938637132038051  0.04397933818728465  1.0000
  O   O1        1.0  0.8232172308261028  0.5531213843787055  0.3812844491255235  1.0000
  O   O2        1.0  0.17678342910478764  0.4468796439235944  0.6187141902426561  1.0000
  O   O3        1.0  0.882745614299168  0.6752374191592239  0.22846387816456118  1.0000
  O   O4        1.0  0.11725626645738882  0.3247635721569039  0.7715373062996422  1.0000
  O   O5        1.0  0.0003745303608368987  0.30595020247104543  0.523455075212631  1.0000
  O   O6        1.0  0.9996215924090703  0.6940481316707546  0.4765468236643359  1.0000
  O   O7        1.0  0.10320931677459548  0.29113215413147486  0.37738875074174427  1.0000
  O   O8        1.0  0.8967840057556556  0.708869812777955  0.6226096836390197  1.0000
  O   O9        1.0  0.18901501208542726  0.5406857627484026  0.35989528431718315  1.0000
  O   O10       1.0  0.8109846378959558  0.4593134523661319  0.6401059940380947  1.0000
  O   O11       1.0  0.27342586067015867  0.6227470587777688  0.20201829904097224  1.0000
  O   O12       1.0  0.7265711067915319  0.3772548364933074  0.7979844389994993  1.0000
  F   F1        1.0  0.7367624446314592  0.8555223078980912  0.7796812031818307  1.0000
  F   F2        1.0  0.2632407325614068  0.14447778818917809  0.2203194546517508  1.0000
