data_image0
_chemical_formula_structural       Zn4H44C58N4O16
_chemical_formula_sum              "Zn4 H44 C58 N4 O16"
_cell_length_a       7.3781974311736835
_cell_length_b       10.920680094732699
_cell_length_c       17.421968339612036
_cell_angle_alpha    85.71036299140349
_cell_angle_beta     77.20033714054632
_cell_angle_gamma    70.23695886875225

_space_group_name_H-M_alt    "P 1"
_space_group_IT_number       1

loop_
  _space_group_symop_operation_xyz
  'x, y, z'

loop_
  _atom_site_type_symbol
  _atom_site_label
  _atom_site_symmetry_multiplicity
  _atom_site_fract_x
  _atom_site_fract_y
  _atom_site_fract_z
  _atom_site_occupancy
  Zn  Zn1       1.0  0.5927493762556679  0.5289727264776758  0.9089271641829408  1.0000
  Zn  Zn2       1.0  0.12206861055801714  0.47085256154272764  0.4087493099439356  1.0000
  Zn  Zn3       1.0  0.0959604582615372  0.43512819799687447  0.8544978518022998  1.0000
  Zn  Zn4       1.0  0.5308885129224735  0.5650423527454007  0.3544160415859351  1.0000
  H   H1        1.0  0.1210148859790721  0.050009246096131214  0.8801483705047485  1.0000
  H   H2        1.0  0.1708244729086845  0.9498406566698704  0.38020296447088936  1.0000
  H   H3        1.0  0.03422457605137215  0.8574671855551796  0.9370493771097298  1.0000
  H   H4        1.0  0.8913423099902855  0.14244256586274417  0.43715871525608185  1.0000
  H   H5        1.0  0.685213115257106  0.8600866742830177  0.9553224621864226  1.0000
  H   H6        1.0  0.5449188052605294  0.1398310531005578  0.45552594141299335  1.0000
  H   H7        1.0  0.4300834299524611  0.05996022958451159  0.9193662827573231  1.0000
  H   H8        1.0  0.48966496809523374  0.9400464702990163  0.41950280263167616  1.0000
  H   H9        1.0  0.5822801607935656  0.7330654666306272  0.10052180225484621  1.0000
  H   H10       1.0  0.31583450540533425  0.26687499340134474  0.6004353881854383  1.0000
  H   H11       1.0  0.58888650044117  0.8522343559704099  0.21631674645972504  1.0000
  H   H12       1.0  0.4418943531846011  0.14779098494142318  0.7161829212131249  1.0000
  H   H13       1.0  0.9095849156853648  0.8708433184736105  0.23074163163423822  1.0000
  H   H14       1.0  0.7810165153243246  0.12947831540908786  0.730627645661549  1.0000
  H   H15       1.0  0.21618366893133611  0.7598213953351944  0.13755791168060227  1.0000
  H   H16       1.0  0.976260427787345  0.24066262092485863  0.6374833763526196  1.0000
  H   H17       1.0  0.6514531900463394  0.46291381680469357  0.7359785991866586  1.0000
  H   H18       1.0  0.11517030873320527  0.5368527189379932  0.23580471140372328  1.0000
  H   H19       1.0  0.6067721973023198  0.5856058103244449  0.611289075985354  1.0000
  H   H20       1.0  0.19329600830513272  0.41427841584903285  0.1110724351246475  1.0000
  H   H21       1.0  0.5143283617491434  0.9348925172906704  0.7369963909988823  1.0000
  H   H22       1.0  0.4488972144115165  0.06482335342808912  0.23684353737917963  1.0000
  H   H23       1.0  0.5670030978196223  0.7973930952396273  0.8560956708514308  1.0000
  H   H24       1.0  0.3644430414352229  0.2021889712835757  0.3559513462402818  1.0000
  H   H25       1.0  0.5808732942765503  0.9229473929954891  0.5831174969270021  1.0000
  H   H26       1.0  0.5042883443266531  0.07681015033716677  0.0829005400882536  1.0000
  H   H27       1.0  0.5561683097185366  0.788894985257954  0.5407318344035871  1.0000
  H   H28       1.0  0.3453670880386852  0.21089451233977027  0.04056725554617198  1.0000
  H   H29       1.0  0.2700660362313698  0.0033319312795754  0.5501494357737753  1.0000
  H   H30       1.0  0.27355043168565635  0.9965659043226223  0.04999942515257769  1.0000
  H   H31       1.0  0.218721435082081  0.9862417602059707  0.6526150569666098  1.0000
  H   H32       1.0  0.2052881043442341  0.0137296977285715  0.15247259637074245  1.0000
  H   H33       1.0  0.005561304116810023  0.9170460229071155  0.5819322195636472  1.0000
  H   H34       1.0  0.922702708812352  0.08323106496604989  0.08186479817835138  1.0000
  H   H35       1.0  0.2135095750118126  0.7966167582278062  0.5307155413487192  1.0000
  H   H36       1.0  0.010477055579393397  0.20344809332925706  0.03060464863787619  1.0000
  H   H37       1.0  0.11912828972418785  0.8691282076484156  0.7490226085934137  1.0000
  H   H38       1.0  0.9886227446538952  0.1312096375559548  0.24891444329349344  1.0000
  H   H39       1.0  0.11143474176437007  0.6950695075145175  0.8474389710571797  1.0000
  H   H40       1.0  0.8064638925137685  0.3052940217983817  0.3473049203326325  1.0000
  H   H41       1.0  0.0836559700120105  0.4501915378588706  0.682565970258153  1.0000
  H   H42       1.0  0.5338319827241592  0.5501215436993474  0.18236835083812508  1.0000
  H   H43       1.0  0.1125440126397875  0.6094391002967683  0.5745599865129092  1.0000
  H   H44       1.0  0.7221560813493892  0.3907460455318415  0.07438696154012087  1.0000
  C   C1        1.0  0.8243646575227929  0.1655160589950952  0.8730035377939838  1.0000
  C   C2        1.0  0.989575432776711  0.8344797227929701  0.37302441568778716  1.0000
  C   C3        1.0  0.9686993593585033  0.05180427157777961  0.8907032281119807  1.0000
  C   C4        1.0  0.020244306230260713  0.9481239765238172  0.39076584168461165  1.0000
  C   C5        1.0  0.9191140601154187  0.9434155099216  0.9220620373401611  1.0000
  C   C6        1.0  0.8622247899624824  0.05649584429040999  0.4221915053976842  1.0000
  C   C7        1.0  0.7247132550440302  0.9453479465542073  0.9322729989653094  1.0000
  C   C8        1.0  0.669705793498558  0.0545927004369915  0.43239118903634466  1.0000
  C   C9        1.0  0.5821070438119519  0.0564706208168602  0.912604841931582  1.0000
  C   C10       1.0  0.6382324020575466  0.9435362175730052  0.41265302192897474  1.0000
  C   C11       1.0  0.6279749932941242  0.1688692987591054  0.8851032942391013  1.0000
  C   C12       1.0  0.7965481693333062  0.8311406335141313  0.385106571228995  1.0000
  C   C13       1.0  0.4663329042252469  0.2868613022301005  0.8683059786200641  1.0000
  C   C14       1.0  0.7530272452482691  0.7131527025840968  0.368261738641088  1.0000
  C   C15       1.0  0.89771408538806  0.27466151343031703  0.8398496387073419  1.0000
  C   C16       1.0  0.17202601398140877  0.725237064287505  0.33990710459632095  1.0000
  C   C17       1.0  0.8935738551146954  0.6776142655101012  0.055687385158336135  1.0000
  C   C18       1.0  0.5714972857844954  0.32239986139084204  0.5555205573349367  1.0000
  C   C19       1.0  0.7199317929458219  0.7401793243008895  0.10956715822280218  1.0000
  C   C20       1.0  0.46061584372213815  0.25981800328592897  0.6094318701371433  1.0000
  C   C21       1.0  0.7240607447158353  0.8086186019405944  0.17309751961370518  1.0000
  C   C22       1.0  0.5333191402839148  0.1914634977755938  0.6729634245061218  1.0000
  C   C23       1.0  0.9033901118682054  0.8167615061826367  0.18186868358505137  1.0000
  C   C24       1.0  0.7206734386258588  0.1835216636926233  0.6817542111165549  1.0000
  C   C25       1.0  0.07766007313689742  0.7540162635300048  0.12875830572351524  1.0000
  C   C26       1.0  0.8320239608106375  0.2463194812173128  0.6286410484071252  1.0000
  C   C27       1.0  0.07555568384985646  0.6834129103267939  0.06536673831469388  1.0000
  C   C28       1.0  0.759238563794149  0.31673566853628893  0.5652030395790673  1.0000
  C   C29       1.0  0.8843534958098972  0.6048070931679843  0.9882083027743956  1.0000
  C   C30       1.0  0.4895159622496054  0.39504802970405  0.48798451715241925  1.0000
  C   C31       1.0  0.2639213830196353  0.6299029556950303  0.0048221998070019055  1.0000
  C   C32       1.0  0.8941655917817711  0.3700470394468026  0.5046076121809759  1.0000
  C   C33       1.0  0.6212849727595752  0.5676656390868401  0.7334543736618783  1.0000
  C   C34       1.0  0.18958352185398308  0.43207188901438076  0.23328163744351826  1.0000
  C   C35       1.0  0.5931147030171999  0.6371654338288905  0.6645139190070989  1.0000
  C   C36       1.0  0.23086954361508558  0.3626236916730008  0.16431745023212585  1.0000
  C   C37       1.0  0.5472394704382354  0.7723938353290477  0.6642010255925326  1.0000
  C   C38       1.0  0.31997483652384057  0.22738113661051776  0.16399817289944704  1.0000
  C   C39       1.0  0.5434347553877575  0.8303770860839846  0.734021870937809  1.0000
  C   C40       1.0  0.3738035338620944  0.16937254050486672  0.23385730690405632  1.0000
  C   C41       1.0  0.5734462472218524  0.7547338217621442  0.8006222925460731  1.0000
  C   C42       1.0  0.32829008420774386  0.24494684959253019  0.3004810647836463  1.0000
  C   C43       1.0  0.5007981393027308  0.8525894545249172  0.5926762779731118  1.0000
  C   C44       1.0  0.35379030556857316  0.14717692048137818  0.09248875679894299  1.0000
  C   C45       1.0  0.2801646113841441  0.9300877270347315  0.5974031176029155  1.0000
  C   C46       1.0  0.21055936244354706  0.06983511660894949  0.09725415007464015  1.0000
  C   C47       1.0  0.1523424808062614  0.8492944634630388  0.5871180722011784  1.0000
  C   C48       1.0  0.0019166685759302007  0.1508398815116365  0.08702638307959626  1.0000
  C   C49       1.0  0.12477951900710597  0.7532196570515736  0.6515498013420709  1.0000
  C   C50       1.0  0.8782928266397431  0.24705817527745924  0.15142229443903688  1.0000
  C   C51       1.0  0.11348013698719227  0.7776891108027968  0.7306053766107963  1.0000
  C   C52       1.0  0.8914071801336622  0.2226224704785693  0.23047929418600424  1.0000
  C   C53       1.0  0.10557005038294427  0.6819005726503846  0.7867356852089882  1.0000
  C   C54       1.0  0.7874983233471083  0.3184497218735133  0.2865944193519353  1.0000
  C   C55       1.0  0.09650344227724626  0.5433973598171491  0.6937525237233186  1.0000
  C   C56       1.0  0.6399420370490176  0.4569288434563532  0.1935749820946739  1.0000
  C   C57       1.0  0.11126148740314076  0.6336508386205963  0.6342915397679574  1.0000
  C   C58       1.0  0.7450883595526111  0.3666296062152696  0.13412821353676915  1.0000
  N   N1        1.0  0.6084652858028506  0.62526660637495  0.8011301355209991  1.0000
  N   N2        1.0  0.2341322766406222  0.37445258675140985  0.3009822957287652  1.0000
  N   N3        1.0  0.09881049572879166  0.5655970610058532  0.7686143500203  1.0000
  N   N4        1.0  0.6643895981688743  0.434755643297926  0.2684486864166046  1.0000
  O   O1        1.0  0.30381934654181464  0.2690542000559404  0.866236120416829  1.0000
  O   O2        1.0  0.5726512728898571  0.7309585552539986  0.3662576274505794  1.0000
  O   O3        1.0  0.4886946263162597  0.39713748746741123  0.8562028026449509  1.0000
  O   O4        1.0  0.8858117505248657  0.6029031821542077  0.35605426182379296  1.0000
  O   O5        1.0  0.8598640530079608  0.37190177491799403  0.887920965440983  1.0000
  O   O6        1.0  0.2315972502129854  0.6280767937830731  0.3880207926533003  1.0000
  O   O7        1.0  0.008571464967786841  0.2643450335890875  0.7739713373805511  1.0000
  O   O8        1.0  0.27254445379088577  0.7354131821132411  0.2740050983992645  1.0000
  O   O9        1.0  0.7216309030508583  0.6326567740820648  0.9664679998002296  1.0000
  O   O10       1.0  0.35487614121971234  0.36705694717576876  0.4661734406276137  1.0000
  O   O11       1.0  0.047015990755348014  0.5195646209999653  0.9569381102355403  1.0000
  O   O12       1.0  0.5668867493496137  0.4802887759281376  0.4567514066580001  1.0000
  O   O13       1.0  0.40058357416683077  0.5267805563409808  0.018618544020490894  1.0000
  O   O14       1.0  0.9279784321399515  0.4730381513069445  0.518416284871563  1.0000
  O   O15       1.0  0.28492130125338394  0.6956627817650514  0.9423944003654223  1.0000
  O   O16       1.0  0.9807334268528648  0.3042516766830232  0.4421692136929634  1.0000
