data_image0
_chemical_formula_structural       Sm2Cu2H26C30N4O26
_chemical_formula_sum              "Sm2 Cu2 H26 C30 N4 O26"
_cell_length_a       8.106183650075256
_cell_length_b       10.966767530078668
_cell_length_c       11.80323198939467
_cell_angle_alpha    101.05547559609295
_cell_angle_beta     106.48786590108595
_cell_angle_gamma    102.64036564268507

_space_group_name_H-M_alt    "P 1"
_space_group_IT_number       1

loop_
  _space_group_symop_operation_xyz
  'x, y, z'

loop_
  _atom_site_type_symbol
  _atom_site_label
  _atom_site_symmetry_multiplicity
  _atom_site_fract_x
  _atom_site_fract_y
  _atom_site_fract_z
  _atom_site_occupancy
  Sm  Sm1       1.0  0.9860836856769024  0.6625016084852008  0.42135938266638817  1.0000
  Sm  Sm2       1.0  0.01391340243330323  0.3374975382632571  0.5786389333110264  1.0000
  Cu  Cu1       1.0  0.9646629502591466  0.7696459871993541  0.9441463381735176  1.0000
  Cu  Cu2       1.0  0.03533171327692488  0.23035026480246054  0.05585439428449491  1.0000
  H   H1        1.0  0.17333275885754768  0.8874243040051015  0.6483002580881135  1.0000
  H   H2        1.0  0.8266724435755533  0.11257590916890345  0.3517032296681393  1.0000
  H   H3        1.0  0.24560010811505598  0.9134712447083189  0.5420139091458226  1.0000
  H   H4        1.0  0.7544054699524452  0.08652993929278101  0.4579898184699829  1.0000
  H   H5        1.0  0.6047097872536467  0.32246764305617864  0.3496235599003583  1.0000
  H   H6        1.0  0.3952803185086964  0.6775333281044881  0.6503677594188559  1.0000
  H   H7        1.0  0.7831808366752995  0.867692656267103  0.44323108019238333  1.0000
  H   H8        1.0  0.21682361787026136  0.13230560082367052  0.5567702315394243  1.0000
  H   H9        1.0  0.8495542777417027  0.8732391928584989  0.3300611572093289  1.0000
  H   H10       1.0  0.15045039012354516  0.1267629292027621  0.6699400092565782  1.0000
  H   H11       1.0  0.7024731505753649  0.6739785434028605  0.5227341561912837  1.0000
  H   H12       1.0  0.29752576470182385  0.3260186983672213  0.4772658894752411  1.0000
  H   H13       1.0  0.8393515605549097  0.6631982273856779  0.6424324481588145  1.0000
  H   H14       1.0  0.16064481714779788  0.33680578010954326  0.3575699466241602  1.0000
  H   H15       1.0  0.49096197783286033  0.5443410182413759  0.19859673297192165  1.0000
  H   H16       1.0  0.5090406596894185  0.4556591005406931  0.8013977601547566  1.0000
  H   H17       1.0  0.5519654221361776  0.6489000934770958  0.03899298916479671  1.0000
  H   H18       1.0  0.4480409156531877  0.35110299610563805  0.9610069774067468  1.0000
  H   H19       1.0  0.3139573426684733  0.7416157375900384  0.9227707476028613  1.0000
  H   H20       1.0  0.6860476974499291  0.25838736972735893  0.077232355027931  1.0000
  H   H21       1.0  0.5016787133729181  0.9464128600220721  0.28080128170245194  1.0000
  H   H22       1.0  0.49832008383208387  0.0535940638633363  0.7192012410579309  1.0000
  H   H23       1.0  0.5817392905116493  0.05523680457375951  0.1277478071142042  1.0000
  H   H24       1.0  0.41826395822921814  0.9447750317665183  0.8722606688101564  1.0000
  H   H25       1.0  0.3716480127775909  0.1711042218769805  0.021982848522384264  1.0000
  H   H26       1.0  0.6283422502275966  0.8288938767838445  0.9780114003802893  1.0000
  C   C1        1.0  0.7068072280987109  0.4149915516354667  0.3645597584051004  1.0000
  C   C2        1.0  0.2931901914033758  0.5850017779681593  0.6354359352125343  1.0000
  C   C3        1.0  0.20202839276753784  0.5147848107881218  0.268650665462026  1.0000
  C   C4        1.0  0.7979745643122983  0.485209541350713  0.7313471423735721  1.0000
  C   C5        1.0  0.23373294902226852  0.5808090328778662  0.17247807416669053  1.0000
  C   C6        1.0  0.7662705970116477  0.41919015505855123  0.8275198282625523  1.0000
  C   C7        1.0  0.39347714175521264  0.5856749969081109  0.1471415908508718  1.0000
  C   C8        1.0  0.6065236057607988  0.41432031824005133  0.8528576400467429  1.0000
  C   C9        1.0  0.4273975574671808  0.6444870844002395  0.058403242507637294  1.0000
  C   C10       1.0  0.5726115329069614  0.35551309721332564  0.9415933815288754  1.0000
  C   C11       1.0  0.29978772135325465  0.6967271221038162  0.9954370708751412  1.0000
  C   C12       1.0  0.7002110400623139  0.30327297773708034  0.004558348902570211  1.0000
  C   C13       1.0  0.11298496447780336  0.6371717684187816  0.10724173069247199  1.0000
  C   C14       1.0  0.88701873541774  0.36282456144682135  0.8927607976255771  1.0000
  C   C15       1.0  0.9352397152904639  0.6412392140145897  0.12160771275743795  1.0000
  C   C16       1.0  0.06476104405985689  0.35875605063197474  0.878385581071484  1.0000
  C   C17       1.0  0.21665661798319036  0.9427943828923518  0.3568137365170331  1.0000
  C   C18       1.0  0.783348092433954  0.05721453435536011  0.6431911403208588  1.0000
  C   C19       1.0  0.25564572827825316  0.9999863186859914  0.25716838230531647  1.0000
  C   C20       1.0  0.7443521127913614  1.4762502154001263e-05  0.742829565238523  1.0000
  C   C21       1.0  0.4137408001199958  0.9958674283275644  0.2323405793154621  1.0000
  C   C22       1.0  0.5862585350340979  0.0041375722415537995  0.7676625684299266  1.0000
  C   C23       1.0  0.4579039093477206  0.05572405744612041  0.1467641347863449  1.0000
  C   C24       1.0  0.5420935986394041  0.9442828481013733  0.8532372832699338  1.0000
  C   C25       1.0  0.3443739385382756  0.12077020907693742  0.08862902809922701  1.0000
  C   C26       1.0  0.6556207776934001  0.8792327948242404  0.911370325814751  1.0000
  C   C27       1.0  0.1446572813544122  0.061856072437677795  0.1910261014647219  1.0000
  C   C28       1.0  0.8553363130459387  0.9381439973386566  0.808969988412592  1.0000
  C   C29       1.0  0.9649489904576357  0.0668717991813708  0.19955623416318247  1.0000
  C   C30       1.0  0.03505029369146934  0.933126442273867  0.8004474439735675  1.0000
  N   N1        1.0  0.14851399745508323  0.6933946145470459  0.02106695688055284  1.0000
  N   N2        1.0  0.8514875047109455  0.3066026278262939  0.9789310574308202  1.0000
  N   N3        1.0  0.1920718862184572  0.12324213319312352  0.11094801425173982  1.0000
  N   N4        1.0  0.8079213240944225  0.8767570018286862  0.8890520765293742  1.0000
  O   O1        1.0  0.20773422495165045  0.8429448971223937  0.5809690257320171  1.0000
  O   O2        1.0  0.792268393973849  0.15705530101932652  0.41903479707403335  1.0000
  O   O3        1.0  0.6595005939854559  0.5138336916699869  0.3471736893261337  1.0000
  O   O4        1.0  0.34049837229671437  0.4861703092139679  0.6528258259490302  1.0000
  O   O5        1.0  0.8119434183467931  0.8145377104354669  0.37762552341952477  1.0000
  O   O6        1.0  0.18806420866044957  0.18546539748518145  0.622375547856123  1.0000
  O   O7        1.0  0.8729385100386863  0.4177439777458146  0.39997495278665696  1.0000
  O   O8        1.0  0.12705853890085447  0.5822483593871653  0.6000179565134189  1.0000
  O   O9        1.0  0.83005752351567  0.703892960989144  0.5716333081504814  1.0000
  O   O10       1.0  0.1699382719954342  0.29610618185043336  0.42836559942816893  1.0000
  O   O11       1.0  0.13528938791073844  0.8231529468945812  0.32688437114295976  1.0000
  O   O12       1.0  0.8647021048542668  0.17683844706284899  0.6731157536185322  1.0000
  O   O13       1.0  0.28008795653111906  0.018931298965732403  0.4645926459812557  1.0000
  O   O14       1.0  0.7199139263411495  0.9810668925911588  0.535403063731664  1.0000
  O   O15       1.0  0.8953900902332705  0.004940932159236403  0.2616948641970255  1.0000
  O   O16       1.0  0.10461402953917794  0.9950631565053957  0.7383107661998949  1.0000
  O   O17       1.0  0.8879558699139591  0.13641758527639072  0.1382808954139136  1.0000
  O   O18       1.0  0.11204104573785395  0.8635844989025403  0.8617221243540669  1.0000
  O   O19       1.0  0.8445783863826576  0.6981820468987011  0.051926644590643924  1.0000
  O   O20       1.0  0.15541606214311085  0.30181034734714274  0.9480750812859355  1.0000
  O   O21       1.0  0.8803239425340478  0.5887707684486116  0.1951641484360849  1.0000
  O   O22       1.0  0.1196722463642742  0.4112061376604713  0.8048327345382873  1.0000
  O   O23       1.0  0.2167232836310261  0.58461660297818  0.3720352461720963  1.0000
  O   O24       1.0  0.7832877105608063  0.4153953001024817  0.6279747690608702  1.0000
  O   O25       1.0  0.17215818215579756  0.39251477595025364  0.2413726207766587  1.0000
  O   O26       1.0  0.8278390989867076  0.6074883223428673  0.7586357277668938  1.0000
