data_image0
_chemical_formula_structural       Cu2H24C48N12Cl4O12
_chemical_formula_sum              "Cu2 H24 C48 N12 Cl4 O12"
_cell_length_a       11.784059320017153
_cell_length_b       11.784217082349477
_cell_length_c       12.68869959459796
_cell_angle_alpha    103.6476355440706
_cell_angle_beta     103.64705150752512
_cell_angle_gamma    104.1516842490437

_space_group_name_H-M_alt    "P 1"
_space_group_IT_number       1

loop_
  _space_group_symop_operation_xyz
  'x, y, z'

loop_
  _atom_site_type_symbol
  _atom_site_label
  _atom_site_symmetry_multiplicity
  _atom_site_fract_x
  _atom_site_fract_y
  _atom_site_fract_z
  _atom_site_occupancy
  Cu  Cu1       1.0  0.4373152562768041  0.5626831682360345  0.7500037136739623  1.0000
  Cu  Cu2       1.0  0.5626819066817744  0.43732017918543414  0.24999934586868022  1.0000
  H   H1        1.0  0.7108282777502237  0.1767008815680526  0.9577565850820663  1.0000
  H   H2        1.0  0.8232980966952397  0.28915973214695606  0.5422330337776416  1.0000
  H   H3        1.0  0.289180405400991  0.8233143487415262  0.04223809142927595  1.0000
  H   H4        1.0  0.17669881015854833  0.7108344348164833  0.4577703678922021  1.0000
  H   H5        1.0  0.6279334604376602  0.7935739386405416  0.9362611033293151  1.0000
  H   H6        1.0  0.2064203637654671  0.37206988850889633  0.5637475206415916  1.0000
  H   H7        1.0  0.3720713095799297  0.2064230148234785  0.06374458054725812  1.0000
  H   H8        1.0  0.7935770227079859  0.627928784578323  0.4362459155823404  1.0000
  H   H9        1.0  0.5689064542016313  0.6397845657709313  0.5889440787915705  1.0000
  H   H10       1.0  0.3602088860119109  0.43109938873543285  0.9110627645485753  1.0000
  H   H11       1.0  0.4310969318424043  0.3601967906837729  0.41106348297186207  1.0000
  H   H12       1.0  0.6398027707642839  0.5689085392985476  0.0889365012542882  1.0000
  H   H13       1.0  0.5751990097140691  0.9735817973911052  0.5768620391826147  1.0000
  H   H14       1.0  0.0264165213556424  0.42479420099039794  0.923137970232496  1.0000
  H   H15       1.0  0.4247932182267817  0.026414180181682005  0.42313917155751585  1.0000
  H   H16       1.0  0.9735957015693089  0.5752155553169446  0.07686023242671787  1.0000
  H   H17       1.0  0.4650236943985817  0.3443077250426612  0.578499314835753  1.0000
  H   H18       1.0  0.6556853308917994  0.5349684663487295  0.9214844710454105  1.0000
  H   H19       1.0  0.5349612300827289  0.6556955811627886  0.42150111320608374  1.0000
  H   H20       1.0  0.3443116908041262  0.46503750415373457  0.07850335764172205  1.0000
  H   H21       1.0  0.9345977782570003  0.9677182219517277  0.5591056755819255  1.0000
  H   H22       1.0  0.03227953445539811  0.0654051635020068  0.9408973060642085  1.0000
  H   H23       1.0  0.06539830472468112  0.0322787568417056  0.4409044572044892  1.0000
  H   H24       1.0  0.9677271329667008  0.934603633619929  0.0590971361041356  1.0000
  C   C1        1.0  0.8038618027141665  0.19679070974370214  0.9516121126189393  1.0000
  C   C2        1.0  0.8032065266384407  0.19613184468211392  0.5483834296432024  1.0000
  C   C3        1.0  0.19614221441310772  0.8032097574554553  0.048375247658476866  1.0000
  C   C4        1.0  0.19679507320886802  0.803868819070402  0.45162709881592633  1.0000
  C   C5        1.0  0.8664731507029869  0.11107942258407633  0.9518709411658012  1.0000
  C   C6        1.0  0.8889251313501135  0.1335206189883067  0.548130053145144  1.0000
  C   C7        1.0  0.1335300083436977  0.8889238222141814  0.048119194882396236  1.0000
  C   C8        1.0  0.11107648218058602  0.86648005845656  0.4518820574523092  1.0000
  C   C9        1.0  0.7417291250139257  0.9048383421392285  0.8595356520080984  1.0000
  C   C10       1.0  0.09516011786330841  0.2582628456328067  0.6404714096552626  1.0000
  C   C11       1.0  0.2582715366682109  0.09515949020292422  0.14046618726745666  1.0000
  C   C12       1.0  0.9048466042923593  0.741746006258566  0.3595293610663434  1.0000
  C   C13       1.0  0.6532977621531655  0.801429484585263  0.860567474662972  1.0000
  C   C14       1.0  0.1985700472479976  0.34670480604582826  0.6394333303179496  1.0000
  C   C15       1.0  0.346708459460551  0.19856654693771958  0.13943753457579794  1.0000
  C   C16       1.0  0.8014241915960411  0.6532920710131052  0.3605653515715589  1.0000
  C   C17       1.0  0.6189774840365061  0.7164240279081183  0.6665641128584953  1.0000
  C   C18       1.0  0.283574296389105  0.381026728773854  0.8334427932071693  1.0000
  C   C19       1.0  0.38102789721154556  0.2835637411956924  0.3334413100404633  1.0000
  C   C20       1.0  0.7164216541873857  0.6189673530914348  0.16655092766843185  1.0000
  C   C21       1.0  0.7035611337089023  0.8246138848451636  0.6697478707959379  1.0000
  C   C22       1.0  0.17538106473390508  0.2964374217024641  0.8302588145932006  1.0000
  C   C23       1.0  0.29644330977117056  0.1753793465543581  0.3302522166407088  1.0000
  C   C24       1.0  0.8246300601020164  0.703568712289055  0.16974546969910176  1.0000
  C   C25       1.0  0.7512829426264673  0.9581988359013065  0.5646412431508382  1.0000
  C   C26       1.0  0.04180010243130282  0.24871733430918405  0.9353679583561391  1.0000
  C   C27       1.0  0.2487131335135118  0.0417981360459478  0.4353680985664143  1.0000
  C   C28       1.0  0.958207462105797  0.7512942531460425  0.06463042658083402  1.0000
  C   C29       1.0  0.6629096908963419  0.0179950347204922  0.5672801185888832  1.0000
  C   C30       1.0  0.982004434447532  0.337089100627793  0.9327207229762708  1.0000
  C   C31       1.0  0.33708343174654937  0.9820009663348299  0.4327236533230591  1.0000
  C   C32       1.0  0.018006019598431122  0.6629206292530085  0.06727473054677804  1.0000
  C   C33       1.0  0.6908927894030228  0.1363221301382609  0.5590032276401757  1.0000
  C   C34       1.0  0.8636724440717385  0.3091004125240104  0.9409911688621622  1.0000
  C   C35       1.0  0.30910356739837425  0.8636729890949231  0.4410042009084451  1.0000
  C   C36       1.0  0.13633478226022078  0.6909019123190419  0.05899806537210854  1.0000
  C   C37       1.0  0.61640095146835  0.28341869991727003  0.6559790720313715  1.0000
  C   C38       1.0  0.7165652675656277  0.3835816901089403  0.8440081490856602  1.0000
  C   C39       1.0  0.38359010312482406  0.716573580031735  0.34401951858111357  1.0000
  C   C40       1.0  0.2834254218528187  0.6164095935492426  0.15598148026875697  1.0000
  C   C41       1.0  0.5385908463541754  0.3562412837073552  0.6542998839345772  1.0000
  C   C42       1.0  0.6437467344739005  0.4613969419568704  0.8456909810003952  1.0000
  C   C43       1.0  0.46139783014532304  0.6437546273199998  0.34569424639490626  1.0000
  C   C44       1.0  0.35624692453799156  0.5385980931363505  0.1543071818944598  1.0000
  C   C45       1.0  0.8653837289866076  0.014309136740806102  0.555730123302226  1.0000
  C   C46       1.0  0.9856896824179984  0.13461602439718232  0.9442782438078584  1.0000
  C   C47       1.0  0.1346141208582878  0.9856933953344864  0.44428473074480496  1.0000
  C   C48       1.0  0.01431438742707766  0.8653900244267232  0.05571741714727806  1.0000
  N   N1        1.0  0.5918694143788343  0.7096386321638946  0.7625789171732722  1.0000
  N   N2        1.0  0.29035798186362166  0.4081338016758096  0.7374298925425367  1.0000
  N   N3        1.0  0.4081421046171698  0.2903547049417767  0.23743216680801996  1.0000
  N   N4        1.0  0.7096454964816912  0.5918648646347008  0.2625616951551706  1.0000
  N   N5        1.0  0.7643377938007632  0.9178685183001531  0.7649817531809051  1.0000
  N   N6        1.0  0.08213235168327061  0.2356581798869257  0.735021109591138  1.0000
  N   N7        1.0  0.23566578435982413  0.0821191901462299  0.23501696523610607  1.0000
  N   N8        1.0  0.9178735598864802  0.7643452038207313  0.2649846206640946  1.0000
  N   N9        1.0  0.7035796949444162  0.2964026043901882  0.7499955416804627  1.0000
  N   N10       1.0  0.29640463562415686  0.703590552451125  0.24999943150713488  1.0000
  N   N11       1.0  0.555425706263989  0.4445628618720932  0.7499922382641772  1.0000
  N   N12       1.0  0.4445670399337445  0.555434896050798  0.25000237184818996  1.0000
  Cl  Cl1       1.0  0.44922250684568615  0.6521249495145299  0.9361273751109781  1.0000
  Cl  Cl2       1.0  0.34787536560433097  0.550773239017701  0.5638771861652218  1.0000
  Cl  Cl3       1.0  0.5507638012119785  0.34788565999416937  0.06386782132273797  1.0000
  Cl  Cl4       1.0  0.6521197800065578  0.44923749577750977  0.4361309648801425  1.0000
  O   O1        1.0  0.8047851171186267  0.99676445217969  0.9605651057981606  1.0000
  O   O2        1.0  0.0032386113038996127  0.19520312073165513  0.5394367950324722  1.0000
  O   O3        1.0  0.19521517777020847  0.0032462044330259  0.03943309806505371  1.0000
  O   O4        1.0  0.9967527493017057  0.8047928607433121  0.46056501881246703  1.0000
  O   O5        1.0  0.7232893386726571  0.837191321747653  0.5701693591702012  1.0000
  O   O6        1.0  0.16281192384695936  0.2767117172148729  0.9298388097561204  1.0000
  O   O7        1.0  0.2767067008458781  0.1628028491179663  0.4298346456044514  1.0000
  O   O8        1.0  0.8371979845753401  0.7232962049311027  0.07016008011805759  1.0000
  O   O9        1.0  0.6010247644437995  0.1955016655864839  0.5575381871200948  1.0000
  O   O10       1.0  0.8044910543552604  0.39896775845245713  0.942450236774157  1.0000
  O   O11       1.0  0.39896713494377417  0.8044961167771233  0.4424593993045536  1.0000
  O   O12       1.0  0.19551297202667678  0.6010354824436205  0.057539296169224506  1.0000
