data_image0
_chemical_formula_structural       Zn2H28C26Br4N4
_chemical_formula_sum              "Zn2 H28 C26 Br4 N4"
_cell_length_a       5.394745952719662
_cell_length_b       10.139812733730833
_cell_length_c       13.025562150416784
_cell_angle_alpha    89.99614952109847
_cell_angle_beta     90.00268173356181
_cell_angle_gamma    90.67730242282974

_space_group_name_H-M_alt    "P 1"
_space_group_IT_number       1

loop_
  _space_group_symop_operation_xyz
  'x, y, z'

loop_
  _atom_site_type_symbol
  _atom_site_label
  _atom_site_symmetry_multiplicity
  _atom_site_fract_x
  _atom_site_fract_y
  _atom_site_fract_z
  _atom_site_occupancy
  Zn  Zn1       1.0  0.4341934009441174  0.7080916915694784  0.7500071577400218  1.0000
  Zn  Zn2       1.0  0.5658111055348627  0.29188916606695864  0.2499907475290185  1.0000
  H   H1        1.0  0.12460371489312647  0.8091172719927328  0.25000025901218936  1.0000
  H   H2        1.0  0.8754024767767915  0.1909444845677939  0.7499999473555617  1.0000
  H   H3        1.0  0.9509831802613887  0.6602706148589019  0.2500063133225011  1.0000
  H   H4        1.0  0.04910606289021759  0.33975753063840125  0.7499985010005542  1.0000
  H   H5        1.0  0.7703329065123654  0.9196705293998518  0.34295366228431584  1.0000
  H   H6        1.0  0.229626740732769  0.0803285942059375  0.8429771004432141  1.0000
  H   H7        1.0  0.2296416834034929  0.080334388550817  0.6570496161391401  1.0000
  H   H8        1.0  0.7703489779513716  0.9196654549414447  0.15701312700997508  1.0000
  H   H9        1.0  0.6164744379376685  0.7639012039172427  0.35153093073336805  1.0000
  H   H10       1.0  0.383524393278904  0.23608583736543656  0.8515514916582417  1.0000
  H   H11       1.0  0.3835272178171962  0.23609251845309126  0.6484662064574493  1.0000
  H   H12       1.0  0.6164841474286931  0.7638999034210768  0.14845178757062877  1.0000
  H   H13       1.0  0.21401001560948169  0.940764040716651  0.41556674990233217  1.0000
  H   H14       1.0  0.7859907270521447  0.0592451282118986  0.9155692624240357  1.0000
  H   H15       1.0  0.7859908399190302  0.059245480580692296  0.5844411349714348  1.0000
  H   H16       1.0  0.21401674905261103  0.9407524685521693  0.08442019750883388  1.0000
  H   H17       1.0  0.457928117633756  0.8898561540946659  0.5748302236917695  1.0000
  H   H18       1.0  0.5420755107383144  0.11012786416674197  0.07482733138996168  1.0000
  H   H19       1.0  0.5420769807768835  0.11013357735009778  0.4251730554028228  1.0000
  H   H20       1.0  0.4579275372194118  0.8898589330514992  0.9251651996646327  1.0000
  H   H21       1.0  0.9895896268751299  0.5767296572969514  0.6478572891601642  1.0000
  H   H22       1.0  0.010395533719901104  0.4232601857706014  0.14784924066335484  1.0000
  H   H23       1.0  0.010382847166482594  0.42327134018859874  0.3521406152963492  1.0000
  H   H24       1.0  0.9895964649314661  0.5767277368695005  0.8521548060784454  1.0000
  H   H25       1.0  0.7285738924751824  0.6146122034781527  0.49394961605094767  1.0000
  H   H26       1.0  0.2714122536921267  0.38539537505707955  0.9939535267065975  1.0000
  H   H27       1.0  0.2714050597178428  0.3854025281138931  0.5060482881119768  1.0000
  H   H28       1.0  0.7285877470532398  0.6146013283463246  0.006050519883004299  1.0000
  C   C1        1.0  0.9346414892445126  0.7682235817339276  0.24999494203577644  1.0000
  C   C2        1.0  0.0653884039577193  0.2318043242909624  0.7500029622568999  1.0000
  C   C3        1.0  0.7994611921554338  0.8124396301111289  0.34756071162200186  1.0000
  C   C4        1.0  0.20053266878579012  0.18756360303275696  0.8475765637644628  1.0000
  C   C5        1.0  0.20053397346217133  0.18756798957044646  0.6524371928729308  1.0000
  C   C6        1.0  0.7994674630264952  0.812435072680785  0.15242057328496367  1.0000
  C   C7        1.0  0.9479121876479936  0.782570548516901  0.44187278635411065  1.0000
  C   C8        1.0  0.05208620262207831  0.2174383721834801  0.9418789973675883  1.0000
  C   C9        1.0  0.05207947007191651  0.21744007571797405  0.5581274211948538  1.0000
  C   C10       1.0  0.9479175030474636  0.7825582848143711  0.058119675208985186  1.0000
  C   C11       1.0  0.1585213069329683  0.8592463896465431  0.4655823001094105  1.0000
  C   C12       1.0  0.8414740983456568  0.14075757923209406  0.9655831763735276  1.0000
  C   C13       1.0  0.8414847776417247  0.1407581317683722  0.5344232817774708  1.0000
  C   C14       1.0  0.15852954140918027  0.8592380918947242  0.034412425343049294  1.0000
  C   C15       1.0  0.29463148686207313  0.8319230518276864  0.5529524609165078  1.0000
  C   C16       1.0  0.7053807666122508  0.1680637170574499  0.05294959295874688  1.0000
  C   C17       1.0  0.7053628245554647  0.16807174952553788  0.4470515856696763  1.0000
  C   C18       1.0  0.2946241341888153  0.8319230566739786  0.9470467767194177  1.0000
  C   C19       1.0  0.03514752612318969  0.6562284678738094  0.5944706508528269  1.0000
  C   C20       1.0  0.964840331015317  0.3437609759317012  0.09446582292994779  1.0000
  C   C21       1.0  0.9648397688261665  0.3437723430872666  0.4055264860236177  1.0000
  C   C22       1.0  0.035157225448422494  0.6562268767826112  0.905537456143584  1.0000
  C   C23       1.0  0.8893464301215559  0.6781618870116617  0.5082006689268894  1.0000
  C   C24       1.0  0.1106431200627611  0.32184478676946077  0.008201983928529397  1.0000
  C   C25       1.0  0.11063768565146148  0.32184685849276917  0.49179953860102177  1.0000
  C   C26       1.0  0.8893550279289713  0.6781519400539365  0.9917997594798745  1.0000
  Br  Br1       1.0  0.5595785008853582  0.48304231515199086  0.7500547874310824  1.0000
  Br  Br2       1.0  0.4404280563605099  0.5169414764770436  0.24995923992626246  1.0000
  Br  Br3       1.0  0.7272792328909077  0.8897078551216282  0.7499982736128741  1.0000
  Br  Br4       1.0  0.2727122395641004  0.1102721797148405  0.2500003992786332  1.0000
  N   N1        1.0  0.23352256827454448  0.7325615639957092  0.6173900607510632  1.0000
  N   N2        1.0  0.7664751142531255  0.26742184744945513  0.11738167118230787  1.0000
  N   N3        1.0  0.7664751851708331  0.2674292468997663  0.3826093796422824  1.0000
  N   N4        1.0  0.23352065501287458  0.7325670148232034  0.8826162338005332  1.0000
