data_image0
_chemical_formula_structural       Cu2H32C22N4O16
_chemical_formula_sum              "Cu2 H32 C22 N4 O16"
_cell_length_a       6.822590518189288
_cell_length_b       9.76694628168845
_cell_length_c       11.934610086159987
_cell_angle_alpha    72.82021169576923
_cell_angle_beta     73.3887029068844
_cell_angle_gamma    69.55456144523654

_space_group_name_H-M_alt    "P 1"
_space_group_IT_number       1

loop_
  _space_group_symop_operation_xyz
  'x, y, z'

loop_
  _atom_site_type_symbol
  _atom_site_label
  _atom_site_symmetry_multiplicity
  _atom_site_fract_x
  _atom_site_fract_y
  _atom_site_fract_z
  _atom_site_occupancy
  Cu  Cu1       1.0  2.518130195181041e-06  1.0439428900567387e-08  0.9999974861356475  1.0000
  Cu  Cu2       1.0  1.5152538994366297e-06  0.5000021632965429  0.4999982807347577  1.0000
  H   H1        1.0  0.7610483464758536  0.8294671472817258  0.8300536597518683  1.0000
  H   H2        1.0  0.4205553532590049  0.6704983124326703  0.6700016069334891  1.0000
  H   H3        1.0  0.2389519699104101  0.17053277320658108  0.16994735152628943  1.0000
  H   H4        1.0  0.5794437098754914  0.3295004941242894  0.32999825466151816  1.0000
  H   H5        1.0  0.6196904995213047  0.9167834959337715  0.9495830633157281  1.0000
  H   H6        1.0  0.4860965782582344  0.5832212106624226  0.5504653016239515  1.0000
  H   H7        1.0  0.3803076993285473  0.0832164221449574  0.05041853393965563  1.0000
  H   H8        1.0  0.5139042267268156  0.41677647527266964  0.4495350041753665  1.0000
  H   H9        1.0  0.0835518420911901  0.9786953917024944  0.6787457392135818  1.0000
  H   H10       1.0  0.7411010417617027  0.5215211469493752  0.8211860563838582  1.0000
  H   H11       1.0  0.9164480355121328  0.021304533335850803  0.32125418213223594  1.0000
  H   H12       1.0  0.25890185585184633  0.4784776563968763  0.17881456114383093  1.0000
  H   H13       1.0  0.13769394403563992  0.803753850614747  0.7811452964457712  1.0000
  H   H14       1.0  0.7228910623460723  0.6963584833891473  0.7186909916637345  1.0000
  H   H15       1.0  0.8623059335676759  0.19624607442359823  0.21885462490004653  1.0000
  H   H16       1.0  0.2771092789481103  0.3036403220975785  0.2813091219088334  1.0000
  H   H17       1.0  0.6145316206309419  0.1492624259987281  0.87460314337126  1.0000
  H   H18       1.0  0.6385106173888251  0.35082768600171477  0.6254018320289203  1.0000
  H   H19       1.0  0.38546741759564196  0.8507374955598125  0.12539761592934423  1.0000
  H   H20       1.0  0.3614888845286261  0.6491711160051993  0.374599119498427  1.0000
  H   H21       1.0  0.7005068007086811  0.0961222110460938  0.7346987100583744  1.0000
  H   H22       1.0  0.5313879658640989  0.40398398971068167  0.7652829995392946  1.0000
  H   H23       1.0  0.29949223751790305  0.9038777105124468  0.26530204924222983  1.0000
  H   H24       1.0  0.46861235052216477  0.5960159307776253  0.23471801173887022  1.0000
  H   H25       1.0  0.8956106539174236  0.27731114387011513  0.8202354673741251  1.0000
  H   H26       1.0  0.9931599594962258  0.22263782492790804  0.6798531782726581  1.0000
  H   H27       1.0  0.10438966246884018  0.7226887766181848  0.1797655439040397  1.0000
  H   H28       1.0  0.006838615039491617  0.7773632161822662  0.320147388801196  1.0000
  H   H29       1.0  0.8302342279301204  0.5500077687675712  0.10128285879196838  1.0000
  H   H30       1.0  0.4815444173287063  0.9500204527609741  0.39877346209171777  1.0000
  H   H31       1.0  0.16976736661582265  0.44999215065049486  0.8987184044637571  1.0000
  H   H32       1.0  0.5184538313369774  0.049977235314585804  0.6012263397524719  1.0000
  C   C1        1.0  0.2934899692475601  0.9510829185428592  0.7930179837354671  1.0000
  C   C2        1.0  0.037819893466491096  0.5488649149660676  0.7069280668206231  1.0000
  C   C3        1.0  0.7065099083557557  0.04891700649549341  0.20698193761035796  1.0000
  C   C4        1.0  0.962181262296504  0.4511350090020515  0.2930721065027553  1.0000
  C   C5        1.0  0.7817639632824515  0.8646614552253666  0.9043761639661478  1.0000
  C   C6        1.0  0.5508062612376683  0.6353677342787236  0.5956610493701076  1.0000
  C   C7        1.0  0.21823551372708042  0.13533846178312814  0.09562568526680337  1.0000
  C   C8        1.0  0.449193616365648  0.3646321907596217  0.4043388719757102  1.0000
  C   C9        1.0  0.10144549899559493  0.9249980816039316  0.7717807769858209  1.0000
  C   C10       1.0  0.7983723607364586  0.5751053765589946  0.7281595299262232  1.0000
  C   C11       1.0  0.8985551930765329  0.075002961915807  0.22821920411081445  1.0000
  C   C12       1.0  0.20162496054749837  0.42489455061982545  0.27183988746447324  1.0000
  C   C13       1.0  0.7553169158532078  0.11942427401908869  0.8037956949679311  1.0000
  C   C14       1.0  0.6786041611212075  0.3806316184713553  0.6962278750335356  1.0000
  C   C15       1.0  0.24468212237337664  0.8805756475394518  0.1962050643326733  1.0000
  C   C16       1.0  0.32139487710537684  0.6193683030871853  0.30377288426706867  1.0000
  C   C17       1.0  0.8505441256130699  0.2500163224098983  0.7500199297784034  1.0000
  C   C18       1.0  0.1494552882993861  0.7499847221800805  0.24997979934067152  1.0000
  C   C19       1.0  0.8845943287643866  0.7292388459560044  0.9911878049898701  1.0000
  C   C20       1.0  0.6049732004607625  0.7708068789771974  0.5088585166497307  1.0000
  C   C21       1.0  0.11540764146742793  0.2707621964935072  0.008812428084318868  1.0000
  C   C22       1.0  0.39502548698786943  0.22919080454832405  0.4911423751268058  1.0000
  N   N1        1.0  0.901219311543145  0.976890798414864  0.8587472729072227  1.0000
  N   N2        1.0  0.736938759136365  0.5231684221534324  0.6412636549876537  1.0000
  N   N3        1.0  0.09878010236930386  0.023110246175122008  0.14125245621184485  1.0000
  N   N4        1.0  0.26306286031749704  0.47683038226305297  0.35873671056246775  1.0000
  O   O1        1.0  0.4661088868158036  0.9278521877186564  0.7169623847241408  1.0000
  O   O2        1.0  0.11123913378141763  0.5720505160692397  0.782960676625869  1.0000
  O   O3        1.0  0.5338905520045645  0.07214774186974177  0.283036446689337  1.0000
  O   O4        1.0  0.8887611826048529  0.42794940441906704  0.2170403346522887  1.0000
  O   O5        1.0  0.2733231945221853  0.9916294989533013  0.8899887862295939  1.0000
  O   O6        1.0  0.15518448384639094  0.5082025356994748  0.6099988148534976  1.0000
  O   O7        1.0  0.7266771218640786  0.008370421535005298  0.11001222504857104  1.0000
  O   O8        1.0  0.8448166719166043  0.491797388268644  0.39000135846988093  1.0000
  O   O9        1.0  0.7655542955413001  0.6356661850806304  0.03693596716109924  1.0000
  O   O10       1.0  0.4381122050594047  0.8643493738889275  0.4630730323031214  1.0000
  O   O11       1.0  0.23444555715410334  0.36433485495930273  0.9630648518903157  1.0000
  O   O12       1.0  0.5618864192921508  0.13564943721807773  0.536925739359546  1.0000
  O   O13       1.0  0.05558969731681903  0.7110743023752377  0.017227278109217477  1.0000
  O   O14       1.0  0.7838112947280185  0.7889969876518778  0.48285029297269205  1.0000
  O   O15       1.0  0.9444131122917205  0.2889267435540858  0.9827721170101921  1.0000
  O   O16       1.0  0.21618646533888622  0.21100293497689654  0.5171502143503515  1.0000
