data_image0
_chemical_formula_structural       Cu12H40C24N12Cl16
_chemical_formula_sum              "Cu12 H40 C24 N12 Cl16"
_cell_length_a       8.8779445551004
_cell_length_b       9.92606972698556
_cell_length_c       14.254008919016139
_cell_angle_alpha    89.99984514375572
_cell_angle_beta     90.00008475141408
_cell_angle_gamma    94.22612076478669

_space_group_name_H-M_alt    "P 1"
_space_group_IT_number       1

loop_
  _space_group_symop_operation_xyz
  'x, y, z'

loop_
  _atom_site_type_symbol
  _atom_site_label
  _atom_site_symmetry_multiplicity
  _atom_site_fract_x
  _atom_site_fract_y
  _atom_site_fract_z
  _atom_site_occupancy
  Cu  Cu1       1.0  0.38660160839210533  0.3070609520191355  0.3558050529313661  1.0000
  Cu  Cu2       1.0  0.11339810310082042  0.1929433363432906  0.8558040214757839  1.0000
  Cu  Cu3       1.0  0.6134008934051282  0.6929371731422194  0.6441945392564321  1.0000
  Cu  Cu4       1.0  0.8866015898090897  0.8070618555684775  0.14419557070411324  1.0000
  Cu  Cu5       1.0  0.43199792137497905  0.4747058916013601  0.20711762338217451  1.0000
  Cu  Cu6       1.0  0.06800123339665733  0.025295924747346998  0.7071175666631859  1.0000
  Cu  Cu7       1.0  0.5680024089157741  0.525293240690111  0.7928784610186029  1.0000
  Cu  Cu8       1.0  0.9320015944833745  0.9747062411926066  0.2928799208499129  1.0000
  Cu  Cu9       1.0  0.5803974562565629  0.6454023119085762  0.024949832142382902  1.0000
  Cu  Cu10      1.0  0.9196059031247616  0.85459716629844  0.5249515818086508  1.0000
  Cu  Cu11      1.0  0.4195994945025207  0.3545968157697743  0.9750504615989756  1.0000
  Cu  Cu12      1.0  0.08039418260886323  0.14539893540018767  0.47505081660802523  1.0000
  H   H1        1.0  0.6729980008246845  0.9745504466150123  0.7361775476241236  1.0000
  H   H2        1.0  0.8270037935520024  0.5254512655938582  0.23617764997323584  1.0000
  H   H3        1.0  0.3270001579684206  0.025449692790751  0.2638234476738504  1.0000
  H   H4        1.0  0.17300024236352138  0.474551912070865  0.7638219422105268  1.0000
  H   H5        1.0  0.5097171644534628  0.9243338192727393  0.785030443563713  1.0000
  H   H6        1.0  0.990286740948193  0.5756646818985162  0.2850320031290323  1.0000
  H   H7        1.0  0.49028453691748564  0.07566834512687143  0.2149698501769564  1.0000
  H   H8        1.0  0.009714960424965096  0.424337482497144  0.7149703952826912  1.0000
  H   H9        1.0  0.6510598281665099  0.2339625134787653  0.6503918398815358  1.0000
  H   H10       1.0  0.8489429898954415  0.2660365635016646  0.15039151095639625  1.0000
  H   H11       1.0  0.3489391310506634  0.7660335866926999  0.3496063491925128  1.0000
  H   H12       1.0  0.15106813117651546  0.7339706641494247  0.849607379669763  1.0000
  H   H13       1.0  0.6860537668201021  0.08297165520490071  0.5899381275068549  1.0000
  H   H14       1.0  0.8139468343432201  0.4170296661951127  0.08993888674621081  1.0000
  H   H15       1.0  0.31394752694532724  0.9170254582250905  0.4100628677953822  1.0000
  H   H16       1.0  0.18605832808948725  0.5829735129954585  0.9100656163371923  1.0000
  H   H17       1.0  0.39892025054998476  0.12417031479799331  0.7074922556495055  1.0000
  H   H18       1.0  0.10108228454497953  0.37583150474723237  0.2074928988502549  1.0000
  H   H19       1.0  0.6010801612634894  0.8758298276844984  0.2925052318644035  1.0000
  H   H20       1.0  0.8989231224477906  0.6241747050309031  0.7925080964453243  1.0000
  H   H21       1.0  0.4328116776290118  0.9752798709373778  0.6438188595023178  1.0000
  H   H22       1.0  0.06719048347030572  0.5247231264543046  0.1438187272827491  1.0000
  H   H23       1.0  0.5671885711441719  0.024718251153842602  0.3561807326844644  1.0000
  H   H24       1.0  0.9328139600529471  0.47528510217608744  0.8561822680104996  1.0000
  H   H25       1.0  0.4927939835801995  0.1285574474145861  0.8696887690690147  1.0000
  H   H26       1.0  0.007209529416172701  0.3714377031909564  0.36968652902971405  1.0000
  H   H27       1.0  0.5071999952483212  0.8714467266281788  0.13031082310924802  1.0000
  H   H28       1.0  0.9927919273910254  0.6285614306276771  0.6303137647136836  1.0000
  H   H29       1.0  0.6544618436011619  0.2040522444125941  0.809676882756186  1.0000
  H   H30       1.0  0.8455334232825467  0.29594622344432514  0.3096750915310055  1.0000
  H   H31       1.0  0.34554211079310454  0.7959499230584725  0.1903227094284858  1.0000
  H   H32       1.0  0.15446916003299552  0.7040529119159659  0.6903216944278086  1.0000
  H   H33       1.0  0.823580719872432  0.04941973554431199  0.8803779162045446  1.0000
  H   H34       1.0  0.6764274946862657  0.4505835345580637  0.38038059230564863  1.0000
  H   H35       1.0  0.1764159048082733  0.9505753513475387  0.11962869155362202  1.0000
  H   H36       1.0  0.3235738805982039  0.5494145890695422  0.6196182983246246  1.0000
  H   H37       1.0  0.7223256609173704  0.12756096931286012  0.9696691680533507  1.0000
  H   H38       1.0  0.7776815330637066  0.37244095363210766  0.4696671717516168  1.0000
  H   H39       1.0  0.27766815487085955  0.8724411843386334  0.030332528797785606  1.0000
  H   H40       1.0  0.222317833757515  0.6275601975116061  0.5303289126468229  1.0000
  C   C1        1.0  0.5209661074255579  0.1945700133456327  0.5328136676655504  1.0000
  C   C2        1.0  0.9790378348645776  0.30543253745406673  0.0328126814413707  1.0000
  C   C3        1.0  0.47903969238577576  0.8054271062285849  0.4671852229676717  1.0000
  C   C4        1.0  0.020963066073456108  0.6945736661956516  0.9671819998389993  1.0000
  C   C5        1.0  0.5958072613562425  0.1450666887826486  0.6144686710156576  1.0000
  C   C6        1.0  0.9041932282663726  0.3549325200739659  0.11447103177658143  1.0000
  C   C7        1.0  0.40419652999405314  0.8549334583037338  0.3855295180567992  1.0000
  C   C8        1.0  0.09580339640329073  0.645062566837659  0.8855250526263063  1.0000
  C   C9        1.0  0.48709133581193254  0.06347748403119619  0.6797310398129568  1.0000
  C   C10       1.0  0.012913475546199  0.4365254530665013  0.17973219067948784  1.0000
  C   C11       1.0  0.5129110029442787  0.9365186207402019  0.32026995549069437  1.0000
  C   C12       1.0  0.9870838012986243  0.5634777153851759  0.8202688046152462  1.0000
  C   C13       1.0  0.6020815646996812  0.1097118262273753  0.8386989581806931  1.0000
  C   C14       1.0  0.897917550256729  0.39029158817572096  0.33869773914970125  1.0000
  C   C15       1.0  0.39791538605940263  0.8902873014509826  0.16130133556066542  1.0000
  C   C16       1.0  0.10208648565436823  0.609711589496911  0.6612976436919453  1.0000
  C   C17       1.0  0.7099258543346211  0.0557555942611998  0.9108955889668239  1.0000
  C   C18       1.0  0.7900803343115685  0.4442495785147428  0.4108976785999516  1.0000
  C   C19       1.0  0.2900674723312521  0.9442404982191093  0.0891110187888984  1.0000
  C   C20       1.0  0.20991999598433614  0.5557495537674981  0.5891033166999549  1.0000
  C   C21       1.0  0.6586850331527361  0.9243829756685998  0.9476556374046652  1.0000
  C   C22       1.0  0.8413194582324267  0.5756179451552728  0.4476570617831328  1.0000
  C   C23       1.0  0.34130395050384277  0.07561513106534791  0.0523474625621105  1.0000
  C   C24       1.0  0.15868030141840717  0.4243741157647635  0.5523474413082425  1.0000
  N   N1        1.0  0.4652997859539241  0.23707027448112686  0.4659727575928088  1.0000
  N   N2        1.0  0.03470007530523131  0.2629325898273294  0.9659701202984721  1.0000
  N   N3        1.0  0.5347045612625863  0.7629228027794284  0.5340282377146011  1.0000
  N   N4        1.0  0.9652988171747129  0.7370766413292812  0.0340266656492005  1.0000
  N   N5        1.0  0.5718660123669823  0.011390774295129804  0.7608704056871504  1.0000
  N   N6        1.0  0.9281384902305024  0.4886119299698066  0.2608669250353017  1.0000
  N   N7        1.0  0.42813544444095447  0.9886083595221818  0.2391305896132678  1.0000
  N   N8        1.0  0.07185878661579892  0.5113912384792343  0.739135473373473  1.0000
  N   N9        1.0  0.6176318426326265  0.8167562199885693  0.9741338846814572  1.0000
  N   N10       1.0  0.8823780108181513  0.6832405682637273  0.4741365476170358  1.0000
  N   N11       1.0  0.382351753026832  0.1832449096523305  0.025868513723011702  1.0000
  N   N12       1.0  0.11762633639762754  0.3167525089981424  0.5258637461333535  1.0000
  Cl  Cl1       1.0  0.16730306394394032  0.14938123429126898  0.31302275110887484  1.0000
  Cl  Cl2       1.0  0.3326973581567999  0.35061917555192684  0.8130209215313472  1.0000
  Cl  Cl3       1.0  0.8326948502839288  0.8506158745361533  0.6869768410777938  1.0000
  Cl  Cl4       1.0  0.6673043432119389  0.6493829888516345  0.18697726753826768  1.0000
  Cl  Cl5       1.0  0.2993424890118278  0.5191513336357616  0.3401229103978949  1.0000
  Cl  Cl6       1.0  0.20065211711052205  0.9808499053638897  0.8401249260212184  1.0000
  Cl  Cl7       1.0  0.7006588047506528  0.48084577979950177  0.6598752786762674  1.0000
  Cl  Cl8       1.0  0.7993430697520058  0.019155280406287997  0.15987536771366  1.0000
  Cl  Cl9       1.0  0.661266723695711  0.4619979842129922  0.9368598111968965  1.0000
  Cl  Cl10      1.0  0.8387284025943916  0.0379949548895624  0.4368591991063866  1.0000
  Cl  Cl11      1.0  0.3387292635931091  0.5380031623189366  0.0631397809851109  1.0000
  Cl  Cl12      1.0  0.16127610766461942  0.9620001427583134  0.5631417961991971  1.0000
  Cl  Cl13      1.0  0.5633006835305923  0.2866043739805376  0.22774153105803663  1.0000
  Cl  Cl14      1.0  0.9366980354388591  0.2133974368604967  0.7277428594991591  1.0000
  Cl  Cl15      1.0  0.4367009363161643  0.7133967802306813  0.7722559564554674  1.0000
  Cl  Cl16      1.0  0.0633001233549777  0.7866027025439523  0.2722588373558352  1.0000
