data_image0
_chemical_formula_structural       AgH6C14N7O3
_chemical_formula_sum              "Ag1 H6 C14 N7 O3"
_cell_length_a       5.24957726064466
_cell_length_b       5.6750222726507245
_cell_length_c       13.26837260833287
_cell_angle_alpha    99.62998038940304
_cell_angle_beta     98.09527462687628
_cell_angle_gamma    98.72549164967332

_space_group_name_H-M_alt    "P 1"
_space_group_IT_number       1

loop_
  _space_group_symop_operation_xyz
  'x, y, z'

loop_
  _atom_site_type_symbol
  _atom_site_label
  _atom_site_symmetry_multiplicity
  _atom_site_fract_x
  _atom_site_fract_y
  _atom_site_fract_z
  _atom_site_occupancy
  Ag  Ag1       1.0  0.5398009365381853  0.3916832177050438  0.00815488375691589  1.0000
  H   H1        1.0  0.6733081488370587  0.8264839921187883  0.20049930293419038  1.0000
  H   H2        1.0  0.4356157957327795  0.5915451740417978  0.7992954766609585  1.0000
  H   H3        1.0  0.9853437885494927  0.9668966886237983  0.3669112728510271  1.0000
  H   H4        1.0  0.6010203442910154  0.5802900431693984  0.6321339472947116  1.0000
  H   H5        1.0  0.003100468204522111  0.2143294737304586  0.1221964502948083  1.0000
  H   H6        1.0  0.8490449001547162  0.0619818714722911  0.8800889620997836  1.0000
  C   C1        1.0  0.820914009280109  0.7201159800904832  0.22235990115586185  1.0000
  C   C2        1.0  0.5683812625766577  0.46857619804415407  0.778229657322356  1.0000
  C   C3        1.0  0.9969653250897893  0.800039741445076  0.3149362325981997  1.0000
  C   C4        1.0  0.6607276916528875  0.462810208569067  0.6846846736934964  1.0000
  C   C5        1.0  0.18991317327538584  0.6636583839748411  0.3387656185007444  1.0000
  C   C6        1.0  0.8347449179913082  0.30645911088010547  0.6609684225335002  1.0000
  C   C7        1.0  0.193747202307776  0.44788517773187647  0.2683656959551044  1.0000
  C   C8        1.0  0.9027509724232344  0.1563571379287509  0.7318011037981335  1.0000
  C   C9        1.0  0.004805693552988547  0.3796641556567409  0.1779140179353149  1.0000
  C   C10       1.0  0.7967894968815659  0.1733057897369648  0.8234971602109552  1.0000
  C   C11       1.0  0.38345024947276585  0.741106779705959  0.42984676216242684  1.0000
  C   C12       1.0  0.9482200975109975  0.3014607570718296  0.5694387326726371  1.0000
  C   C13       1.0  0.38366689685000926  0.29939370833720597  0.2868675371814149  1.0000
  C   C14       1.0  0.07647821199917366  0.9908841203738773  0.7131755871168507  1.0000
  N   N1        1.0  0.8230930936288203  0.5139449231267933  0.1555082649721271  1.0000
  N   N2        1.0  0.6352407278990525  0.32816186282576604  0.8463145281224271  1.0000
  N   N3        1.0  0.5482370751261599  0.8030628752749608  0.5024935315723056  1.0000
  N   N4        1.0  0.048976841235386814  0.29834749991345433  0.49642626932890727  1.0000
  N   N5        1.0  0.5373361045667409  0.17398409639684329  0.2997787129737262  1.0000
  N   N6        1.0  0.21863645332577158  0.8532953191392136  0.7006642570731073  1.0000
  N   N7        1.0  0.3102807319393435  0.8580488627771387  0.9973058011521798  1.0000
  O   O1        1.0  0.18664895135034237  0.03478166985497919  0.9940137842270146  1.0000
  O   O2        1.0  0.5578533802605891  0.8994507631029975  0.018081326142855386  1.0000
  O   O3        1.0  0.18340125881930897  0.642401519967862  0.9792805805152867  1.0000
