data_image0
_chemical_formula_structural       CuMo4H30C42N6O13
_chemical_formula_sum              "Cu1 Mo4 H30 C42 N6 O13"
_cell_length_a       8.145438436456553
_cell_length_b       9.301353711477006
_cell_length_c       13.852416262518819
_cell_angle_alpha    78.59304923778237
_cell_angle_beta     83.14399620726623
_cell_angle_gamma    77.56630987508522

_space_group_name_H-M_alt    "P 1"
_space_group_IT_number       1

loop_
  _space_group_symop_operation_xyz
  'x, y, z'

loop_
  _atom_site_type_symbol
  _atom_site_label
  _atom_site_symmetry_multiplicity
  _atom_site_fract_x
  _atom_site_fract_y
  _atom_site_fract_z
  _atom_site_occupancy
  Cu  Cu1       1.0  1.3288919121089208e-06  0.9999990742481658  4.6818261977559543e-07  1.0000
  Mo  Mo1       1.0  0.19985064805493377  0.38503873122468246  0.9478948211445157  1.0000
  Mo  Mo2       1.0  0.8001531578436457  0.6149579020217929  0.052103184460989355  1.0000
  Mo  Mo3       1.0  0.3359123798374667  0.6827598204204508  0.0734513974171449  1.0000
  Mo  Mo4       1.0  0.6640896745017882  0.3172390500129154  0.9265500414266512  1.0000
  H   H1        1.0  0.37936840333541266  0.0738703351305574  0.05240426254778191  1.0000
  H   H2        1.0  0.6206390423991693  0.926131940367327  0.947595617265449  1.0000
  H   H3        1.0  0.43176080276297313  0.9005207586123094  0.2083643845435006  1.0000
  H   H4        1.0  0.5682448893192175  0.09948374394240031  0.791635320528428  1.0000
  H   H5        1.0  0.17670847908916437  0.2605388699717608  0.3608224400489277  1.0000
  H   H6        1.0  0.8232893519441545  0.7394622009772222  0.6391768362881649  1.0000
  H   H7        1.0  0.1308926393606029  0.4191052844880261  0.19611124967029525  1.0000
  H   H8        1.0  0.8691054509808748  0.5808946657907371  0.8038874366971243  1.0000
  H   H9        1.0  0.5452484329178588  0.8154814700956763  0.33002828732836775  1.0000
  H   H10       1.0  0.45474939811546017  0.18451960085330654  0.6699709890087248  1.0000
  H   H11       1.0  0.45661449051243613  0.700842606272346  0.6441954032539527  1.0000
  H   H12       1.0  0.5433843149929629  0.2991595935524174  0.3558036529457169  1.0000
  H   H13       1.0  0.1503087066472801  0.09117841763112011  0.48546288270670596  1.0000
  H   H14       1.0  0.8496891239674226  0.9088226512918427  0.5145356720344694  1.0000
  H   H15       1.0  0.8640543568629439  0.3073192987737414  0.6386638841962408  1.0000
  H   H16       1.0  0.1359432169552832  0.6926829029755269  0.3613395900901324  1.0000
  H   H17       1.0  0.640095493888296  0.5229460123308485  0.646537884756725  1.0000
  H   H18       1.0  0.3599037678914812  0.4770595597361478  0.3534628528407922  1.0000
  H   H19       1.0  0.7100688170497307  0.630219935792404  0.3262200399054223  1.0000
  H   H20       1.0  0.2899245974789438  0.3697788609938614  0.6737812969207296  1.0000
  H   H21       1.0  0.936036666566935  0.4140258609481863  0.3334530891663974  1.0000
  H   H22       1.0  0.06395505832574601  0.5859695574162842  0.6665480979649344  1.0000
  H   H23       1.0  0.004802262778632397  0.2017076139012488  0.7992812234997756  1.0000
  H   H24       1.0  0.99519634869084  0.7982901071931608  0.20072061250381515  1.0000
  H   H25       1.0  0.1286301363064268  0.16884689276090373  0.630143288892512  1.0000
  H   H26       1.0  0.8713664617838788  0.8311541740345306  0.3698582407435254  1.0000
  H   H27       1.0  0.2470813416939563  0.6923623358833028  0.7427523396317283  1.0000
  H   H28       1.0  0.7529204508254637  0.3076376430642043  0.2572453596062232  1.0000
  H   H29       1.0  0.11713211125204741  0.7446616261078206  0.9032339215592485  1.0000
  H   H30       1.0  0.8828707218489101  0.2553338863669267  0.0967671905673626  1.0000
  C   C1        1.0  0.337907410451315  0.11197581799728341  0.12231762507015992  1.0000
  C   C2        1.0  0.6620963331053317  0.8880264288318643  0.877683241872539  1.0000
  C   C3        1.0  0.3673405730332391  0.0151993297524839  0.21089660068019359  1.0000
  C   C4        1.0  0.6326621952141023  0.98480178414885  0.7891030432080938  1.0000
  C   C5        1.0  0.3107618810734039  0.06447319675292823  0.3009808928734259  1.0000
  C   C6        1.0  0.6892371841587631  0.9355278844276356  0.6990182949524877  1.0000
  C   C7        1.0  0.2243555470467413  0.21361465335814242  0.29444539744405757  1.0000
  C   C8        1.0  0.775644037638969  0.7863841905340154  0.7055540536343442  1.0000
  C   C9        1.0  0.19867838938333895  0.3036608781509713  0.2022349055178196  1.0000
  C   C10       1.0  0.8013194412313639  0.6963401907719984  0.7977636492233555  1.0000
  C   C11       1.0  0.34451174872869217  0.9641965290761765  0.39651347892302596  1.0000
  C   C12       1.0  0.655488810010482  0.03580344166575601  0.6034850304220284  1.0000
  C   C13       1.0  0.47310013503579995  0.8365584556640543  0.39870329238556207  1.0000
  C   C14       1.0  0.5268982154510622  0.16344037799651548  0.6012962472040257  1.0000
  C   C15       1.0  0.5149375401603251  0.7381833723373958  0.4866005696361952  1.0000
  C   C16       1.0  0.4850610696346962  0.2618143406529612  0.5133983799837125  1.0000
  C   C17       1.0  0.4242078145959739  0.7722065616349738  0.5741843525221881  1.0000
  C   C18       1.0  0.5757897562919536  0.2277956259321955  0.42581407059273607  1.0000
  C   C19       1.0  0.2944322482943775  0.898655257204233  0.5748748954120088  1.0000
  C   C20       1.0  0.7055668169377968  0.101345823976331  0.4251242924139048  1.0000
  C   C21       1.0  0.25401538369582255  0.9945089806024684  0.48556724141185004  1.0000
  C   C22       1.0  0.7459819283025624  0.0054943296609338025  0.5144324932686786  1.0000
  C   C23       1.0  0.8300844173449989  0.3825169892002833  0.5698915765234032  1.0000
  C   C24       1.0  0.16991120669184312  0.6174829507453837  0.43011089484598125  1.0000
  C   C25       1.0  0.7004304679312552  0.506844940220553  0.5740284090748276  1.0000
  C   C26       1.0  0.2995673647765145  0.4931561388324823  0.4259737536459482  1.0000
  C   C27       1.0  0.6519347339734837  0.6043970106381735  0.4866870249776767  1.0000
  C   C28       1.0  0.3480608892261259  0.39560292525546714  0.5133140031998663  1.0000
  C   C29       1.0  0.7397362142873761  0.5662142678590032  0.3988331343016255  1.0000
  C   C30       1.0  0.2602589534750877  0.4337822998444311  0.6011676556699115  1.0000
  C   C31       1.0  0.8690204881683954  0.4407178881179306  0.4025744633374799  1.0000
  C   C32       1.0  0.13097266663351087  0.5592820273125341  0.597426741862428  1.0000
  C   C33       1.0  0.0602508591625579  0.0909456231757417  0.7828485392335551  1.0000
  C   C34       1.0  0.9397504791755508  0.9090509936595981  0.21715108658614918  1.0000
  C   C35       1.0  0.130160554448004  0.07113009831434881  0.6885842215796244  1.0000
  C   C36       1.0  0.8698390310749387  0.9288687496298352  0.3114166726906191  1.0000
  C   C37       1.0  0.2061889333597478  0.9272027862892216  0.6706599119070233  1.0000
  C   C38       1.0  0.7938123401247453  0.07279943197270461  0.3293382456743642  1.0000
  C   C39       1.0  0.19885525043290636  0.8084154241123472  0.750129574465788  1.0000
  C   C40       1.0  0.8011455701261099  0.19158343811545112  0.2498726744851112  1.0000
  C   C41       1.0  0.12469444887486252  0.8361811652288441  0.8415484563771612  1.0000
  C   C42       1.0  0.8753093570237241  0.16381546801763144  0.1584495492283438  1.0000
  N   N1        1.0  0.25466180098106145  0.2549833784504685  0.11671117874210069  1.0000
  N   N2        1.0  0.7453379794150264  0.7450199522760955  0.8832883789160632  1.0000
  N   N3        1.0  0.916945093806298  0.3479257244737042  0.486164817914883  1.0000
  N   N4        1.0  0.08305202373755091  0.652073105033324  0.5138369749736427  1.0000
  N   N5        1.0  0.05994102956676522  0.9752862153998341  0.8588883075205513  1.0000
  N   N6        1.0  0.9400597901550185  0.024712642775931208  0.14111249823850608  1.0000
  O   O1        1.0  0.1248972337537495  0.22461474567462864  0.9485293635984035  1.0000
  O   O2        1.0  0.8751115076844016  0.7753819224201521  0.05146612317461317  1.0000
  O   O3        1.0  0.9999996219192937  0.4999981118593766  0.9999976019385882  1.0000
  O   O4        1.0  0.1996806294989497  0.47228241511009367  0.826194653762556  1.0000
  O   O5        1.0  0.8003310374485082  0.5277176497421082  0.17380378057778498  1.0000
  O   O6        1.0  0.30578796089724847  0.5527798204610336  0.001317278248073687  1.0000
  O   O7        1.0  0.6942116250443036  0.44721902950916365  0.998684337618087  1.0000
  O   O8        1.0  0.44464161611212205  0.29349139814788566  0.9368217935311022  1.0000
  O   O9        1.0  0.5553631659329951  0.7065063720784295  0.06317887832065588  1.0000
  O   O10       1.0  0.2745448632604806  0.6228623264982005  0.1958455336912124  1.0000
  O   O11       1.0  0.7254581651322384  0.37713767078494  0.8041549634192362  1.0000
  O   O12       1.0  0.21345605174987264  0.8618507545960201  0.03353400929888288  1.0000
  O   O13       1.0  0.7865472359510052  0.13814812201690072  0.9664658978418927  1.0000
