data_image0
_chemical_formula_structural       H20Pb2C12S4N12O2
_chemical_formula_sum              "H20 Pb2 C12 S4 N12 O2"
_cell_length_a       7.499820669253969
_cell_length_b       9.357462898990219
_cell_length_c       9.09294750883633
_cell_angle_alpha    92.15775593024895
_cell_angle_beta     114.37511468773897
_cell_angle_gamma    90.01085974611158

_space_group_name_H-M_alt    "P 1"
_space_group_IT_number       1

loop_
  _space_group_symop_operation_xyz
  'x, y, z'

loop_
  _atom_site_type_symbol
  _atom_site_label
  _atom_site_symmetry_multiplicity
  _atom_site_fract_x
  _atom_site_fract_y
  _atom_site_fract_z
  _atom_site_occupancy
  H   H1        1.0  0.8488780353591493  0.18490352495832235  0.931685799589545  1.0000
  H   H2        1.0  0.9170537447684378  0.3144969187460659  0.06802551231541529  1.0000
  H   H3        1.0  0.15117191239993127  0.8151041662953913  0.0683278388571722  1.0000
  H   H4        1.0  0.08295124175382537  0.6855247624262616  0.9319769451233102  1.0000
  H   H5        1.0  0.053843861920192596  0.5765663124695521  0.3330532579705335  1.0000
  H   H6        1.0  0.7208867468840124  0.9227412221547338  0.666403860505085  1.0000
  H   H7        1.0  0.9461487138147073  0.42342196848844776  0.6669797525357879  1.0000
  H   H8        1.0  0.27912988591612015  0.07727608614160889  0.33361111114025743  1.0000
  H   H9        1.0  0.5820694425578024  0.6782776843682965  0.5187362193113074  1.0000
  H   H10       1.0  0.06304159846934708  0.8213443918121683  0.4806439810146871  1.0000
  H   H11       1.0  0.4179697019741154  0.32171189919495896  0.48126633658333884  1.0000
  H   H12       1.0  0.9369310771434199  0.17862174791930835  0.5193450014193958  1.0000
  H   H13       1.0  0.3510795390192812  0.7388318091203273  0.5053699608207795  1.0000
  H   H14       1.0  0.8454747486052481  0.7606060072651671  0.4938949728648012  1.0000
  H   H15       1.0  0.6489425484533909  0.26117158907408106  0.4946450964113539  1.0000
  H   H16       1.0  0.15453917731037584  0.23937518808187255  0.5060844040653693  1.0000
  H   H17       1.0  0.4441390657020036  0.7977076719315759  0.3648085798027553  1.0000
  H   H18       1.0  0.07910797940512279  0.7018155247711275  0.634496022992096  1.0000
  H   H19       1.0  0.5558560410538647  0.2022744326537803  0.635191999737579  1.0000
  H   H20       1.0  0.9208864793866451  0.29818993976293473  0.36552852710930483  1.0000
  Pb  Pb1       1.0  0.4660188496269696  0.24994865013204048  0.9996471690885332  1.0000
  Pb  Pb2       1.0  0.5340008808606811  0.7500425289118766  0.0002851378558901044  1.0000
  C   C1        1.0  0.4209020991290301  0.5000472921524304  0.24627500895151405  1.0000
  C   C2        1.0  0.17486296437844825  0.9993065256373868  0.7534879383324056  1.0000
  C   C3        1.0  0.5790737539251793  0.4999229698013821  0.7537350323353993  1.0000
  C   C4        1.0  0.8251316787828031  0.0007175015024287982  0.24648695145968705  1.0000
  C   C5        1.0  0.1556649289619543  0.5320160959606779  0.2876004719074318  1.0000
  C   C6        1.0  0.8681152290455997  0.9674346374653805  0.7119258791638857  1.0000
  C   C7        1.0  0.8443330867273316  0.46801293278373624  0.7124208789530899  1.0000
  C   C8        1.0  0.13187548267687527  0.032539751233770196  0.2881047541378835  1.0000
  C   C9        1.0  0.4343862019645001  0.7077567706585199  0.4353656977914185  1.0000
  C   C10       1.0  0.9988156422680631  0.7918387441453941  0.5640308007891335  1.0000
  C   C11       1.0  0.5656386212404313  0.29223800615636714  0.564657575603917  1.0000
  C   C12       1.0  0.0011742613526664017  0.20816250251917978  0.43598541981351974  1.0000
  S   S1        1.0  0.6515195692586316  0.5181929203025533  0.25200733452377483  1.0000
  S   S2        1.0  0.39981184143925214  0.9811721414930329  0.7478490745848277  1.0000
  S   S3        1.0  0.34842515407940766  0.48182477782346916  0.7479548542896455  1.0000
  S   S4        1.0  0.6001985820761033  0.018843380973358092  0.2521186315263649  1.0000
  N   N1        1.0  0.2881693448774739  0.3992024384044369  0.16060276822144465  1.0000
  N   N2        1.0  0.12787561554960547  0.09999952125689757  0.8393052445580411  1.0000
  N   N3        1.0  0.711842864398747  0.6007624858207236  0.8394060640251271  1.0000
  N   N4        1.0  0.8720787538754918  0.9000000688259177  0.16064614656289677  1.0000
  N   N5        1.0  0.12175137938341857  0.41994203525590007  0.18677124509089546  1.0000
  N   N6        1.0  0.9351970088290071  0.07939629842601897  0.8129699982378045  1.0000
  N   N7        1.0  0.8782586427904204  0.5801087113788054  0.8132078720553795  1.0000
  N   N8        1.0  0.06479267369836347  0.9205908457115866  0.1870718833692919  1.0000
  N   N9        1.0  0.3403108879297391  0.5851641106965958  0.32934710242166443  1.0000
  N   N10       1.0  0.010997835528748102  0.9143457082464932  0.6701679985886743  1.0000
  N   N11       1.0  0.659673195009475  0.4148360062848225  0.6706770041652279  1.0000
  N   N12       1.0  0.9889745469342441  0.08566105299020417  0.32982608500903865  1.0000
  O   O1        1.0  0.804110137096849  0.24980892567671728  0.9996706733331425  1.0000
  O   O2        1.0  0.19591061544495858  0.7502042673581427  0.00032239677262417  1.0000
