data_image0
_chemical_formula_structural       Cu2H52C48N8O10
_chemical_formula_sum              "Cu2 H52 C48 N8 O10"
_cell_length_a       6.844105431806485
_cell_length_b       10.079964151511124
_cell_length_c       16.63006455846706
_cell_angle_alpha    86.678957478199
_cell_angle_beta     83.5183065870871
_cell_angle_gamma    80.52927450241418

_space_group_name_H-M_alt    "P 1"
_space_group_IT_number       1

loop_
  _space_group_symop_operation_xyz
  'x, y, z'

loop_
  _atom_site_type_symbol
  _atom_site_label
  _atom_site_symmetry_multiplicity
  _atom_site_fract_x
  _atom_site_fract_y
  _atom_site_fract_z
  _atom_site_occupancy
  Cu  Cu1       1.0  0.0710364163652599  0.1633335195316334  0.24670149286193782  1.0000
  Cu  Cu2       1.0  0.9289662015656007  0.8366649661687334  0.753297546032492  1.0000
  H   H1        1.0  0.5158363286449301  0.167628825669432  0.24368318027912042  1.0000
  H   H2        1.0  0.48416581521377827  0.8323716725531013  0.7563164120739856  1.0000
  H   H3        1.0  0.35562624274621163  0.30340144338516956  0.23788182812928232  1.0000
  H   H4        1.0  0.6443716949601069  0.696598055481708  0.7621197877048758  1.0000
  H   H5        1.0  0.7886330936364274  0.2935898601354054  0.606935100083959  1.0000
  H   H6        1.0  0.2113722169728831  0.7064096247541798  0.393064988680898  1.0000
  H   H7        1.0  0.9448030699879839  0.41270196786161517  0.5730640608365363  1.0000
  H   H8        1.0  0.05520202472293795  0.5872985248987774  0.4269348003437372  1.0000
  H   H9        1.0  0.9785091636786591  0.42506198833854814  0.9209236868964795  1.0000
  H   H10       1.0  0.021488782482734323  0.574937511172223  0.07907732721211151  1.0000
  H   H11       1.0  0.834010414634179  0.30942787007979417  0.89198578249475  1.0000
  H   H12       1.0  0.1659853619030259  0.6905746522330601  0.1080152239371444  1.0000
  H   H13       1.0  0.1495250716669504  0.14520954753123758  0.8925467699980701  1.0000
  H   H14       1.0  0.8504645213751801  0.8547879577754429  0.1074540789936336  1.0000
  H   H15       1.0  0.45586060277684487  0.3263509547446973  0.5563713734800189  1.0000
  H   H16       1.0  0.5441415326267817  0.6736495428339425  0.4436288205986614  1.0000
  H   H17       1.0  0.5943083286611002  0.2659562251416432  0.4645236686866667  1.0000
  H   H18       1.0  0.4056952863961741  0.7340442700278728  0.5354758589428102  1.0000
  H   H19       1.0  0.34748312955554184  0.9703217691555251  0.9773366446928194  1.0000
  H   H20       1.0  0.6525133707725033  0.029677735339923593  0.022662628962692114  1.0000
  H   H21       1.0  0.5920816838230679  0.26958263069934674  0.0503089062775928  1.0000
  H   H22       1.0  0.40791601261962995  0.7304178741066637  0.9496932871486976  1.0000
  H   H23       1.0  0.49005642329672144  0.32156712113903296  0.9568421786857756  1.0000
  H   H24       1.0  0.5099410487925127  0.6784343908938908  0.0431593888814987  1.0000
  H   H25       1.0  0.7390019853057411  0.6072289647768514  0.5598371534351756  1.0000
  H   H26       1.0  0.26100139694299435  0.39277253697568426  0.4401623500608595  1.0000
  H   H27       1.0  0.5418295294302953  0.533281149828575  0.613277551230077  1.0000
  H   H28       1.0  0.4581753155619381  0.4667203482270637  0.3867224892678962  1.0000
  H   H29       1.0  0.5840293250277426  0.5296085484329183  0.8834702000964259  1.0000
  H   H30       1.0  0.41596837987003726  0.47039195701697867  0.11653139160429056  1.0000
  H   H31       1.0  0.7541111685508003  0.6137262772335391  0.9256572560538814  1.0000
  H   H32       1.0  0.24588652789190493  0.3862742275724714  0.07434493737240191  1.0000
  H   H33       1.0  0.12817255989239848  0.1371868349165979  0.5965960225201172  1.0000
  H   H34       1.0  0.8718346959876373  0.8628106343978176  0.4034034480624272  1.0000
  H   H35       1.0  0.4890380256726205  0.9200438583712581  0.24666343822075026  1.0000
  H   H36       1.0  0.5109626808078077  0.0799566454798466  0.7533338119537163  1.0000
  H   H37       1.0  0.29208096117710636  0.9839806743406498  0.12882836209178092  1.0000
  H   H38       1.0  0.7079207170645178  0.0160218370479228  0.8711711819944412  1.0000
  H   H39       1.0  0.6218999652797947  0.4876043045136599  0.23607035511179936  1.0000
  H   H40       1.0  0.3780979893366734  0.5123951956409912  0.7639300572712173  1.0000
  H   H41       1.0  0.3479476175596688  0.9722911004127748  0.505871533800999  1.0000
  H   H42       1.0  0.6520552416348053  0.027706379348458703  0.4941269275013056  1.0000
  H   H43       1.0  0.37831915399839033  0.6982629724766839  0.23224276699085072  1.0000
  H   H44       1.0  0.6216830321356852  0.30173752896529044  0.7677538167344127  1.0000
  H   H45       1.0  0.869090477306088  0.3228513941508666  0.3855428105805175  1.0000
  H   H46       1.0  0.13091801696397445  0.6771470786935653  0.614456571144949  1.0000
  H   H47       1.0  0.3180528305773933  0.993721615587667  0.3565207478403707  1.0000
  H   H48       1.0  0.681950020162013  0.0062758635296801995  0.643478315187501  1.0000
  H   H49       1.0  0.8613686644944141  0.32245346273336395  0.1137312493903693  1.0000
  H   H50       1.0  0.13862906576858341  0.6775470446482001  0.8862685371336385  1.0000
  H   H51       1.0  0.0853162914166746  0.7148772608356565  0.2663483602946783  1.0000
  H   H52       1.0  0.9146819129184749  0.2851212340237552  0.733650872770653  1.0000
  C   C1        1.0  0.8499401662045047  0.3465410576098905  0.551558441358651  1.0000
  C   C2        1.0  0.15006662405844665  0.6534584248705713  0.4484409809570025  1.0000
  C   C3        1.0  0.8748277300888676  0.356108421861272  0.9455569240041442  1.0000
  C   C4        1.0  0.12516851206541452  0.6438920872855293  0.05444413069463389  1.0000
  C   C5        1.0  0.12837162993283616  0.1471528801544721  0.9584283998352704  1.0000
  C   C6        1.0  0.8716236320051822  0.8528456208109672  0.041570962677319294  1.0000
  C   C7        1.0  0.5330723604335289  0.35757141307072965  0.497544427932894  1.0000
  C   C8        1.0  0.46693270045709323  0.6424290771141017  0.5024568401496623  1.0000
  C   C9        1.0  0.23937860613849443  0.05055460998323721  0.005244922425113403  1.0000
  C   C10       1.0  0.7606161817273644  0.9494459035043619  0.9947549935461595  1.0000
  C   C11       1.0  0.5410049199023066  0.3578223539285403  0.011693908584874199  1.0000
  C   C12       1.0  0.4589925521869277  0.6421791581043834  0.9883076589824  1.0000
  C   C13       1.0  0.9884795441393736  0.24762856179842158  0.9961508048310178  1.0000
  C   C14       1.0  0.011515226816335785  0.7523719504013967  0.003850314591389305  1.0000
  C   C15       1.0  0.6152492937055957  0.5540946384621677  0.5519497831527147  1.0000
  C   C16       1.0  0.3847543044415361  0.44590585541956784  0.44805094792790373  1.0000
  C   C17       1.0  0.6318208897215883  0.5558656767325161  0.94128516277879  1.0000
  C   C18       1.0  0.3681765823676529  0.4441358353004077  0.05871640478848411  1.0000
  C   C19       1.0  0.1184815806810633  0.1436201272521274  0.5315876958915666  1.0000
  C   C20       1.0  0.8815200316683092  0.8563763483352104  0.46841145599338324  1.0000
  C   C21       1.0  0.980857217065399  0.24396982091509048  0.49836987000929167  1.0000
  C   C22       1.0  0.019149573197559375  0.7560296615653711  0.5016295523063692  1.0000
  C   C23       1.0  0.5936815121191547  0.8262343740377104  0.2488126256303644  1.0000
  C   C24       1.0  0.4063240397537698  0.17376410491274896  0.7511868855423672  1.0000
  C   C25       1.0  0.20945034663782994  0.056860030760177004  0.089161765508706  1.0000
  C   C26       1.0  0.790550110123917  0.943141478386167  0.9108366639834529  1.0000
  C   C27       1.0  0.8693150516365197  0.5876283287314195  0.2520203426465031  1.0000
  C   C28       1.0  0.13068165613483984  0.41237016724933545  0.7479807603191659  1.0000
  C   C29       1.0  0.6692901607294319  0.5840929327988462  0.24223514150744313  1.0000
  C   C30       1.0  0.33070781079717915  0.4159065686435923  0.7577640674244394  1.0000
  C   C31       1.0  0.2418623940562271  0.0524926664960006  0.48122238482088875  1.0000
  C   C32       1.0  0.7581372983876449  0.9475058265981746  0.5187755800696652  1.0000
  C   C33       1.0  0.5326467921264991  0.70301495432129  0.24038303128667593  1.0000
  C   C34       1.0  0.4673507137830344  0.2969865602871948  0.7596161293783156  1.0000
  C   C35       1.0  0.973189806497061  0.24710328145119576  0.41477272421118283  1.0000
  C   C36       1.0  0.026812161990285726  0.7529042585117126  0.585227837935321  1.0000
  C   C37       1.0  0.8601527277199069  0.9643321824959299  0.26422157754314674  1.0000
  C   C38       1.0  0.13984964049226536  0.0356673084996828  0.7357786406689826  1.0000
  C   C39       1.0  0.7935254992521765  0.8311025153280983  0.2582932711515014  1.0000
  C   C40       1.0  0.20647247227444152  0.16889698611433349  0.741705937780381  1.0000
  C   C41       1.0  0.22552381890274387  0.06299902453001491  0.39838561531469463  1.0000
  C   C42       1.0  0.7744787905730419  0.9369994605264654  0.6016140253053024  1.0000
  C   C43       1.0  0.9662916395303824  0.24620463328980685  0.08072767087255531  1.0000
  C   C44       1.0  0.03370608227754001  0.7537958734478777  0.9192727173770194  1.0000
  C   C45       1.0  0.9300637683074559  0.7115454957156473  0.2595908228917594  1.0000
  C   C46       1.0  0.06993634747811939  0.2884509809930336  0.7404101988935283  1.0000
  C   C47       1.0  0.018857081123037713  0.45974939453306257  0.25249802872512833  1.0000
  C   C48       1.0  0.9811383713481449  0.5402480966298954  0.7475043665487606  1.0000
  N   N1        1.0  0.703808105212751  0.43496172097094643  0.9892981624788746  1.0000
  N   N2        1.0  0.29618960814010376  0.5650387851228442  0.010702827496274407  1.0000
  N   N3        1.0  0.6951718265012589  0.42974727758355863  0.5102394847920452  1.0000
  N   N4        1.0  0.3048317716458656  0.5702532162981767  0.4897612462885732  1.0000
  N   N5        1.0  0.07555264097185702  0.1534294571517805  0.1258290301615759  1.0000
  N   N6        1.0  0.924446784843177  0.8465700399498599  0.8741713174978119  1.0000
  N   N7        1.0  0.09280199117575451  0.1588429686484503  0.3661127190825937  1.0000
  N   N8        1.0  0.9072037935057082  0.8411545037189825  0.6338868162235798  1.0000
  O   O1        1.0  0.7336310246422286  0.06864617186037951  0.2770783498237748  1.0000
  O   O2        1.0  0.26637157637848236  0.9313523125522137  0.7229218925217964  1.0000
  O   O3        1.0  0.9434924157331965  0.3532921179371016  0.2425356609165803  1.0000
  O   O4        1.0  0.056504524846701515  0.6467053714606265  0.7574654661825307  1.0000
  O   O5        1.0  0.1976144196087263  0.4634281752036316  0.2617073412980773  1.0000
  O   O6        1.0  0.8023837339959815  0.5365703157924387  0.7382955021206641  1.0000
  O   O7        1.0  0.05078454615890147  0.9640359162306493  0.2549654271879049  1.0000
  O   O8        1.0  0.949213175649021  0.03596459050702801  0.74503496106167  1.0000
  O   O9        1.0  0.399831781105455  0.2120781827073728  0.21654996909110477  1.0000
  O   O10       1.0  0.6001674119010404  0.7879223209772944  0.7834503544348409  1.0000
