data_image0
_chemical_formula_structural       Cd5H40C26N12O16
_chemical_formula_sum              "Cd5 H40 C26 N12 O16"
_cell_length_a       9.0486853173996
_cell_length_b       9.684810876096307
_cell_length_c       13.036669081306895
_cell_angle_alpha    94.21371697361597
_cell_angle_beta     109.25109202247502
_cell_angle_gamma    113.38061615860077

_space_group_name_H-M_alt    "P 1"
_space_group_IT_number       1

loop_
  _space_group_symop_operation_xyz
  'x, y, z'

loop_
  _atom_site_type_symbol
  _atom_site_label
  _atom_site_symmetry_multiplicity
  _atom_site_fract_x
  _atom_site_fract_y
  _atom_site_fract_z
  _atom_site_occupancy
  Cd  Cd1       1.0  0.8378676976051409  0.4389516376704492  0.2796845146884408  1.0000
  Cd  Cd2       1.0  0.1621317001536013  0.5610484157774137  0.7203146762851703  1.0000
  Cd  Cd3       1.0  0.0454897718918303  0.17797520457413188  0.28799285727812673  1.0000
  Cd  Cd4       1.0  0.9545090516120993  0.8220237037314887  0.7120076779837632  1.0000
  Cd  Cd5       1.0  0.9999994643657149  1.4030056619006673e-06  0.9999995812376387  1.0000
  H   H1        1.0  0.8379943006709922  0.6504797857881143  0.4563397755888446  1.0000
  H   H2        1.0  0.16200919958233578  0.3495214217414926  0.5436611723535094  1.0000
  H   H3        1.0  0.8726377676118205  0.529778714787035  0.516528309258419  1.0000
  H   H4        1.0  0.12736398230676832  0.47022134462049087  0.48347294921987344  1.0000
  H   H5        1.0  0.19703660381740212  0.1281270346499142  0.5146901739883633  1.0000
  H   H6        1.0  0.8029628010677426  0.8718730249901299  0.4853097860057858  1.0000
  H   H7        1.0  0.35792655685013125  0.2828078259772297  0.5192018027295475  1.0000
  H   H8        1.0  0.6420722524010145  0.7171910699440217  0.48079719449128083  1.0000
  H   H9        1.0  0.8635611832516334  0.6159951006521709  0.053309699698580494  1.0000
  H   H10       1.0  0.13644230274890387  0.384006094493067  0.946689710202705  1.0000
  H   H11       1.0  0.9621956603547658  0.8319014812909625  0.3764287008550228  1.0000
  H   H12       1.0  0.037802574641560185  0.16809626948804626  0.6235716406540918  1.0000
  H   H13       1.0  0.43957724532317843  0.2239034861156597  0.05717962682679461  1.0000
  H   H14       1.0  0.5604227480695699  0.7760977310509887  0.9428205269201302  1.0000
  H   H15       1.0  0.5127128111607534  0.39947849324384777  0.38393079446260003  1.0000
  H   H16       1.0  0.48728600521678084  0.6005204088695847  0.6160689717787662  1.0000
  H   H17       1.0  0.5856264276351768  0.03999636901876609  0.9010993146322052  1.0000
  H   H18       1.0  0.41437533034510193  0.9600060086543248  0.09890206661984992  1.0000
  H   H19       1.0  0.7603348780671694  0.172312325115044  0.876297793661891  1.0000
  H   H20       1.0  0.23966510819918338  0.8276888858594232  0.12370159106450981  1.0000
  H   H21       1.0  0.4374262045561608  0.19491091966573035  0.8796506566213795  1.0000
  H   H22       1.0  0.5625731932025886  0.8050891337821253  0.12034853435223168  1.0000
  H   H23       1.0  0.6331238766291207  0.3675454706934217  0.941845373601076  1.0000
  H   H24       1.0  0.3668755282560241  0.6324545889466221  0.05815458639306573  1.0000
  H   H25       1.0  0.4867559223135061  0.17862168051964028  0.7014812905314116  1.0000
  H   H26       1.0  0.513244651525163  0.8213783759080542  0.29851893419454  1.0000
  H   H27       1.0  0.46601575416649144  0.34476633169241927  0.7413441505891215  1.0000
  H   H28       1.0  0.5339854081797881  0.6552348822618866  0.25865626788961293  1.0000
  H   H29       1.0  0.8155929382475903  0.3341405165869204  0.7787569251892137  1.0000
  H   H30       1.0  0.18440704801876254  0.6658606943875469  0.22124245953718716  1.0000
  H   H31       1.0  0.7984928324604539  0.4991263912976079  0.8241002372765536  1.0000
  H   H32       1.0  0.2015083227594303  0.5008748164645169  0.17589941218165003  1.0000
  H   H33       1.0  0.5182364964682336  0.07694684369758419  0.3374667609903527  1.0000
  H   H34       1.0  0.4817634897981193  0.9230543672768831  0.6625326237360485  1.0000
  H   H35       1.0  0.6672998708429105  0.23272964480156583  0.4518178056187736  1.0000
  H   H36       1.0  0.33269894553462354  0.7672692573118663  0.5481819606225856  1.0000
  H   H37       1.0  0.5711794706542933  0.894658731163851  0.46544389034584555  1.0000
  H   H38       1.0  0.4288181625169258  0.10534016177756907  0.5345540731226421  1.0000
  H   H39       1.0  0.6922991397251935  0.057290079562669384  0.5786681079591176  1.0000
  H   H40       1.0  0.30770026422465696  0.9427076680039905  0.4213324982817995  1.0000
  C   C1        1.0  0.8972958517013012  0.7020826675176153  0.12602450355532818  1.0000
  C   C2        1.0  0.10270588396449652  0.2979173795055488  0.8739752168818955  1.0000
  C   C3        1.0  0.945774464681321  0.8097506700545765  0.28973786137803603  1.0000
  C   C4        1.0  0.054228447064403405  0.1902493799484262  0.7102628928115351  1.0000
  C   C5        1.0  0.4153771322143954  0.24937283646738007  0.13077583607163493  1.0000
  C   C6        1.0  0.5846222726707423  0.750627223172664  0.8692241239225142  1.0000
  C   C7        1.0  0.45297614647616763  0.34014263609108747  0.29615655932179413  1.0000
  C   C8        1.0  0.5470226699013665  0.6598562660223448  0.703843206919565  1.0000
  C   C9        1.0  0.7890129684622239  0.21499002432476996  0.045541055564733326  1.0000
  C   C10       1.0  0.2109847084026555  0.7850112178431203  0.9544608757801784  1.0000
  C   C11       1.0  0.6733629604580855  0.16449960200247196  0.920412933452262  1.0000
  C   C12       1.0  0.32663820901458257  0.8355016181440149  0.07958825404701032  1.0000
  C   C13       1.0  0.5695252339470827  0.25658786815324663  0.8802003945231578  1.0000
  C   C14       1.0  0.4304741709380622  0.74341219148679  0.11979956547098422  1.0000
  C   C15       1.0  0.5522765841965623  0.28813441146361646  0.7644966899652136  1.0000
  C   C16       1.0  0.4477228278149781  0.7118656543686085  0.23550403904945943  1.0000
  C   C17       1.0  0.7275861733583397  0.38955293441535577  0.7596954459445655  1.0000
  C   C18       1.0  0.2724138200344085  0.6104482827512924  0.2403047078023661  1.0000
  C   C19       1.0  0.72021578391346  0.4321161595116933  0.649034174239553  1.0000
  C   C20       1.0  0.27978420947928845  0.5678850576549551  0.35096597950737873  1.0000
  C   C21       1.0  0.7797751404472706  0.1099980294672491  0.3872212320036895  1.0000
  C   C22       1.0  0.2202242644378742  0.8900020301727947  0.6127787279904596  1.0000
  C   C23       1.0  0.6322906936630092  0.11193351628453739  0.41675437685056954  1.0000
  C   C24       1.0  0.367708122714525  0.8880653858289022  0.5832453893907968  1.0000
  C   C25       1.0  0.5848505657587283  0.009409876717334998  0.49524324652564655  1.0000
  C   C26       1.0  0.4151494124459419  0.990589015991567  0.5047560154269917  1.0000
  N   N1        1.0  0.9750410312451194  0.9207545728951911  0.23389473355037177  1.0000
  N   N2        1.0  0.0249595425935425  0.0792454835325032  0.7661054911755799  1.0000
  N   N3        1.0  0.9446261032970115  0.8518803314386856  0.1284626659895238  1.0000
  N   N4        1.0  0.05537446341526219  0.14811971879682767  0.871536789715897  1.0000
  N   N5        1.0  0.8969052128180834  0.6704380636870511  0.2254992813776298  1.0000
  N   N6        1.0  0.10309535389418298  0.32956198654846247  0.7745001743277911  1.0000
  N   N7        1.0  0.2813057968335642  0.25200054084392315  0.24053476690646394  1.0000
  N   N8        1.0  0.7186936080515808  0.7479995187961137  0.7594651930876781  1.0000
  N   N9        1.0  0.25709589565583  0.19310380404512975  0.13393189540665423  1.0000
  N   N10       1.0  0.7429023331493878  0.8068962526150825  0.8660670308351544  1.0000
  N   N11       1.0  0.541713408716376  0.34166092191739483  0.2302036679799428  1.0000
  N   N12       1.0  0.4582860032951642  0.6583391439148228  0.7697970610347299  1.0000
  O   O1        1.0  0.8765414393284987  0.1403716532531476  0.08450253925153112  1.0000
  O   O2        1.0  0.12345391294682871  0.8596272956504192  0.915501046917605  1.0000
  O   O3        1.0  0.7927000094669266  0.32806851503114837  0.10297635555814821  1.0000
  O   O4        1.0  0.20729940441518818  0.6719361749478379  0.8970230809629883  1.0000
  O   O5        1.0  0.8692758789790817  0.5236137322766438  0.6460559739125032  1.0000
  O   O6        1.0  0.13072292314566164  0.47638515745241955  0.35394225428779447  1.0000
  O   O7        1.0  0.5790413555621186  0.38361969558490466  0.5652907854946322  1.0000
  O   O8        1.0  0.42095862976893966  0.6163792033161853  0.43470924547853684  1.0000
  O   O9        1.0  0.8250668237165896  0.19638675188554797  0.3206044423471682  1.0000
  O   O10       1.0  0.1749337572484747  0.8036133107343272  0.6793965513993214  1.0000
  O   O11       1.0  0.852924347065631  0.027081988137347003  0.423416397147136  1.0000
  O   O12       1.0  0.14707504356671566  0.9729180591183352  0.5765820248059442  1.0000
  O   O13       1.0  0.8822373946743696  0.5722743035482835  0.4502011120157761  1.0000
  O   O14       1.0  0.11776611270535398  0.42772691017350434  0.5498006049471017  1.0000
  O   O15       1.0  0.2272112393304369  0.22661456994219975  0.48863285541101936  1.0000
  O   O16       1.0  0.772789334508232  0.7733854864854947  0.5113673693149324  1.0000
