data_image0
_chemical_formula_structural       Mn2H32C36N4O12
_chemical_formula_sum              "Mn2 H32 C36 N4 O12"
_cell_length_a       7.450032836569717
_cell_length_b       10.234424766996224
_cell_length_c       11.56473918224109
_cell_angle_alpha    90.00364841481363
_cell_angle_beta     89.99895324632845
_cell_angle_gamma    91.43505960318484

_space_group_name_H-M_alt    "P 1"
_space_group_IT_number       1

loop_
  _space_group_symop_operation_xyz
  'x, y, z'

loop_
  _atom_site_type_symbol
  _atom_site_label
  _atom_site_symmetry_multiplicity
  _atom_site_fract_x
  _atom_site_fract_y
  _atom_site_fract_z
  _atom_site_occupancy
  Mn  Mn1       1.0  0.750017100694059  0.7499800857334477  0.7193915106933911  1.0000
  Mn  Mn2       1.0  0.24997678693466696  0.25000906303701936  0.2806077179843881  1.0000
  H   H1        1.0  0.05909822254391629  0.5488344101478189  0.9353056170780005  1.0000
  H   H2        1.0  0.4408929535939592  0.9511540654414431  0.9353000896391134  1.0000
  H   H3        1.0  0.9408955914805901  0.4511801614259736  0.06472041793867327  1.0000
  H   H4        1.0  0.5591264531407133  0.04886224900660349  0.06467060464502337  1.0000
  H   H5        1.0  0.1574575847709596  0.6455891616060967  0.12297558673446214  1.0000
  H   H6        1.0  0.3425049564152688  0.8544396443279749  0.12297523594561707  1.0000
  H   H7        1.0  0.842546280801578  0.35446541388133557  0.8770305613148532  1.0000
  H   H8        1.0  0.6575114981258637  0.14559820513292013  0.8770075647281385  1.0000
  H   H9        1.0  0.6150254047478756  0.5716624027316825  0.9201682567515231  1.0000
  H   H10       1.0  0.8849784759216277  0.9283220523753142  0.9201828362784706  1.0000
  H   H11       1.0  0.38496345715227426  0.42833363164614735  0.07983270154474548  1.0000
  H   H12       1.0  0.1150115326485306  0.07167006154251959  0.07981639250552768  1.0000
  H   H13       1.0  0.601407543050705  0.5665949867088429  0.13754959059180286  1.0000
  H   H14       1.0  0.898563061774496  0.9334084805911901  0.13756257088240176  1.0000
  H   H15       1.0  0.3985611916030082  0.43340121357240236  0.8624582854045425  1.0000
  H   H16       1.0  0.1014109914899279  0.06658669774508041  0.8624331992906347  1.0000
  H   H17       1.0  0.03872465021466098  0.7709783724690736  0.2994619638999011  1.0000
  H   H18       1.0  0.4612687410580918  0.7290216465708141  0.2994808222306985  1.0000
  H   H19       1.0  0.9612657975871386  0.22902253718869048  0.7005286181561555  1.0000
  H   H20       1.0  0.5387258296075358  0.27098118503315044  0.7005210009222294  1.0000
  H   H21       1.0  0.028024232173017086  0.7653338047796582  0.5156465946293947  1.0000
  H   H22       1.0  0.47200427725913124  0.7346392323842535  0.5156595948377498  1.0000
  H   H23       1.0  0.9719790969874539  0.2346562438380672  0.4843474458349134  1.0000
  H   H24       1.0  0.5279983930478096  0.26536451032632863  0.4843430929916223  1.0000
  H   H25       1.0  0.05685726189978618  0.9211625893913861  0.6859209949656344  1.0000
  H   H26       1.0  0.44317864676485647  0.5787921662935034  0.6859064923532825  1.0000
  H   H27       1.0  0.943154776827413  0.0788136992709667  0.31407563915161046  1.0000
  H   H28       1.0  0.5568237307858297  0.4212057124159613  0.31409706000938786  1.0000
  H   H29       1.0  0.8660999349638628  0.9864666765760289  0.6574272580877432  1.0000
  H   H30       1.0  0.6339363458246227  0.5134978769900868  0.6574083074255339  1.0000
  H   H31       1.0  0.13391973972576923  0.013528126609600096  0.3425780234830141  1.0000
  H   H32       1.0  0.3660561512144227  0.486490305454737  0.3425900565355348  1.0000
  C   C1        1.0  0.1324218316246188  0.6285456319693593  0.7205745461475385  1.0000
  C   C2        1.0  0.36763806838953883  0.8713996549356439  0.7205878377998683  1.0000
  C   C3        1.0  0.8675856203539069  0.37144633871773886  0.27943419420327587  1.0000
  C   C4        1.0  0.6323692374111117  0.1285893832120166  0.2794062026129253  1.0000
  C   C5        1.0  0.19486240497086274  0.6932597180978844  0.831334242030408  1.0000
  C   C6        1.0  0.3051964178300964  0.806676820238188  0.8313376769117508  1.0000
  C   C7        1.0  0.8051466328177597  0.3067371281154935  0.16867103965947186  1.0000
  C   C8        1.0  0.6948112783656271  0.1933200364339243  0.16865117553539472  1.0000
  C   C9        1.0  0.14361776848512156  0.6370398626285264  0.9370767942617345  1.0000
  C   C10       1.0  0.3563928535416778  0.8629358683377788  0.9370793595437727  1.0000
  C   C11       1.0  0.8563908544497564  0.3629755642477831  0.06293367614032518  1.0000
  C   C12       1.0  0.6436222835677013  0.1370755931950782  0.06290949327337357  1.0000
  C   C13       1.0  0.19786006588633143  0.6922458997297625  0.04188621449305428  1.0000
  C   C14       1.0  0.30212257743115606  0.8077603613979394  0.04188542021148579  1.0000
  C   C15       1.0  0.8021561443803835  0.30778706390007926  0.9581207975714245  1.0000
  C   C16       1.0  0.6978945845025565  0.19226477198620262  0.9581077564675693  1.0000
  C   C17       1.0  0.6734744702462693  0.6505698233455702  0.9722033171248579  1.0000
  C   C18       1.0  0.826516200947687  0.8494233236787849  0.9722106505976026  1.0000
  C   C19       1.0  0.32650465742309354  0.3494194470299234  0.027799370431139888  1.0000
  C   C20       1.0  0.17346704971137675  0.15056786830417923  0.02779376638375909  1.0000
  C   C21       1.0  0.6671693665589372  0.647911468727422  0.09224568957278477  1.0000
  C   C22       1.0  0.8327987047071588  0.8520946689239823  0.09225483051373118  1.0000
  C   C23       1.0  0.33280493065949207  0.352088596302103  0.9077500807370098  1.0000
  C   C24       1.0  0.1671769830437384  0.14790636258515383  0.9077461279998215  1.0000
  C   C25       1.0  0.7499865168265957  0.7500042826918188  0.15455646420969057  1.0000
  C   C26       1.0  0.24999751451962743  0.2500025466171891  0.8454453591170645  1.0000
  C   C27       1.0  0.7499990515711233  0.749997954103307  0.2821451607327034  1.0000
  C   C28       1.0  0.249996860984929  0.250004866241305  0.7178506095303019  1.0000
  C   C29       1.0  0.9104956169089391  0.7622199195573599  0.34445640510389797  1.0000
  C   C30       1.0  0.5895151088584213  0.7377705322100638  0.3444688065599023  1.0000
  C   C31       1.0  0.08949895374524168  0.23778291207739943  0.6555462827464351  1.0000
  C   C32       1.0  0.410476875665168  0.26223427643594727  0.6555407989405209  1.0000
  C   C33       1.0  0.9049637994339648  0.759675767147719  0.46452219440091347  1.0000
  C   C34       1.0  0.5950531168323466  0.7402957822543924  0.46453554002393804  1.0000
  C   C35       1.0  0.0950437015184491  0.24031718038533972  0.5354727108186949  1.0000
  C   C36       1.0  0.4049507001217166  0.25970404005777675  0.5354671476879742  1.0000
  N   N1        1.0  0.7500146620200497  0.7499800096610938  0.5239033145952161  1.0000
  N   N2        1.0  0.2499926924913041  0.25001000604076745  0.4760967787267985  1.0000
  N   N3        1.0  0.7500027126776629  0.749991949065908  0.9125104363215397  1.0000
  N   N4        1.0  0.24998436834071205  0.24999530018469326  0.08748706294698386  1.0000
  O   O1        1.0  0.9631407085376226  0.6138273041990913  0.7068171902181317  1.0000
  O   O2        1.0  0.5369197102138586  0.8861395810192646  0.7068299422281468  1.0000
  O   O3        1.0  0.03686928068914599  0.38616171238443536  0.2931915500345211  1.0000
  O   O4        1.0  0.4630876930997304  0.11385141199045279  0.2931692864238044  1.0000
  O   O5        1.0  0.24891125212695897  0.5904077034128077  0.648950774184996  1.0000
  O   O6        1.0  0.25113971137979263  0.9095306162835824  0.6489744838340028  1.0000
  O   O7        1.0  0.7510948092275455  0.40958330104103174  0.3510596955413447  1.0000
  O   O8        1.0  0.7488700829240712  0.09045449029868988  0.35101609766363834  1.0000
  O   O9        1.0  0.9247228371857402  0.9296252757839482  0.712465896983232  1.0000
  O   O10       1.0  0.5753073758325941  0.5703315031845549  0.7124560248661068  1.0000
  O   O11       1.0  0.0752850785288786  0.07034909133251689  0.2875307371034736  1.0000
  O   O12       1.0  0.4246947578556259  0.4296614885853102  0.2875406097805281  1.0000
