data_image0
_chemical_formula_structural       Dy4H24C28O36
_chemical_formula_sum              "Dy4 H24 C28 O36"
_cell_length_a       9.849418565514132
_cell_length_b       9.849478835835347
_cell_length_c       13.041764420147347
_cell_angle_alpha    95.40035969750018
_cell_angle_beta     108.93723573509513
_cell_angle_gamma    116.46486679267248

_space_group_name_H-M_alt    "P 1"
_space_group_IT_number       1

loop_
  _space_group_symop_operation_xyz
  'x, y, z'

loop_
  _atom_site_type_symbol
  _atom_site_label
  _atom_site_symmetry_multiplicity
  _atom_site_fract_x
  _atom_site_fract_y
  _atom_site_fract_z
  _atom_site_occupancy
  Dy  Dy1       1.0  0.46116695768368743  0.7361205190519087  0.0042299776533810465  1.0000
  Dy  Dy2       1.0  0.23219451505943317  0.45724460761035607  0.49574682633286943  1.0000
  Dy  Dy3       1.0  0.5388343243849577  0.2638888820366816  0.9957645054698363  1.0000
  Dy  Dy4       1.0  0.7678006735042332  0.5427471302436331  0.5042495862727919  1.0000
  H   H1        1.0  0.6919731999128871  0.9368546860711504  0.23500376104953355  1.0000
  H   H2        1.0  0.20217001962712536  0.4570767432926103  0.2649654827779244  1.0000
  H   H3        1.0  0.3080362478189258  0.06315596345397981  0.76499359702634  1.0000
  H   H4        1.0  0.7978254990467734  0.5429197057326148  0.7350313209249253  1.0000
  H   H5        1.0  0.6349112812870814  0.0494170166101142  0.18257945720590393  1.0000
  H   H6        1.0  0.36713814186853  0.4523788722809385  0.3174017654101534  1.0000
  H   H7        1.0  0.3650902895367168  0.9505888762735212  0.8174171676969453  1.0000
  H   H8        1.0  0.6328567562096126  0.547616387730656  0.682594039477678  1.0000
  H   H9        1.0  0.7843357939210734  0.8399680455345759  0.8531812885398085  1.0000
  H   H10       1.0  0.4871364137372539  0.931062857914519  0.6466935853626554  1.0000
  H   H11       1.0  0.21566991120208462  0.1600356233879623  0.14682695132565024  1.0000
  H   H12       1.0  0.5128733568180692  0.06892203667334938  0.3533174983359474  1.0000
  H   H13       1.0  0.0509619378443277  0.9760796937945102  0.7995030442843076  1.0000
  H   H14       1.0  0.6769024323656438  0.25138976411184905  0.7006421110084561  1.0000
  H   H15       1.0  0.9490467500183326  0.023935756081421303  0.20050517530165013  1.0000
  H   H16       1.0  0.32310211218056395  0.7485974575693463  0.29936936220222793  1.0000
  H   H17       1.0  0.23014552626441542  0.5266853219184143  0.07927235616369194  1.0000
  H   H18       1.0  0.9477888272236258  0.1509347679979314  0.4206288471233678  1.0000
  H   H19       1.0  0.7698546796678302  0.4733240567285364  0.9207203248780689  1.0000
  H   H20       1.0  0.052201755061496255  0.8490604929393443  0.5793697208402976  1.0000
  H   H21       1.0  0.3875227168130025  0.5130567991907072  0.13842503903605066  1.0000
  H   H22       1.0  0.8747926345102713  0.24903868819750125  0.3615288066165122  1.0000
  H   H23       1.0  0.6124774873888655  0.48695259340889413  0.861569176067505  1.0000
  H   H24       1.0  0.12520752833651722  0.7509624850259227  0.6384671591694868  1.0000
  C   C1        1.0  0.7419137290656721  0.08811598859173839  0.9693016035856916  1.0000
  C   C2        1.0  0.6191398657075169  0.7727585704792901  0.5304997777677514  1.0000
  C   C3        1.0  0.25808617426843494  0.911897009881372  0.030701208170789657  1.0000
  C   C4        1.0  0.38085884002049397  0.2272297264946701  0.4695041828619112  1.0000
  C   C5        1.0  0.07496599720328592  0.19786292447493992  0.8807887275775883  1.0000
  C   C6        1.0  0.8175302169607618  0.19437771524252406  0.6192852427004852  1.0000
  C   C7        1.0  0.9250314168262932  0.8021453737542713  0.11921622516597101  1.0000
  C   C8        1.0  0.18247681602478139  0.8056142136588987  0.3807248565540179  1.0000
  C   C9        1.0  0.8674887874093996  0.9650762398721039  0.8692155348402225  1.0000
  C   C10       1.0  0.5962849635638178  0.9983359274024151  0.6307799676972508  1.0000
  C   C11       1.0  0.132506473482195  0.034932020450149495  0.13078658077132133  1.0000
  C   C12       1.0  0.4037192904968662  0.0016548164363854015  0.3692308977955961  1.0000
  C   C13       1.0  0.22974019958357428  0.3345069436420118  0.8906209711098614  1.0000
  C   C14       1.0  0.9442167581046235  0.33940431392129267  0.6093903243161308  1.0000
  C   C15       1.0  0.7702565990413676  0.6655001237156171  0.109378380633288  1.0000
  C   C16       1.0  0.05577793010257173  0.6605803990338116  0.39061010382913264  1.0000
  C   C17       1.0  0.0069122003891593006  0.0365706061981186  0.842218848948072  1.0000
  C   C18       1.0  0.6947645220779748  0.16475233885346802  0.6578632143912346  1.0000
  C   C19       1.0  0.9930881558900283  0.9634412466319802  0.15778706716753282  1.0000
  C   C20       1.0  0.3052414304452427  0.8352396024879454  0.34214891793629937  1.0000
  C   C21       1.0  0.3378773165532039  0.6813746215628242  0.7364644123475232  1.0000
  C   C22       1.0  0.4448710534606803  0.601407319750834  0.7635520151746533  1.0000
  C   C23       1.0  0.6621209871018648  0.3186229636907427  0.2635262559007074  1.0000
  C   C24       1.0  0.5551281225161447  0.39857969205360183  0.2364397091961906  1.0000
  C   C25       1.0  0.8582250833469303  0.0862300336580333  0.9226396338386282  1.0000
  C   C26       1.0  0.6640179470953029  0.9357403210745474  0.5772932155942386  1.0000
  C   C27       1.0  0.14177171354763377  0.9137770476522464  0.07736125196631605  1.0000
  C   C28       1.0  0.3359858540203077  0.0642515684072578  0.42271454553948473  1.0000
  O   O1        1.0  0.6465601590805719  0.9600833657742027  0.9838601373061097  1.0000
  O   O2        1.0  0.4765155347487635  0.6628862294313151  0.5159572780167212  1.0000
  O   O3        1.0  0.3534442216409275  0.0399320152641494  0.016143175046721612  1.0000
  O   O4        1.0  0.5234850319013374  0.3371056415598518  0.484050446088908  1.0000
  O   O5        1.0  0.7423375248867288  0.21696878271090722  0.9904644693805269  1.0000
  O   O6        1.0  0.7267365129488111  0.7519262462047324  0.509267747966554  1.0000
  O   O7        1.0  0.2576668592955187  0.7830465704221369  0.009535774848714615  1.0000
  O   O8        1.0  0.27325664271615585  0.2480596178570451  0.4907308418617192  1.0000
  O   O9        1.0  0.33452886976353813  0.7555065664338655  0.8195483192835484  1.0000
  O   O10       1.0  0.4361074122808689  0.5152578002673779  0.6804135448143855  1.0000
  O   O11       1.0  0.6654787153158067  0.24450052302670847  0.18044680937814664  1.0000
  O   O12       1.0  0.5638828511414502  0.4847326588064362  0.3195746606504316  1.0000
  O   O13       1.0  0.33993422914294774  0.3047586784685024  0.8816502179269179  1.0000
  O   O14       1.0  0.9233282565231066  0.4584976980189951  0.6183979387213231  1.0000
  O   O15       1.0  0.6600595061279222  0.6952506771498221  0.11834392312046305  1.0000
  O   O16       1.0  0.07665532636687539  0.5414821909697024  0.3815963500065466  1.0000
  O   O17       1.0  0.983104085767259  0.2292641102419566  0.9285056737994355  1.0000
  O   O18       1.0  0.8011802935740705  0.05483412290852391  0.5714390328361959  1.0000
  O   O19       1.0  0.01690013422505391  0.7707488803291511  0.07149360785031433  1.0000
  O   O20       1.0  0.1988253736547421  0.9451612987325291  0.42856788958811626  1.0000
  O   O21       1.0  0.24684472900276694  0.471063373693042  0.9108379273975657  1.0000
  O   O22       1.0  0.06052414057923272  0.3363983937430746  0.5890738506056225  1.0000
  O   O23       1.0  0.7531520756784859  0.5289436448303064  0.0891560551293082  1.0000
  O   O24       1.0  0.9394692189003776  0.6635980662094738  0.4109254851814939  1.0000
  O   O25       1.0  0.26626648474459813  0.672136122910004  0.633797110045535  1.0000
  O   O26       1.0  0.538002220947476  0.6321109392786893  0.8662402985672274  1.0000
  O   O27       1.0  0.733735343861504  0.32785795867660283  0.3661942029486199  1.0000
  O   O28       1.0  0.46200719062036916  0.36789144901231213  0.13375420800571192  1.0000
  O   O29       1.0  0.5948165197739926  0.938301010511225  0.1852299251258955  1.0000
  O   O30       1.0  0.25340622398735496  0.40977807811894723  0.31481235059648344  1.0000
  O   O31       1.0  0.4051882820545529  0.06170492876835001  0.8147698049286306  1.0000
  O   O32       1.0  0.7465905367432484  0.5902207419572036  0.6851856837055267  1.0000
  O   O33       1.0  0.3463340038163736  0.5888335934841251  0.13383234044282946  1.0000
  O   O34       1.0  0.9552871679568753  0.21263073293577153  0.3661048463536858  1.0000
  O   O35       1.0  0.6536655780593675  0.4111746240544961  0.8661624099074887  1.0000
  O   O36       1.0  0.04471265872336978  0.7873657779507043  0.6338960975514  1.0000
