data_image0
_chemical_formula_structural       Cd2H20C16N8Cl4
_chemical_formula_sum              "Cd2 H20 C16 N8 Cl4"
_cell_length_a       5.217041533005744
_cell_length_b       8.455110403002317
_cell_length_c       13.547081956516887
_cell_angle_alpha    97.68417752170559
_cell_angle_beta     89.99985617925914
_cell_angle_gamma    90.00011128541668

_space_group_name_H-M_alt    "P 1"
_space_group_IT_number       1

loop_
  _space_group_symop_operation_xyz
  'x, y, z'

loop_
  _atom_site_type_symbol
  _atom_site_label
  _atom_site_symmetry_multiplicity
  _atom_site_fract_x
  _atom_site_fract_y
  _atom_site_fract_z
  _atom_site_occupancy
  Cd  Cd1       1.0  0.49793929522034835  0.002859371028279199  0.5850159186751042  1.0000
  Cd  Cd2       1.0  0.5020609215991456  0.5028582495118744  0.08501528172650552  1.0000
  H   H1        1.0  0.9185667599160398  0.8127948798194639  0.9179418121283192  1.0000
  H   H2        1.0  0.08143799501259251  0.31279660626711353  0.4179409089819543  1.0000
  H   H3        1.0  0.5632067936236922  0.7670531456364035  0.762170728056013  1.0000
  H   H4        1.0  0.43678925778909433  0.2670516351635897  0.2621670092638198  1.0000
  H   H5        1.0  0.3117660497077281  0.18167227263126765  0.8778882305031459  1.0000
  H   H6        1.0  0.6882366381643193  0.6816677785856343  0.37789009572891524  1.0000
  H   H7        1.0  0.3748700115478059  0.9922219707905173  0.9176188998071593  1.0000
  H   H8        1.0  0.6251295612787616  0.49221828839332454  0.41761851637936326  1.0000
  H   H9        1.0  0.14316239916239226  0.1258975943472436  0.9821029646350538  1.0000
  H   H10       1.0  0.8568375103140866  0.6258968555918829  0.4821057106727977  1.0000
  H   H11       1.0  0.4000146996596499  0.3886953329025218  0.5767389060890125  1.0000
  H   H12       1.0  0.599982955493367  0.8886943251323559  0.07674039933522891  1.0000
  H   H13       1.0  0.05139175496285021  0.5815495959034749  0.6914888273413169  1.0000
  H   H14       1.0  0.9486060928959646  0.08154862655295864  0.1914883543609918  1.0000
  H   H15       1.0  0.6919185761374109  0.30890630637555466  0.8503842850726783  1.0000
  H   H16       1.0  0.3080770269938355  0.8089037808229167  0.3503815053333597  1.0000
  H   H17       1.0  0.5972025344505808  0.4647908689460466  0.7808316585400731  1.0000
  H   H18       1.0  0.4027959349300403  0.9647896423303456  0.2808303697220396  1.0000
  H   H19       1.0  0.8452854134299913  0.4979998990802771  0.873488363902261  1.0000
  H   H20       1.0  0.15471255116361246  0.997998427292451  0.3734880303631058  1.0000
  C   C1        1.0  0.9409561910744275  0.0665763331574567  0.7586050372474203  1.0000
  C   C2        1.0  0.05904500158336389  0.5665771517411432  0.2586049802822288  1.0000
  C   C3        1.0  0.883066104374578  0.8788299115978051  0.8560539774372131  1.0000
  C   C4        1.0  0.11693351568684561  0.37882808357424863  0.3560512766191621  1.0000
  C   C5        1.0  0.7110301254461291  0.8569894146190935  0.7784052910224303  1.0000
  C   C6        1.0  0.28896610294839314  0.35698536323299385  0.2784007697709399  1.0000
  C   C7        1.0  0.22702235615295763  0.0813431277824037  0.909537078261124  1.0000
  C   C8        1.0  0.7729798069289802  0.5813411060396947  0.4095390624696051  1.0000
  C   C9        1.0  0.04440243783361811  0.2054427833565384  0.7184112291216636  1.0000
  C   C10       1.0  0.9556052078136901  0.7054397423518353  0.21841148015095507  1.0000
  C   C11       1.0  0.2596111468381892  0.3579409225860602  0.6299590430181681  1.0000
  C   C12       1.0  0.7403860611517388  0.8579424382477757  0.12995986805081833  1.0000
  C   C13       1.0  0.0867353578962664  0.4544349469896433  0.6862029950275215  1.0000
  C   C14       1.0  0.9132579509552982  0.9544366569786223  0.1862066233624518  1.0000
  C   C15       1.0  0.7588801737535604  0.41104701210763755  0.8157033610826616  1.0000
  C   C16       1.0  0.24111981341854255  0.9110468258760355  0.3157037871475906  1.0000
  N   N1        1.0  0.7480380714534222  0.9743291781652275  0.7186449366645391  1.0000
  N   N2        1.0  0.2519608371444733  0.4743274863060807  0.21864211789918642  1.0000
  N   N3        1.0  0.026765289505156893  0.0105917782719445  0.8426192967225105  1.0000
  N   N4        1.0  0.9732390073647892  0.5105899534737406  0.34262036742747876  1.0000
  N   N5        1.0  0.23245176524806507  0.2040466716937814  0.6506491358526459  1.0000
  N   N6        1.0  0.7675544050007872  0.7040458179029303  0.1506482669968463  1.0000
  N   N7        1.0  0.9530459331141188  0.3573056133330682  0.7415109502717029  1.0000
  N   N8        1.0  0.046954372579683906  0.857304032878723  0.2415107108608439  1.0000
  Cl  Cl1       1.0  0.2875435327328121  0.7438408570024677  0.5576447454328246  1.0000
  Cl  Cl2       1.0  0.7124518741754429  0.2438384410892881  0.057642166498709506  1.0000
  Cl  Cl3       1.0  0.7059064491702571  0.1264552918409976  0.4531856958655424  1.0000
  Cl  Cl4       1.0  0.2940898187219929  0.6264589127776929  0.9531891041621633  1.0000
