data_image0
_chemical_formula_structural       Cd2H20C24S4Br4N12
_chemical_formula_sum              "Cd2 H20 C24 S4 Br4 N12"
_cell_length_a       3.8693896955584193
_cell_length_b       13.041553207535172
_cell_length_c       16.039352012638368
_cell_angle_alpha    84.84799995920443
_cell_angle_beta     83.03524984083425
_cell_angle_gamma    81.47791432368

_space_group_name_H-M_alt    "P 1"
_space_group_IT_number       1

loop_
  _space_group_symop_operation_xyz
  'x, y, z'

loop_
  _atom_site_type_symbol
  _atom_site_label
  _atom_site_symmetry_multiplicity
  _atom_site_fract_x
  _atom_site_fract_y
  _atom_site_fract_z
  _atom_site_occupancy
  Cd  Cd1       1.0  0.8848768378435494  0.250010537691594  0.2501252265454639  1.0000
  Cd  Cd2       1.0  0.11512596252449463  0.7499845844222579  0.7498745741595982  1.0000
  H   H1        1.0  0.4940942072206839  0.08720894136315138  0.8354885137426393  1.0000
  H   H2        1.0  0.9172508818610012  0.4132295835755714  0.6644812413727266  1.0000
  H   H3        1.0  0.5059098045906507  0.912791621837485  0.1645097883918893  1.0000
  H   H4        1.0  0.08274416604033519  0.5867779766677542  0.3355171172346303  1.0000
  H   H5        1.0  0.6915619671751047  0.1806973837948433  0.7745924650809356  1.0000
  H   H6        1.0  0.14642701534448596  0.31978657569142405  0.7254959938615497  1.0000
  H   H7        1.0  0.30844240983375926  0.8193024019815239  0.2254058835619048  1.0000
  H   H8        1.0  0.8535706722581365  0.680219430362186  0.2745031557271105  1.0000
  H   H9        1.0  0.4327138446309678  0.4795773719688298  0.9300941471965202  1.0000
  H   H10       1.0  0.3401732336339336  0.020444684568822404  0.5705249509791557  1.0000
  H   H11       1.0  0.5673053583116427  0.5204193087222393  0.0699092732323052  1.0000
  H   H12       1.0  0.6597915651242374  0.9795535506436226  0.42948000861461105  1.0000
  H   H13       1.0  0.6106867043834541  0.363776056241413  0.8169415538163561  1.0000
  H   H14       1.0  0.29086526949893715  0.1366642506877938  0.6833530195047075  1.0000
  H   H15       1.0  0.3893301131669204  0.6362229555496625  0.1830604054638485  1.0000
  H   H16       1.0  0.7091062561598279  0.863340977520984  0.3166466808535517  1.0000
  H   H17       1.0  0.1328433889934145  0.42088723495709257  0.0694020038891878  1.0000
  H   H18       1.0  0.12031577088460929  0.07877219864225542  0.4313206992462638  1.0000
  H   H19       1.0  0.8671652501817919  0.5791063347986665  0.9306006073855286  1.0000
  H   H20       1.0  0.8796644875916683  0.9212306999290193  0.5686819324956431  1.0000
  C   C1        1.0  0.13155627309770773  0.2659277405334279  0.029473830451934198  1.0000
  C   C2        1.0  0.9264410426862071  0.23406898699714423  0.4708625270247565  1.0000
  C   C3        1.0  0.8684585518278496  0.734067382818651  0.9705269654404916  1.0000
  C   C4        1.0  0.07355878531513574  0.7659323523101095  0.5291343326721076  1.0000
  C   C5        1.0  0.226510691813168  0.19725438201537318  0.9617357400519138  1.0000
  C   C6        1.0  0.8860375477556204  0.3029484528593329  0.5384148221474732  1.0000
  C   C7        1.0  0.7734995841048684  0.802742294867599  0.0382635668945355  1.0000
  C   C8        1.0  0.11395767113618398  0.6970559965141232  0.4615824008694602  1.0000
  C   C9        1.0  0.4076781877079798  0.2311600467563579  0.8831219676041399  1.0000
  C   C10       1.0  0.02190718511445084  0.2691646976276942  0.6170494815709728  1.0000
  C   C11       1.0  0.5923330128121763  0.7688374087236766  0.1168786144576757  1.0000
  C   C12       1.0  0.9780910894626444  0.73083742233252  0.3829511478772645  1.0000
  C   C13       1.0  0.4739748830388707  0.33364316816199857  0.8753562397277078  1.0000
  C   C14       1.0  0.18233840846213664  0.1666361188830052  0.62496354250991  1.0000
  C   C15       1.0  0.5260407556003341  0.666354288121717  0.1246451146044478  1.0000
  C   C16       1.0  0.8176468475377802  0.8333683365132815  0.37504109010939146  1.0000
  C   C17       1.0  0.3718269908237276  0.40024851451643434  0.9415896612291661  1.0000
  C   C18       1.0  0.21203695792123506  0.0998202371094123  0.5589119620183496  1.0000
  C   C19       1.0  0.6281904137011194  0.5997466111812458  0.058413777910615694  1.0000
  C   C20       1.0  0.7879347619445837  0.9001873245449731  0.4410889204386378  1.0000
  C   C21       1.0  0.20381688734949677  0.369384941150784  0.0186451423853669  1.0000
  C   C22       1.0  0.08989359928522599  0.13050266767871216  0.4819017614494641  1.0000
  C   C23       1.0  0.7961929307368867  0.6306101841123419  0.9813580738373986  1.0000
  C   C24       1.0  0.910092539845884  0.869501005377835  0.5180971561357737  1.0000
  S   S1        1.0  0.9460339532748209  0.09840891554060957  0.07701565252002499  1.0000
  S   S2        1.0  0.623656649299846  0.4017719125267335  0.4230014487961711  1.0000
  S   S3        1.0  0.05397711314027721  0.9015846499585152  0.9229818951770027  1.0000
  S   S4        1.0  0.3763449170172492  0.598232538309219  0.5769972444557822  1.0000
  Br  Br1       1.0  0.453537023257013  0.0964110085160144  0.2664856293788347  1.0000
  Br  Br2       1.0  0.31676740776492085  0.4037118357868295  0.23394257679923666  1.0000
  Br  Br3       1.0  0.5464592680108069  0.9035856642691585  0.7335094154738897  1.0000
  Br  Br4       1.0  0.683245253545344  0.5962825099961364  0.7660581912958336  1.0000
  N   N1        1.0  0.9725460402280959  0.21714807777760836  0.09866324767560998  1.0000
  N   N2        1.0  0.7887091836127097  0.282803536874809  0.4015961355563533  1.0000
  N   N3        1.0  0.027462802469706463  0.7828462666877061  0.9013361244901147  1.0000
  N   N4        1.0  0.21130210022602794  0.7171978063854001  0.5984049119285544  1.0000
  N   N5        1.0  0.1336180811681801  0.10189583493704654  0.9811482785555083  1.0000
  N   N6        1.0  0.7187101897316527  0.3984112164199373  0.5188183180822321  1.0000
  N   N7        1.0  0.8663957082668005  0.898100064152537  0.018850525545921905  1.0000
  N   N8        1.0  0.2812841878766293  0.6015963421366094  0.4811780952424414  1.0000
  N   N9        1.0  0.4949498201091771  0.164434483937697  0.8196047377767073  1.0000
  N   N10       1.0  0.9788671987316064  0.33600691386676124  0.6804682464582114  1.0000
  N   N11       1.0  0.5050520280868651  0.8355653016938193  0.1803935365604659  1.0000
  N   N12       1.0  0.021123632827609852  0.6639975369037644  0.3195307732300563  1.0000
