data_image0
_chemical_formula_structural       Ca2H28C28O16
_chemical_formula_sum              "Ca2 H28 C28 O16"
_cell_length_a       7.540555198988185
_cell_length_b       9.997123063224985
_cell_length_c       9.997111340236776
_cell_angle_alpha    70.19517251567693
_cell_angle_beta     88.74821667888916
_cell_angle_gamma    88.74827970767309

_space_group_name_H-M_alt    "P 1"
_space_group_IT_number       1

loop_
  _space_group_symop_operation_xyz
  'x, y, z'

loop_
  _atom_site_type_symbol
  _atom_site_label
  _atom_site_symmetry_multiplicity
  _atom_site_fract_x
  _atom_site_fract_y
  _atom_site_fract_z
  _atom_site_occupancy
  Ca  Ca1       1.0  0.2499990506998345  0.9434499081860537  0.05655048680680607  1.0000
  Ca  Ca2       1.0  0.7499982517805323  0.056551485366476605  0.9434491899834822  1.0000
  H   H1        1.0  0.1655511526362758  0.9423274457404817  0.36490765662166064  1.0000
  H   H2        1.0  0.3344472637720486  0.6350933187342421  0.0576707439464528  1.0000
  H   H3        1.0  0.8344488288860391  0.0576728906259376  0.635093331429708  1.0000
  H   H4        1.0  0.6655500578304442  0.3649070090518762  0.9423282956687868  1.0000
  H   H5        1.0  0.9973141573788029  0.9509365206375621  0.2698961821078781  1.0000
  H   H6        1.0  0.502684325079649  0.730104666672304  0.049062929115571315  1.0000
  H   H7        1.0  0.002685797976177199  0.0490648765483783  0.7301034443454808  1.0000
  H   H8        1.0  0.49731299652284383  0.26989566111382146  0.9509361104996682  1.0000
  H   H9        1.0  0.2063705145923294  0.9620764810845588  0.6130683564689221  1.0000
  H   H10       1.0  0.29362895976711917  0.386929887924076  0.037924006269534495  1.0000
  H   H11       1.0  0.7936307863220834  0.0379238521516783  0.38693060764092013  1.0000
  H   H12       1.0  0.7063697144400222  0.6130693808592299  0.9620763697752532  1.0000
  H   H13       1.0  0.33627372225755187  0.16803774265665083  0.25896024444584487  1.0000
  H   H14       1.0  0.1637287639064553  0.7410394152925049  0.8319632250713623  1.0000
  H   H15       1.0  0.6637275857020699  0.831962595526477  0.7410407184370552  1.0000
  H   H16       1.0  0.8362725666979002  0.25895985959765977  0.16803810002302547  1.0000
  H   H17       1.0  0.5243263110418326  0.3795689529274924  0.21552475598516443  1.0000
  H   H18       1.0  0.975675411310462  0.7844752831176224  0.6204320037026605  1.0000
  H   H19       1.0  0.4756763233550957  0.6204313870723368  0.7844761817292746  1.0000
  H   H20       1.0  0.024325896649159504  0.2155250550655055  0.37956895918023986  1.0000
  H   H21       1.0  0.6384389519328978  0.4425513733829335  0.41798772924622085  1.0000
  H   H22       1.0  0.8615614895179108  0.5820127402516422  0.5574491616940234  1.0000
  H   H23       1.0  0.36156237514885703  0.5574478990337894  0.582012596461638  1.0000
  H   H24       1.0  0.13843846583706212  0.4179886569342912  0.4425504647593284  1.0000
  H   H25       1.0  0.5644345142240043  0.28921652781924934  0.666834032123546  1.0000
  H   H26       1.0  0.9355648623990901  0.3331655827665401  0.7107822066157394  1.0000
  H   H27       1.0  0.43556813929505017  0.710782746414182  0.33316626841585156  1.0000
  H   H28       1.0  0.06443378564070198  0.6668347468362867  0.28921680783103193  1.0000
  C   C1        1.0  0.4069836003294469  0.14467270322420944  0.6031317461966096  1.0000
  C   C2        1.0  0.0930154954544165  0.3968676826901572  0.8553247974188662  1.0000
  C   C3        1.0  0.5930177302749159  0.8553265716659552  0.39686957889777114  1.0000
  C   C4        1.0  0.9069845016674237  0.6031315854364153  0.14467455407092433  1.0000
  C   C5        1.0  0.34027562406731704  0.11264251426211302  0.4865580665196914  1.0000
  C   C6        1.0  0.1597255292849837  0.51344032609218  0.8873582267245297  1.0000
  C   C7        1.0  0.6597256768470956  0.887357818974124  0.5134408975901508  1.0000
  C   C8        1.0  0.8402744678368563  0.48655894203439237  0.1126411247652683  1.0000
  C   C9        1.0  0.387416388807253  0.194933548677426  0.3475992040943012  1.0000
  C   C10       1.0  0.112585986230421  0.6524010952802826  0.8050672435072668  1.0000
  C   C11       1.0  0.6125849191523685  0.8050667895056947  0.6524017587886062  1.0000
  C   C12       1.0  0.8874153217292006  0.3475992429028452  0.19493371937563353  1.0000
  C   C13       1.0  0.49269018204368115  0.3132545818747374  0.3242906899701339  1.0000
  C   C14       1.0  0.007310385559726703  0.6757099182193542  0.6867471101201374  1.0000
  C   C15       1.0  0.5073111188707317  0.6867457513615066  0.6757082741397084  1.0000
  C   C16       1.0  0.9926895733178541  0.324291481440028  0.31325351571974375  1.0000
  C   C17       1.0  0.5564873295338372  0.34917100075168855  0.43810342314267087  1.0000
  C   C18       1.0  0.9435140944689875  0.5618955900667615  0.6508292710333803  1.0000
  C   C19       1.0  0.4435152857409649  0.6508304050145526  0.5618981517468169  1.0000
  C   C20       1.0  0.05648590617545322  0.4381036805332527  0.3491710798429394  1.0000
  C   C21       1.0  0.5155200546925088  0.26400734180969465  0.5764182786132039  1.0000
  C   C22       1.0  0.9844823775604964  0.42358234533833167  0.7359915123027247  1.0000
  C   C23       1.0  0.4844799424293313  0.7359919263168777  0.42358107287659397  1.0000
  C   C24       1.0  0.015518919831301  0.5764179854244704  0.26400645242058823  1.0000
  C   C25       1.0  0.3617133566997808  0.05405369685016132  0.749882674003821  1.0000
  C   C26       1.0  0.1382917012778719  0.25011667397945553  0.9459477522108768  1.0000
  C   C27       1.0  0.6382879442146316  0.9459466363860757  0.25011629010602116  1.0000
  C   C28       1.0  0.8617069729292696  0.7498825948038572  0.05405262383391125  1.0000
  O   O1        1.0  0.1233944879658466  0.920784459926125  0.28180405983160023  1.0000
  O   O2        1.0  0.3766017023449352  0.7181972831733175  0.07921335304175862  1.0000
  O   O3        1.0  0.8766068199937749  0.07921587825700267  0.7181969030513001  1.0000
  O   O4        1.0  0.6233942701755169  0.281804106089055  0.9207853495304549  1.0000
  O   O5        1.0  0.2245426665766388  0.9735383970954316  0.7712239494926151  1.0000
  O   O6        1.0  0.2754523634342192  0.2287742822241726  0.026459155228856376  1.0000
  O   O7        1.0  0.7754573305452013  0.0264608710311407  0.22877540199718277  1.0000
  O   O8        1.0  0.7245463298950555  0.7712239207927284  0.9735405836408829  1.0000
  O   O9        1.0  0.45455084912389054  0.05572801033506639  0.8544580243056996  1.0000
  O   O10       1.0  0.04544605193500931  0.14553743095905247  0.9442697627758107  1.0000
  O   O11       1.0  0.5454478250832511  0.9442712584482393  0.14554235173908836  1.0000
  O   O12       1.0  0.9545512696674834  0.8544628968270659  0.055729276839429076  1.0000
  O   O13       1.0  0.22871272266171874  0.0016472756333030002  0.5068913760461484  1.0000
  O   O14       1.0  0.27128663610628917  0.49310957905171177  0.9983535463383502  1.0000
  O   O15       1.0  0.771287236215862  0.9983541240260794  0.4931092497937326  1.0000
  O   O16       1.0  0.7287133645381585  0.5068896915483023  0.0016468045379696673  1.0000
