data_image0
_chemical_formula_structural       Co2Cu4H60C30S12Br4N6
_chemical_formula_sum              "Co2 Cu4 H60 C30 S12 Br4 N6"
_cell_length_a       11.606125152615293
_cell_length_b       11.638888311568438
_cell_length_c       13.705
_cell_angle_alpha    66.94542392154091
_cell_angle_beta     66.87656925646785
_cell_angle_gamma    74.8806835417878

_space_group_name_H-M_alt    "P 1"
_space_group_IT_number       1

loop_
  _space_group_symop_operation_xyz
  'x, y, z'

loop_
  _atom_site_type_symbol
  _atom_site_label
  _atom_site_symmetry_multiplicity
  _atom_site_fract_x
  _atom_site_fract_y
  _atom_site_fract_z
  _atom_site_occupancy
  Co  Co1       1.0  0.898959090073248  0.1009253949488311  0.7500713245743923  1.0000
  Co  Co2       1.0  0.1010488345174565  0.8990753028574189  0.24992303515986694  1.0000
  Cu  Cu1       1.0  0.6194254760025828  0.0334754970822502  0.9246965607951194  1.0000
  Cu  Cu2       1.0  0.9664146867063438  0.3800271871397313  0.5757556263025376  1.0000
  Cu  Cu3       1.0  0.3805898870216708  0.9665477925897576  0.07531262021089435  1.0000
  Cu  Cu4       1.0  0.0336015503546321  0.6199744519942598  0.42423638555199267  1.0000
  H   H1        1.0  0.7224857614783602  0.5205005844201764  0.7209966170552563  1.0000
  H   H2        1.0  0.47844193539564367  0.2783524953100311  0.7786919049229937  1.0000
  H   H3        1.0  0.2775240746261786  0.4794850521422447  0.2790116014807609  1.0000
  H   H4        1.0  0.5215458179155094  0.7216594984290978  0.22131051411489006  1.0000
  H   H5        1.0  0.5811249333785256  0.5857515406866227  0.6895212129342881  1.0000
  H   H6        1.0  0.4133233924796968  0.4193511534692718  0.810355357401285  1.0000
  H   H7        1.0  0.4188891909788027  0.4142519811028507  0.3104789016952693  1.0000
  H   H8        1.0  0.5866728933662416  0.5806674295640377  0.1896398435799255  1.0000
  H   H9        1.0  0.4553629655104814  0.5142840560266322  0.8981201169736224  1.0000
  H   H10       1.0  0.48575536020318566  0.5444470207925747  0.6017090260422788  1.0000
  H   H11       1.0  0.5446445378258957  0.4856978152248246  0.10188502197880922  1.0000
  H   H12       1.0  0.5142402654491888  0.4555546183414165  0.3982898405591656  1.0000
  H   H13       1.0  0.5994189584668632  0.45324271741250755  0.9270824847431315  1.0000
  H   H14       1.0  0.5466305979357883  0.40071098156604273  0.5726736015295019  1.0000
  H   H15       1.0  0.40058852599479877  0.5467466844608708  0.07291577805936098  1.0000
  H   H16       1.0  0.45336476990264873  0.5993000708453522  0.427322949895391  1.0000
  H   H17       1.0  0.5618628434822028  0.6187027182178113  0.8661025186577405  1.0000
  H   H18       1.0  0.3805448729856309  0.4387641554468686  0.6336160952059159  1.0000
  H   H19       1.0  0.4381385606824608  0.3812829183446098  0.1339106930750518  1.0000
  H   H20       1.0  0.6194507337920356  0.5612450143090442  0.3663810028705399  1.0000
  H   H21       1.0  0.9966224894040322  0.666298131396843  0.8243778930160346  1.0000
  H   H22       1.0  0.33559966370049915  0.0045692048489201  0.6738169615165859  1.0000
  H   H23       1.0  0.003379732173222297  0.3336884464933192  0.17562816686519506  1.0000
  H   H24       1.0  0.6643766269596227  0.9954371409237764  0.32619260732968763  1.0000
  H   H25       1.0  0.9470820696124989  0.5533030321684791  0.9596604343436397  1.0000
  H   H26       1.0  0.4484403212412857  0.0555505739079578  0.5384093748856671  1.0000
  H   H27       1.0  0.0529118017450756  0.4466976656377781  0.04034516602805383  1.0000
  H   H28       1.0  0.5515510350330217  0.9444256493770595  0.4616030124507589  1.0000
  H   H29       1.0  0.7328921304728624  0.5769171798487349  0.9432905983568604  1.0000
  H   H30       1.0  0.42334229834437304  0.2681485026107566  0.5567310178499411  1.0000
  H   H31       1.0  0.26711336075477016  0.4230731633523845  0.056705825296532515  1.0000
  H   H32       1.0  0.5766354259511316  0.7318465472290612  0.44327015633443534  1.0000
  H   H33       1.0  0.7813616598441584  0.6916546767234379  0.8088507678147819  1.0000
  H   H34       1.0  0.3086593698659996  0.21857253586721728  0.6912353716693573  1.0000
  H   H35       1.0  0.21863902750281744  0.3083366078054155  0.19115277769550684  1.0000
  H   H36       1.0  0.6913260695516924  0.7814281619390328  0.3087642769884908  1.0000
  H   H37       1.0  0.8548346222194353  0.5326644214736831  0.8304748081890595  1.0000
  H   H38       1.0  0.4684914763407946  0.1462889200568327  0.6687621555379478  1.0000
  H   H39       1.0  0.1451780056570229  0.4673287457106525  0.16951684353032448  1.0000
  H   H40       1.0  0.5315053062583103  0.8537183670435978  0.33123371828926207  1.0000
  H   H41       1.0  0.7443464424929118  0.7719028665401453  0.09785108468395978  1.0000
  H   H42       1.0  0.2283705451195388  0.2563301328377534  0.40162444061675723  1.0000
  H   H43       1.0  0.2556639532102878  0.2280931246274065  0.902144748181115  1.0000
  H   H44       1.0  0.7716213518787143  0.7436639756743233  0.5983752518451553  1.0000
  H   H45       1.0  0.7826908386840684  0.6115778085553742  0.10647152224655096  1.0000
  H   H46       1.0  0.3893549783922338  0.2179371396428635  0.3924032111158199  1.0000
  H   H47       1.0  0.2173139546005842  0.3884106519902629  0.8935250299771127  1.0000
  H   H48       1.0  0.610640049912071  0.7820692061298331  0.6075993964816461  1.0000
  H   H49       1.0  0.007475823584989903  0.6194859028973099  0.09108459051897455  1.0000
  H   H50       1.0  0.38069015427405617  0.9938267726824889  0.4083288700095055  1.0000
  H   H51       1.0  0.9925274534141408  0.3805147949089402  0.9089083232583305  1.0000
  H   H52       1.0  0.6193181402514512  0.0061666380233376  0.5916669875433554  1.0000
  H   H53       1.0  0.9613874782154281  0.7772392534969939  0.09189053124329401  1.0000
  H   H54       1.0  0.22229015239779665  0.0399593625538941  0.40811882109021985  1.0000
  H   H55       1.0  0.038625250255933  0.2227605029815223  0.9081025439197248  1.0000
  H   H56       1.0  0.7777150810158915  0.960040393924622  0.591878935690154  1.0000
  H   H57       1.0  0.8930293263495342  0.6518092148260592  0.21179225500073773  1.0000
  H   H58       1.0  0.34802263003259526  0.1075401049763087  0.2877380647150929  1.0000
  H   H59       1.0  0.10698047200558848  0.3481914829801909  0.7881941849676295  1.0000
  H   H60       1.0  0.6519774599663037  0.89245588619125  0.7122648438269791  1.0000
  C   C1        1.0  0.7026655178071977  0.296936187548873  0.7501960145051713  1.0000
  C   C2        1.0  0.2973315226058517  0.703061686274161  0.2498043634807132  1.0000
  C   C3        1.0  0.6213232577640042  0.5121651272843764  0.7515145635201818  1.0000
  C   C4        1.0  0.48711091868214845  0.3790858593999502  0.7482933159658457  1.0000
  C   C5        1.0  0.3786816361155516  0.4878299225554414  0.2484885197720673  1.0000
  C   C6        1.0  0.5128848075651363  0.6209223690282215  0.25170332577569343  1.0000
  C   C7        1.0  0.5558001985024178  0.525565868987961  0.8673290266087577  1.0000
  C   C8        1.0  0.4740618245302598  0.444439420390033  0.6324138974318813  1.0000
  C   C9        1.0  0.4442045947822351  0.47442259155767624  0.13267336290056156  1.0000
  C   C10       1.0  0.5259309716007863  0.5555697493658798  0.3675848650435044  1.0000
  C   C11       1.0  0.8703029100843906  0.8564613960773357  0.8860151208315159  1.0000
  C   C12       1.0  0.1439322446179077  0.1303277669010328  0.6135225138969744  1.0000
  C   C13       1.0  0.12969915427383677  0.1435411843844037  0.1139747244419382  1.0000
  C   C14       1.0  0.8560568228590099  0.8696738722329584  0.3864792634210091  1.0000
  C   C15       1.0  0.9140526143789458  0.6369964815127958  0.8992897408147441  1.0000
  C   C16       1.0  0.36428689132611675  0.0874540536647643  0.5994060148402695  1.0000
  C   C17       1.0  0.0859467588022653  0.3630051576211955  0.10070933879049451  1.0000
  C   C18       1.0  0.6357058230847271  0.9125409961750464  0.4005974706807081  1.0000
  C   C19       1.0  0.814691810717207  0.6076515305527295  0.8687071254312994  1.0000
  C   C20       1.0  0.3930694308500549  0.1861381472651686  0.6308713566630999  1.0000
  C   C21       1.0  0.18531310203705686  0.3923359886651667  0.13129188910026804  1.0000
  C   C22       1.0  0.6069191776231122  0.8138597265578653  0.3691340145195596  1.0000
  C   C23       1.0  0.8223793054316247  0.7004833895948863  0.07361372509706127  1.0000
  C   C24       1.0  0.3000230611583419  0.1785341017831854  0.4256143273790017  1.0000
  C   C25       1.0  0.1776237146835129  0.2995116602449244  0.9263848737290418  1.0000
  C   C26       1.0  0.6999708101992325  0.8214665960230718  0.5743861653677413  1.0000
  C   C27       1.0  0.9271837300673978  0.6865677416176367  0.11957213104616222  1.0000
  C   C28       1.0  0.3134467031345878  0.0738735183628805  0.379946829344135  1.0000
  C   C29       1.0  0.07282618775734309  0.31343201486087213  0.8804189602122321  1.0000
  C   C30       1.0  0.6865578323361275  0.9261243554601535  0.6200554339707622  1.0000
  S   S1        1.0  0.7015033096290395  0.1563441829732213  0.7361842340945303  1.0000
  S   S2        1.0  0.8437334995331796  0.2975951169667255  0.764333620339734  1.0000
  S   S3        1.0  0.29849560454842816  0.8436536908498127  0.2638184393753776  1.0000
  S   S4        1.0  0.1562702185249449  0.7024018155285673  0.23566412025540023  1.0000
  S   S5        1.0  0.8224160789818099  0.9835406409483625  0.9350344977250203  1.0000
  S   S6        1.0  0.0162266144984926  0.1778610524492379  0.5649764245647545  1.0000
  S   S7        1.0  0.1776015728398264  0.0164572328746715  0.06496194415679211  1.0000
  S   S8        1.0  0.9837594851127633  0.8221565892563305  0.43502612541923463  1.0000
  S   S9        1.0  0.9254019526037779  0.9066652284233072  0.7435016029921543  1.0000
  S   S10       1.0  0.09402713428082878  0.0747141240345073  0.756019537562274  1.0000
  S   S11       1.0  0.0745920004739915  0.09334958929903789  0.25648832942334104  1.0000
  S   S12       1.0  0.9059551360813954  0.925289397754966  0.2439816851778503  1.0000
  Br  Br1       1.0  0.5274655503067507  0.8506025722249076  0.9497571867014613  1.0000
  Br  Br2       1.0  0.14954450985423048  0.4728232757277837  0.5497003239561664  1.0000
  Br  Br3       1.0  0.47254084005367497  0.1494028322200407  0.05027114169724462  1.0000
  Br  Br4       1.0  0.850445400131349  0.5272160165158013  0.45030762203237634  1.0000
  N   N1        1.0  0.6086053137449311  0.3911960407722859  0.7499391756347649  1.0000
  N   N2        1.0  0.3913960526703163  0.6088046570339642  0.2500573651553282  1.0000
  N   N3        1.0  0.8668002263592385  0.7362519610512521  0.9510442976357254  1.0000
  N   N4        1.0  0.2644323807238109  0.1344451344348556  0.5481433455006339  1.0000
  N   N5        1.0  0.13321367793356834  0.2637459127717818  0.04895047192086822  1.0000
  N   N6        1.0  0.735563622212119  0.8655461500940049  0.45185592062102836  1.0000
