data_image0
_chemical_formula_structural       Zn4H32C40N24O16
_chemical_formula_sum              "Zn4 H32 C40 N24 O16"
_cell_length_a       7.575605791013926
_cell_length_b       11.573526869038405
_cell_length_c       14.707980024063016
_cell_angle_alpha    90.00027178490413
_cell_angle_beta     90.00019317543777
_cell_angle_gamma    90.00011298627575

_space_group_name_H-M_alt    "P 1"
_space_group_IT_number       1

loop_
  _space_group_symop_operation_xyz
  'x, y, z'

loop_
  _atom_site_type_symbol
  _atom_site_label
  _atom_site_symmetry_multiplicity
  _atom_site_fract_x
  _atom_site_fract_y
  _atom_site_fract_z
  _atom_site_occupancy
  Zn  Zn1       1.0  0.5000004951233095  0.6620963447082175  0.7500026798497572  1.0000
  Zn  Zn2       1.0  2.1328788691e-06  0.8379086903366115  0.2500032595226642  1.0000
  Zn  Zn3       1.0  0.49999041243114567  0.33790757105337116  0.2500041167322635  1.0000
  Zn  Zn4       1.0  2.7393518564999996e-06  0.1620928732444824  0.749999960641091  1.0000
  H   H1        1.0  0.12400705341033812  0.6770381764605204  0.8188446057481829  1.0000
  H   H2        1.0  0.375999991253309  0.8229664105052237  0.3188450941908911  1.0000
  H   H3        1.0  0.6240061035904106  0.8229592369752083  0.1811533872726869  1.0000
  H   H4        1.0  0.8759887032153699  0.6770382297963025  0.6811560502686902  1.0000
  H   H5        1.0  0.8759838540972498  0.3229631471394896  0.18114927267168213  1.0000
  H   H6        1.0  0.6240133567070103  0.17703836927014294  0.6811481043516212  1.0000
  H   H7        1.0  0.37600064424759694  0.17704467876546195  0.8188432107776508  1.0000
  H   H8        1.0  0.12399560417224362  0.3229535893748832  0.3188459869640355  1.0000
  H   H9        1.0  0.941536906693841  0.8130044300837438  0.9099233279042596  1.0000
  H   H10       1.0  0.5584673375431849  0.6869978751255559  0.4099214060728329  1.0000
  H   H11       1.0  0.4415422942417423  0.6869959718249632  0.0900772489645618  1.0000
  H   H12       1.0  0.05845135288656421  0.8129994564798225  0.5900717153032105  1.0000
  H   H13       1.0  0.058446080656011604  0.18699170927443728  0.0900732701112403  1.0000
  H   H14       1.0  0.4415486504749709  0.3130086327352116  0.590072472378175  1.0000
  H   H15       1.0  0.5584657736371526  0.3130070798900491  0.9099241084064147  1.0000
  H   H16       1.0  0.9415408746521053  0.18698890653084274  0.409929642026846  1.0000
  H   H17       1.0  0.40676402584034593  0.026834151686166794  0.9391531562036874  1.0000
  H   H18       1.0  0.09323962062579479  0.473171755695546  0.439145560624091  1.0000
  H   H19       1.0  0.9067719857665112  0.47317544074966383  0.0608509383384259  1.0000
  H   H20       1.0  0.5932257472005632  0.0268262128261227  0.5608484779713551  1.0000
  H   H21       1.0  0.5932189615626698  0.9731671719582027  0.060857039881817315  1.0000
  H   H22       1.0  0.9067803274875246  0.5268304319839815  0.5608551168524444  1.0000
  H   H23       1.0  0.09322816195634691  0.5268336592402036  0.9391483793279819  1.0000
  H   H24       1.0  0.4067810006343251  0.973174246753196  0.4391487999755555  1.0000
  H   H25       1.0  0.574029569947065  0.8778615219466629  0.8512882975504044  1.0000
  H   H26       1.0  0.9259729653856753  0.622149069380356  0.3512854041720814  1.0000
  H   H27       1.0  0.07403910464551441  0.6221461976245307  0.1487164088860169  1.0000
  H   H28       1.0  0.42595757147336144  0.8778547692518972  0.6487151460145385  1.0000
  H   H29       1.0  0.42595077739984805  0.1221449859308876  0.14871849902740317  1.0000
  H   H30       1.0  0.0740456627066237  0.37785225426365804  0.6487173130107636  1.0000
  H   H31       1.0  0.9259663231696464  0.37785858215821105  0.8512808690678142  1.0000
  H   H32       1.0  0.5740359760979532  0.12214482628038328  0.351282811822479  1.0000
  C   C1        1.0  0.18233791973222682  0.7546481783941345  0.8480554735772118  1.0000
  C   C2        1.0  0.317667998636793  0.7453557210258307  0.3480548931403646  1.0000
  C   C3        1.0  0.6823484148896738  0.7453467157429042  0.15194533901821933  1.0000
  C   C4        1.0  0.8176514783058623  0.7546514385912316  0.6519481910691668  1.0000
  C   C5        1.0  0.8176437476083082  0.2453488250184535  0.1519458837598862  1.0000
  C   C6        1.0  0.682345349344253  0.2546507868476695  0.6519437446295058  1.0000
  C   C7        1.0  0.31766493308334276  0.25465028768740433  0.8480553384430041  1.0000
  C   C8        1.0  0.1823394292328544  0.24534815695788836  0.3480558858927481  1.0000
  C   C9        1.0  0.08092189384287  0.8305266075464675  0.8987089826754158  1.0000
  C   C10       1.0  0.41908304044894623  0.6694732777329548  0.3987096532569794  1.0000
  C   C11       1.0  0.5809212567142625  0.6694698880923653  0.10129641544528312  1.0000
  C   C12       1.0  0.9190703803603384  0.830525368047688  0.6012881655034691  1.0000
  C   C13       1.0  0.9190676936563946  0.1694660756729718  0.10129441436947671  1.0000
  C   C14       1.0  0.5809303075284974  0.3305323660976427  0.6012883046082608  1.0000
  C   C15       1.0  0.41906965083074266  0.3305322995813639  0.8987083414244736  1.0000
  C   C16       1.0  0.08092316720924944  0.16946731516600264  0.398712511932743  1.0000
  C   C17       1.0  0.16222127209014303  0.9299614478557386  0.9332809461148273  1.0000
  C   C18       1.0  0.3377799314126194  0.5700421024690671  0.4332790673822658  1.0000
  C   C19       1.0  0.6622293364072435  0.5700360133091918  0.0667252712350006  1.0000
  C   C20       1.0  0.8377673514967726  0.9299616260763554  0.5667192919674875  1.0000
  C   C21       1.0  0.8377603952657396  0.07003382749157791  0.06672585044319132  1.0000
  C   C22       1.0  0.6622360566280817  0.42996440541223546  0.5667216100989166  1.0000
  C   C23       1.0  0.3377721313398895  0.42996444628325736  0.9332774459315303  1.0000
  C   C24       1.0  0.16223147617990458  0.0700362413795759  0.4332793457738476  1.0000
  C   C25       1.0  0.3410597449291615  0.9490516233584785  0.9151875557893163  1.0000
  C   C26       1.0  0.1589439786109281  0.5509509535910768  0.4151818999883404  1.0000
  C   C27       1.0  0.8410744699672821  0.5509538373898194  0.08481420872252703  1.0000
  C   C28       1.0  0.6589315781058785  0.949044775349641  0.5848113935673354  1.0000
  C   C29       1.0  0.6589179623410075  0.050949700257945096  0.0848144814554459  1.0000
  C   C30       1.0  0.8410786095174745  0.44904432173864706  0.5848106186413773  1.0000
  C   C31       1.0  0.15893623795007272  0.4490500783533166  0.9151823893311999  1.0000
  C   C32       1.0  0.3410725296662278  0.05095222806051678  0.4151845245648503  1.0000
  C   C33       1.0  0.4341331980943153  0.8668570542558174  0.8658163248735917  1.0000
  C   C34       1.0  0.06586623792815521  0.6331478165054563  0.36581217547568917  1.0000
  C   C35       1.0  0.9341445463068325  0.6331571630689226  0.1341842393388646  1.0000
  C   C36       1.0  0.5658605091992684  0.8668469322313967  0.6341850380013982  1.0000
  C   C37       1.0  0.5658497892959958  0.1331520457336097  0.134186392293195  1.0000
  C   C38       1.0  0.9341510701097634  0.3668500509537935  0.6341837426694144  1.0000
  C   C39       1.0  0.06585956148856552  0.36685625711534425  0.8658109989208711  1.0000
  C   C40       1.0  0.43413963850342446  0.1331492071457063  0.36581427964087254  1.0000
  N   N1        1.0  0.21708802621073184  0.5838120485742023  0.6538708040347602  1.0000
  N   N2        1.0  0.28290604405815156  0.9162001819754336  0.15386944043623177  1.0000
  N   N3        1.0  0.7170818605520921  0.9161837529642085  0.3461287082907916  1.0000
  N   N4        1.0  0.7829232805978564  0.5838017500257139  0.8461329043204272  1.0000
  N   N5        1.0  0.7829134415256078  0.4161858188895379  0.346129873417894  1.0000
  N   N6        1.0  0.7170782633293841  0.0838002775919335  0.846128517394476  1.0000
  N   N7        1.0  0.28291828714304756  0.0838002898512542  0.6538740088440422  1.0000
  N   N8        1.0  0.21708478721629382  0.4161814287189217  0.15385825446828963  1.0000
  N   N9        1.0  0.35614445585242294  0.7712447361310311  0.8323682510762112  1.0000
  N   N10       1.0  0.14385739838796507  0.7287573404156259  0.3323666310848027  1.0000
  N   N11       1.0  0.8561629235731161  0.7287598794013022  0.1676314995777872  1.0000
  N   N12       1.0  0.6438410337316753  0.7712392337488511  0.667632075840409  1.0000
  N   N13       1.0  0.643837211499303  0.2287609076880059  0.1676324263739559  1.0000
  N   N14       1.0  0.8561546295536219  0.2712422551281861  0.6676313267680456  1.0000
  N   N15       1.0  0.14385174443168583  0.2712449003913164  0.8323671381899943  1.0000
  N   N16       1.0  0.3561459137146486  0.22875776966702688  0.33236928150121514  1.0000
  N   N17       1.0  0.07238429611945212  0.0165640862393843  0.9831065409537133  1.0000
  N   N18       1.0  0.42761964186209417  0.48343863056185654  0.4831009164221528  1.0000
  N   N19       1.0  0.5723906764390989  0.483430400126636  0.0168963006535705  1.0000
  N   N20       1.0  0.9276054449555958  0.016560619366963198  0.5168916554691734  1.0000
  N   N21       1.0  0.92759737123734  0.983430325069136  0.016900935505717  1.0000
  N   N22       1.0  0.5724016262780725  0.5165696053962279  0.5168970414547047  1.0000
  N   N23       1.0  0.4276094712622509  0.5165648752096246  0.9831030169870871  1.0000
  N   N24       1.0  0.07239866281025802  0.9834294717204982  0.4831056224561721  1.0000
  O   O1        1.0  0.3152466406079952  0.5358061845993376  0.7149152112777131  1.0000
  O   O2        1.0  0.1847359542606029  0.9642029586019802  0.21490637929525042  1.0000
  O   O3        1.0  0.8152283392480513  0.9641897394570549  0.28508582905101326  1.0000
  O   O4        1.0  0.6847645168075687  0.5358057631664578  0.7850855987115183  1.0000
  O   O5        1.0  0.6847508670679404  0.46419081883956176  0.2850915852970957  1.0000
  O   O6        1.0  0.8152457130690038  0.03580441327616061  0.7850868192249437  1.0000
  O   O7        1.0  0.18474804797364192  0.035804671821466606  0.7149128086646641  1.0000
  O   O8        1.0  0.31523695089091325  0.4641895121439177  0.2149048801910496  1.0000
  O   O9        1.0  0.26332072114274757  0.6843639055783654  0.6334168284941697  1.0000
  O   O10       1.0  0.23669169382446859  0.8156343767481715  0.13341773082025551  1.0000
  O   O11       1.0  0.7633354986664572  0.8156310896665604  0.3665916018126723  1.0000
  O   O12       1.0  0.7366618580719689  0.6843761379782266  0.8665947332631276  1.0000
  O   O13       1.0  0.7366767865143303  0.3156253214867206  0.3665879283571131  1.0000
  O   O14       1.0  0.7633282543261898  0.18437731540124963  0.8665897457041469  1.0000
  O   O15       1.0  0.2366976497487556  0.1843719620949216  0.63341995412506  1.0000
  O   O16       1.0  0.26332904944056423  0.3156269137055432  0.13339982506297332  1.0000
