data_image0
_chemical_formula_structural       Cd3H20C12N16Cl2O2
_chemical_formula_sum              "Cd3 H20 C12 N16 Cl2 O2"
_cell_length_a       7.787532455077133
_cell_length_b       9.371879021820428
_cell_length_c       9.509535108843025
_cell_angle_alpha    87.048025045022
_cell_angle_beta     65.83932308569888
_cell_angle_gamma    82.77305036098596

_space_group_name_H-M_alt    "P 1"
_space_group_IT_number       1

loop_
  _space_group_symop_operation_xyz
  'x, y, z'

loop_
  _atom_site_type_symbol
  _atom_site_label
  _atom_site_symmetry_multiplicity
  _atom_site_fract_x
  _atom_site_fract_y
  _atom_site_fract_z
  _atom_site_occupancy
  Cd  Cd1       1.0  3.712163091567339e-07  0.5000008960793991  0.5000000743715844  1.0000
  Cd  Cd2       1.0  0.4999995267961312  0.49999977300733905  0.5000000772996316  1.0000
  Cd  Cd3       1.0  0.5000011266157429  0.9999995963533623  0.9999991036738508  1.0000
  H   H1        1.0  0.9294013051326998  0.7667661551865947  0.2528315705983886  1.0000
  H   H2        1.0  0.8175023306979838  0.23333487433081507  0.25279822213275344  1.0000
  H   H3        1.0  0.07059740669816951  0.2332355419189228  0.7471685839888308  1.0000
  H   H4        1.0  0.18249778061688463  0.7666646744959068  0.7472008844631263  1.0000
  H   H5        1.0  0.05990977620330535  0.898805027564102  0.12791715777538573  1.0000
  H   H6        1.0  0.8119562130503084  0.10122035029127831  0.12790462494461957  1.0000
  H   H7        1.0  0.9400891065082605  0.101195593995989  0.8720829968178522  1.0000
  H   H8        1.0  0.18804195370003637  0.8987781173659285  0.8720965776640527  1.0000
  H   H9        1.0  0.8822247475967586  0.9152812989138398  0.480913389387858  1.0000
  H   H10       1.0  0.6367436798895484  0.08482859552029248  0.48087921840718184  1.0000
  H   H11       1.0  0.11777797375870594  0.08471934385212171  0.5190871560461047  1.0000
  H   H12       1.0  0.3632572276502445  0.915170962756932  0.5191218954214917  1.0000
  H   H13       1.0  0.0007215791030076881  0.050925408216691906  0.3572336226417931  1.0000
  H   H14       1.0  0.6418019617579347  0.9491511584212591  0.3572919199619449  1.0000
  H   H15       1.0  0.9992792883049264  0.949075222286723  0.6427659635627592  1.0000
  H   H16       1.0  0.3581978880592446  0.05084839704392151  0.6427102418701053  1.0000
  H   H17       1.0  0.18213806495526094  0.20093555555935444  0.09051496554733521  1.0000
  H   H18       1.0  0.7271345765140468  0.7990240677294765  0.09070220721176277  1.0000
  H   H19       1.0  0.8178617447300669  0.7990650721320166  0.9094856686606008  1.0000
  H   H20       1.0  0.27286506229058466  0.2009776355073143  0.909298426990155  1.0000
  C   C1        1.0  0.19238704556075695  0.7865681266425854  0.26278494455291934  1.0000
  C   C2        1.0  0.5445707094206044  0.2134220541736838  0.2627583293460701  1.0000
  C   C3        1.0  0.8076141234767107  0.2134314249961733  0.7372131140395694  1.0000
  C   C4        1.0  0.45542927114541965  0.7865774979722674  0.737242304867891  1.0000
  C   C5        1.0  0.019099684608697542  0.8515021225229731  0.24350396053625187  1.0000
  C   C6        1.0  0.7371870489469003  0.1485402532622828  0.24349556817383436  1.0000
  C   C7        1.0  0.9809011827992367  0.14849850798044167  0.7564956256683075  1.0000
  C   C8        1.0  0.26281200464536175  0.851459292752388  0.7565045864254215  1.0000
  C   C9        1.0  0.9100302957138594  0.9662716201699627  0.36822703862348044  1.0000
  C   C10       1.0  0.721594886782043  0.0337749499964062  0.36823089277999793  1.0000
  C   C11       1.0  0.08997057169407446  0.03372901033345241  0.6317725475810717  1.0000
  C   C12       1.0  0.2784052245328256  0.9662245988303154  0.6317682138158744  1.0000
  N   N1        1.0  0.3812496654324988  0.6652444153840025  0.34967833512122587  1.0000
  N   N2        1.0  0.26888177478505787  0.3347697285553366  0.34960168596956004  1.0000
  N   N3        1.0  0.6187512019754351  0.33475621511941256  0.6503212510833335  1.0000
  N   N4        1.0  0.7311180349002699  0.6652308991360344  0.6503989482383831  1.0000
  N   N5        1.0  0.47969414154496803  0.7553173156090837  0.2473056016342312  1.0000
  N   N6        1.0  0.2727595908014989  0.24467091529885474  0.24725399311908797  1.0000
  N   N7        1.0  0.5203068967436623  0.24468223934891145  0.7526939845763464  1.0000
  N   N8        1.0  0.7272402188838285  0.7553297123925092  0.7527466410888549  1.0000
  N   N9        1.0  0.36403372858044486  0.8329668023524947  0.19151900355652882  1.0000
  N   N10       1.0  0.4441806105187284  0.167009104520055  0.19149688043021482  1.0000
  N   N11       1.0  0.6359673097081855  0.1670327526055004  0.8084805826540489  1.0000
  N   N12       1.0  0.5558193700472955  0.832990447625896  0.8085037537837535  1.0000
  N   N13       1.0  0.20104760602201566  0.68161719710794  0.36246668845276275  1.0000
  N   N14       1.0  0.43628625864344167  0.3184000183312037  0.3624053863880902  1.0000
  N   N15       1.0  0.7989525052928458  0.3183823517187747  0.6375324181431167  1.0000
  N   N16       1.0  0.563713721922582  0.6815995338147474  0.637595247825871  1.0000
  Cl  Cl1       1.0  0.8514397485723466  0.5000445490819699  0.2969199660449958  1.0000
  Cl  Cl2       1.0  0.14856023199367763  0.49995500306398105  0.7030806681689653  1.0000
  O   O1        1.0  0.21107817084386238  0.1401089645168909  0.9998733103663751  1.0000
  O   O2        1.0  0.7889216388414652  0.8598916631744729  0.0001273238415677091  1.0000
