data_image0
_chemical_formula_structural       Cd2H36C54N8O14
_chemical_formula_sum              "Cd2 H36 C54 N8 O14"
_cell_length_a       7.870940937072275
_cell_length_b       11.87594368313399
_cell_length_c       13.953151602901816
_cell_angle_alpha    109.45399391023844
_cell_angle_beta     99.16569598450431
_cell_angle_gamma    94.46064709767488

_space_group_name_H-M_alt    "P 1"
_space_group_IT_number       1

loop_
  _space_group_symop_operation_xyz
  'x, y, z'

loop_
  _atom_site_type_symbol
  _atom_site_label
  _atom_site_symmetry_multiplicity
  _atom_site_fract_x
  _atom_site_fract_y
  _atom_site_fract_z
  _atom_site_occupancy
  Cd  Cd1       1.0  0.24286081236820684  0.5364189944180353  0.022320257340673836  1.0000
  Cd  Cd2       1.0  0.7571375548936745  0.46357950116426133  0.9776786778132374  1.0000
  H   H1        1.0  0.0928053721841167  0.2162352237577139  0.6726325248694492  1.0000
  H   H2        1.0  0.9071948372366235  0.7837659687433388  0.32736878184231694  1.0000
  H   H3        1.0  0.49382469736686824  0.9031521719801887  0.06221116902875674  1.0000
  H   H4        1.0  0.5061764269673362  0.0968472165813594  0.9377889881475239  1.0000
  H   H5        1.0  0.6936284633406586  0.07925371282067321  0.06191186692377216  1.0000
  H   H6        1.0  0.3063730348941434  0.9207474796688903  0.9380888399606775  1.0000
  H   H7        1.0  0.0161796358533408  0.0858477534127502  0.11427697303270887  1.0000
  H   H8        1.0  0.983822767286803  0.9141516231882677  0.885725446746818  1.0000
  H   H9        1.0  0.9920552601915275  0.021650611713774  0.3251549050216979  1.0000
  H   H10       1.0  0.007940711388471224  0.9783487798809957  0.6748469358562017  1.0000
  H   H11       1.0  0.4546837628836754  0.1701269428191665  0.560302739757496  1.0000
  H   H12       1.0  0.5453112987869133  0.8298742586896282  0.4396988194406077  1.0000
  H   H13       1.0  0.6370431579544729  0.09146349171936664  0.4284336603026161  1.0000
  H   H14       1.0  0.3629559445984398  0.9085385967826625  0.571569952305829  1.0000
  H   H15       1.0  0.49527258779365013  0.9740591951899377  0.24428638292659602  1.0000
  H   H16       1.0  0.504726138356638  0.025941086396819895  0.7557173955813139  1.0000
  H   H17       1.0  0.17780627542160224  0.5977327785663249  0.26079362467181966  1.0000
  H   H18       1.0  0.8221926526911715  0.4022684229080014  0.7392061350443482  1.0000
  H   H19       1.0  0.42125928881185354  0.30161243624021233  0.29600749877763366  1.0000
  H   H20       1.0  0.5787422144270096  0.6983887622238709  0.7039917768915414  1.0000
  H   H21       1.0  0.41169311163570643  0.303510654598071  0.09779721394468045  1.0000
  H   H22       1.0  0.588303059404744  0.6964896538970039  0.9022013237491106  1.0000
  H   H23       1.0  0.28652682897853043  0.4531511129657133  0.7699803887973287  1.0000
  H   H24       1.0  0.7134755866717695  0.5468482785716018  0.23001845294400158  1.0000
  H   H25       1.0  0.053658628711943386  0.7522325045845122  0.7351360081776475  1.0000
  H   H26       1.0  0.9463401124505353  0.24776779492580658  0.2648634766844323  1.0000
  H   H27       1.0  0.05847406500308237  0.7471971846140875  0.9341083745355118  1.0000
  H   H28       1.0  0.9415230134447371  0.2528013109797058  0.06589116044571598  1.0000
  H   H29       1.0  0.25182199908610403  0.37756904436028543  0.6046413749060304  1.0000
  H   H30       1.0  0.748185023301474  0.6224339460368142  0.3953589135926092  1.0000
  H   H31       1.0  0.30541214082142426  0.3215831019973693  0.428565889614731  1.0000
  H   H32       1.0  0.6945946946158587  0.6784189864357303  0.5714341240298282  1.0000
  H   H33       1.0  0.2240467073688848  0.6785108382773047  0.42828164073443986  1.0000
  H   H34       1.0  0.7759505630332981  0.3214885652550166  0.5717167378855876  1.0000
  H   H35       1.0  0.17172518504248296  0.733730568091019  0.6026985755622005  1.0000
  H   H36       1.0  0.8282750343863796  0.2662706363590742  0.3972998687190098  1.0000
  C   C1        1.0  0.9683116032864447  0.713235335452481  0.15221312852322902  1.0000
  C   C2        1.0  0.03168566461370398  0.2867640650925764  0.847785965704446  1.0000
  C   C3        1.0  0.8809386543651526  0.814304903408086  0.1312383417583901  1.0000
  C   C4        1.0  0.11905990485109189  0.1856945001127457  0.8687594370343275  1.0000
  C   C5        1.0  0.7001720781724925  0.8116700127009794  0.10412530445307763  1.0000
  C   C6        1.0  0.2998262915914225  0.1883284858685812  0.8958729150931998  1.0000
  C   C7        1.0  0.5720756355938407  0.706645929714206  0.09640810527415773  1.0000
  C   C8        1.0  0.4279253067941299  0.293352562857855  0.9035903458327679  1.0000
  C   C9        1.0  0.6345042048493923  0.908171119264708  0.08111045484566409  1.0000
  C   C10       1.0  0.3654967325345239  0.09182736733283288  0.9188894274765357  1.0000
  C   C11       1.0  0.7452728467447757  0.005870653938387699  0.08201555308274776  1.0000
  C   C12       1.0  0.25472974584769753  0.9941296276139013  0.9179864259432261  1.0000
  C   C13       1.0  0.9243316140024475  0.010599864034837498  0.11121020361419197  1.0000
  C   C14       1.0  0.07566840346392915  0.9894004205276872  0.8887922594587676  1.0000
  C   C15       1.0  0.989426588532801  0.9170823431633298  0.13789396777636417  1.0000
  C   C16       1.0  0.010571776227052998  0.08291614943171062  0.8621056829851877  1.0000
  C   C17       1.0  0.23643108017992626  0.9926733996321742  0.2728647438325566  1.0000
  C   C18       1.0  0.7635659832557095  0.0073250780380576  0.7271390847945083  1.0000
  C   C19       1.0  0.13338142534202294  0.0376747361216943  0.34567074116505114  1.0000
  C   C20       1.0  0.8666143567856396  0.9623237505218044  0.6543315404664084  1.0000
  C   C21       1.0  0.2129825182495324  0.10142298751348729  0.4494089537740534  1.0000
  C   C22       1.0  0.7870149290948236  0.8985773060338005  0.5505925621306174  1.0000
  C   C23       1.0  0.09633184661959861  0.14410337916899615  0.5246779269091276  1.0000
  C   C24       1.0  0.9036656032267841  0.8558969173655484  0.47532287338790263  1.0000
  C   C25       1.0  0.3943270488350378  0.1221334720066878  0.4793498007158802  1.0000
  C   C26       1.0  0.6056702090569885  0.877865916589329  0.5206521559423506  1.0000
  C   C27       1.0  0.4958717952432252  0.0776776047414955  0.40512678535046825  1.0000
  C   C28       1.0  0.5041271203593922  0.922323581796526  0.5948765524038888  1.0000
  C   C29       1.0  0.4180231295457233  0.012389286062074201  0.30221081901079566  1.0000
  C   C30       1.0  0.5819755991065989  0.9876109985119468  0.6977922438894806  1.0000
  C   C31       1.0  0.2479942639181729  0.5199635248420903  0.24430692398397005  1.0000
  C   C32       1.0  0.7520059530086626  0.48003767662074637  0.755692235904881  1.0000
  C   C33       1.0  0.2691506534453437  0.4956409741413735  0.41527219695861806  1.0000
  C   C34       1.0  0.7308469958614977  0.5043602392934831  0.5847253001542965  1.0000
  C   C35       1.0  0.3697297924555231  0.362347051503484  0.2593663965823296  1.0000
  C   C36       1.0  0.6302704219692784  0.6376541469720962  0.7406334789141552  1.0000
  C   C37       1.0  0.3651277487427862  0.36500839991893497  0.16154594023263508  1.0000
  C   C38       1.0  0.6348693322070672  0.6349900986621152  0.8384528791409521  1.0000
  C   C39       1.0  0.22204370645710722  0.5327133109329126  0.7869351642965441  1.0000
  C   C40       1.0  0.7779574203791312  0.4672860806158923  0.21306427727210311  1.0000
  C   C41       1.0  0.10304533297392739  0.6911435529990656  0.7719559414304554  1.0000
  C   C42       1.0  0.8969559833146405  0.3088567435010106  0.22804305938463898  1.0000
  C   C43       1.0  0.1058436683611745  0.6877225542430311  0.8694974044742166  1.0000
  C   C44       1.0  0.894154888353036  0.312276846290537  0.1305010899261347  1.0000
  C   C45       1.0  0.20817036864711722  0.5596093884561171  0.6170020710325943  1.0000
  C   C46       1.0  0.7918326078540756  0.44039270897322785  0.3829975952709928  1.0000
  C   C47       1.0  0.2475947895024717  0.4443216172032791  0.5668712627067406  1.0000
  C   C48       1.0  0.752405427424364  0.5556795842595506  0.4331278971821034  1.0000
  C   C49       1.0  0.2778503605475109  0.41248691718661945  0.4664445592872254  1.0000
  C   C50       1.0  0.7221551885777372  0.587515174245226  0.5335553385770098  1.0000
  C   C51       1.0  0.23156745833240677  0.6113235591498665  0.46562408266763083  1.0000
  C   C52       1.0  0.7684298170738373  0.3886758503569754  0.5343728647371151  1.0000
  C   C53       1.0  0.20104387867398538  0.6430338948475977  0.5661005774913048  1.0000
  C   C54       1.0  0.7989561538045818  0.3569664076384882  0.43389759193581756  1.0000
  N   N1        1.0  0.1800032510645407  0.5887709823072952  0.877361260579711  1.0000
  N   N2        1.0  0.8199976863193683  0.41122750429024524  0.12263862174248887  1.0000
  N   N3        1.0  0.17700974700398575  0.5916494057968648  0.7195260969688488  1.0000
  N   N4        1.0  0.8229915667825481  0.40835088771595457  0.28047361945387905  1.0000
  N   N5        1.0  0.2886761912167799  0.46316010205374875  0.1533107654824164  1.0000
  N   N6        1.0  0.7113225524477256  0.5368402004438267  0.8466880037720229  1.0000
  N   N7        1.0  0.29613317947723766  0.4618332717153706  0.311791490782646  1.0000
  N   N8        1.0  0.7038696075716261  0.5381679207627029  0.6882086162744938  1.0000
  O   O1        1.0  0.0025597154045441297  0.6337796257489215  0.07266721183142268  1.0000
  O   O2        1.0  0.9974425057893653  0.3662188548626092  0.9273335018787416  1.0000
  O   O3        1.0  0.009611632497019672  0.7171698719277728  0.2445936845184845  1.0000
  O   O4        1.0  0.9903828783308058  0.28282863563804034  0.7554041876868138  1.0000
  O   O5        1.0  0.6264540447792656  0.6075854855977739  0.09375013422894803  1.0000
  O   O6        1.0  0.37354799196637595  0.39241209603700605  0.906249589019495  1.0000
  O   O7        1.0  0.41347506394539824  0.722472516022677  0.09052837011476106  1.0000
  O   O8        1.0  0.586525878442579  0.2775259765493843  0.9094700809921645  1.0000
  O   O9        1.0  0.16821490257881064  0.925261034529349  0.16975906299104074  1.0000
  O   O10       1.0  0.8317851173896075  0.0747392530204394  0.8302426844742851  1.0000
  O   O11       1.0  0.1787024427010024  0.1861201477037824  0.6239062258594286  1.0000
  O   O12       1.0  0.8212951890916145  0.8138810448202561  0.37609628050696386  1.0000
  O   O13       1.0  0.9385747658405421  0.14152957023005538  0.4970965121977071  1.0000
  O   O14       1.0  0.06142139018771784  0.8584707203414651  0.502906319141921  1.0000
