data_image0
_chemical_formula_structural       Cu4H56C52N8Cl4
_chemical_formula_sum              "Cu4 H56 C52 N8 Cl4"
_cell_length_a       6.969102544000883
_cell_length_b       12.43047727200135
_cell_length_c       13.9240006060009
_cell_angle_alpha    90.00002317449436
_cell_angle_beta     89.99996553498508
_cell_angle_gamma    90.00004704134872

_space_group_name_H-M_alt    "P 1"
_space_group_IT_number       1

loop_
  _space_group_symop_operation_xyz
  'x, y, z'

loop_
  _atom_site_type_symbol
  _atom_site_label
  _atom_site_symmetry_multiplicity
  _atom_site_fract_x
  _atom_site_fract_y
  _atom_site_fract_z
  _atom_site_occupancy
  Cu  Cu1       1.0  0.1040891220096967  0.16596485925909837  0.7499999813414888  1.0000
  Cu  Cu2       1.0  0.3959089939603048  0.6659650345583188  0.75000002678523  1.0000
  Cu  Cu3       1.0  0.6040907971186442  0.3340364414911504  0.24999995712773432  1.0000
  Cu  Cu4       1.0  0.8959106690670212  0.8340342033675157  0.2500007207554447  1.0000
  H   H1        1.0  0.15375282690943243  0.382263868511913  0.6720949600427844  1.0000
  H   H2        1.0  0.34624714070837836  0.8822648259682139  0.6720957388081459  1.0000
  H   H3        1.0  0.15375416934580244  0.3822647084214879  0.827904347113936  1.0000
  H   H4        1.0  0.6537541777437426  0.11773581017249062  0.1720955762176217  1.0000
  H   H5        1.0  0.8462455292606633  0.6177335851658655  0.3279064602384807  1.0000
  H   H6        1.0  0.6537497805601689  0.11773665008077223  0.3279049632896545  1.0000
  H   H7        1.0  0.8462456217323647  0.6177351586791389  0.1720949186143415  1.0000
  H   H8        1.0  0.34624561333357223  0.8822640569284629  0.8279051258794539  1.0000
  H   H9        1.0  0.14955875819217823  0.4672927466044855  0.5123169019156322  1.0000
  H   H10       1.0  0.3504415265484724  0.9672929014712468  0.5123176794024715  1.0000
  H   H11       1.0  0.1495584760732882  0.46729205024004034  0.987682437101455  1.0000
  H   H12       1.0  0.6495585466481658  0.03270766199398879  0.0123167693243857  1.0000
  H   H13       1.0  0.8504395979797222  0.5327071204963119  0.4876845183660592  1.0000
  H   H14       1.0  0.6495582645286718  0.03270616115520399  0.48768230451005934  1.0000
  H   H15       1.0  0.8504398800976604  0.5327054034374044  0.0123175468110048  1.0000
  H   H16       1.0  0.3504412444312096  0.9672938140553172  0.9876824964041759  1.0000
  H   H17       1.0  0.08154553360441238  0.1512742659308728  0.3879502995298195  1.0000
  H   H18       1.0  0.41845585988994577  0.6512768647843076  0.38794961991787597  1.0000
  H   H19       1.0  0.08154426244055199  0.15127500765826343  0.11204970826296548  1.0000
  H   H20       1.0  0.5815437674493326  0.3487246740114571  0.8879495188935137  1.0000
  H   H21       1.0  0.9184556923778973  0.8487256011704009  0.6120504025670358  1.0000
  H   H22       1.0  0.581545366094595  0.3487254157398212  0.6120503639950172  1.0000
  H   H23       1.0  0.9184540937318532  0.8487232504931937  0.8879488392808383  1.0000
  H   H24       1.0  0.4184545887252327  0.6512776065120249  0.1120504650198129  1.0000
  H   H25       1.0  0.08513120741570651  0.07821194510458442  0.5547399941842741  1.0000
  H   H26       1.0  0.41486987857103225  0.5782121289236031  0.5547393156648397  1.0000
  H   H27       1.0  0.08513241055687361  0.0782128383931493  0.9452599427151968  1.0000
  H   H28       1.0  0.5851315791771512  0.42178845383777747  0.054740001532366  1.0000
  H   H29       1.0  0.9148700185670221  0.9217879219965255  0.4452599897281857  1.0000
  H   H30       1.0  0.5851299125077389  0.4217885426513562  0.4452599500635799  1.0000
  H   H31       1.0  0.9148688154267148  0.9217870287076337  0.054738604828464994  1.0000
  H   H32       1.0  0.41486964680635924  0.5782130222121823  0.9452607005647805  1.0000
  H   H33       1.0  0.2206454644004054  0.4316633583233839  0.33552574040123057  1.0000
  H   H34       1.0  0.2793564116761544  0.931666699142646  0.3355251031866473  1.0000
  H   H35       1.0  0.22064556591600856  0.43166412389639675  0.16447432584067911  1.0000
  H   H36       1.0  0.7206447127932095  0.06833481580830639  0.835525577102402  1.0000
  H   H37       1.0  0.7793571964855063  0.5683340953550272  0.6644742435105756  1.0000
  H   H38       1.0  0.7206462492127699  0.06833477690747  0.6644748807258836  1.0000
  H   H39       1.0  0.7793542251605318  0.5683341342557071  0.8355256580717096  1.0000
  H   H40       1.0  0.27935651319072724  0.9316666602414827  0.1644744068103492  1.0000
  H   H41       1.0  0.9693659633787773  0.4200493307890979  0.336771674139996  1.0000
  H   H42       1.0  0.5306355287673413  0.9200525598384247  0.3367711127348231  1.0000
  H   H43       1.0  0.9693660663727856  0.42004929132099983  0.1632281597164891  1.0000
  H   H44       1.0  0.4693641593184594  0.07994895567880891  0.8367709492328502  1.0000
  H   H45       1.0  0.030635262602743303  0.5799489273633327  0.6632283097721725  1.0000
  H   H46       1.0  0.4693656972165953  0.0799489162113645  0.6632288711779212  1.0000
  H   H47       1.0  0.030633724704181  0.5799489668309405  0.8367711060115042  1.0000
  H   H48       1.0  0.5306356317609158  0.920052520370497  0.1632283164957187  1.0000
  H   H49       1.0  0.2432609185873105  0.25279088786508896  0.2499992793226937  1.0000
  H   H50       1.0  0.2567407908407234  0.7527942185217216  0.2500000853700612  1.0000
  H   H51       1.0  0.7432590002388295  0.24720806200208761  0.7499998985430524  1.0000
  H   H52       1.0  0.7567403073940399  0.7472065658128386  0.7499999864049371  1.0000
  H   H53       1.0  0.9901461766563174  0.24361924373163654  0.24999988203335727  1.0000
  H   H54       1.0  0.5098551539818672  0.7436224634427335  0.2499993269619694  1.0000
  H   H55       1.0  0.49014463709853834  0.2563798170807488  0.749999220582346  1.0000
  H   H56       1.0  0.009853614420222801  0.7563790144204745  0.7500001018790315  1.0000
  C   C1        1.0  0.1328778305123279  0.3333864017799897  0.6080623516480159  1.0000
  C   C2        1.0  0.3671221398320625  0.8333865641427491  0.6080631240505951  1.0000
  C   C3        1.0  0.1328790969448335  0.333386466340265  0.8919362261072193  1.0000
  C   C4        1.0  0.6328778197183452  0.1666140428725953  0.1080637035872059  1.0000
  C   C5        1.0  0.8671205256612781  0.6666134653201469  0.3919361958960792  1.0000
  C   C6        1.0  0.6328747814348574  0.16661330295772095  0.3919382962313165  1.0000
  C   C7        1.0  0.8671221290381438  0.6666125962861786  0.10806232143630011  1.0000
  C   C8        1.0  0.36711766664401324  0.8333858242273848  0.8919369985105305  1.0000
  C   C9        1.0  0.1318892696533851  0.3804473255132663  0.5180824733419342  1.0000
  C   C10       1.0  0.36810800823615597  0.8804474883196606  0.5180832454436128  1.0000
  C   C11       1.0  0.13189329909293693  0.3804466265273163  0.9819168398247057  1.0000
  C   C12       1.0  0.6318920581165771  0.1195530777682094  0.0180830901700375  1.0000
  C   C13       1.0  0.8681062167093928  0.6195525415865506  0.4819175105713995  1.0000
  C   C14       1.0  0.6318903479365972  0.1195523787808099  0.4819167384692804  1.0000
  C   C15       1.0  0.8681093617929748  0.6195508271510946  0.0180831440871003  1.0000
  C   C16       1.0  0.36810486315179963  0.8804475938062737  0.9819168937432181  1.0000
  C   C17       1.0  0.11124098900011602  0.3175679786319137  0.4350912306428896  1.0000
  C   C18       1.0  0.38876059784476524  0.8175697596666964  0.4350912782662562  1.0000
  C   C19       1.0  0.11124120869511242  0.3175678944431084  0.0649081097243496  1.0000
  C   C20       1.0  0.6112389735406509  0.1824326050455909  0.9350903901965921  1.0000
  C   C21       1.0  0.888758802078229  0.6824326929432163  0.5649087532699326  1.0000
  C   C22       1.0  0.6112420630422832  0.18243091190956304  0.5649108601993191  1.0000
  C   C23       1.0  0.888758582381854  0.6824303637088391  0.9350911560036367  1.0000
  C   C24       1.0  0.3887593826347667  0.8175696754775643  0.0649081573479364  1.0000
  C   C25       1.0  0.09773700660338139  0.20616195864764827  0.4486526886633229  1.0000
  C   C26       1.0  0.4022643971264658  0.7061637457506365  0.4486520139863401  1.0000
  C   C27       1.0  0.09773724239496322  0.20616267276507477  0.051348052119791994  1.0000
  C   C28       1.0  0.5977337232553098  0.2938362117067399  0.9486526064702262  1.0000
  C   C29       1.0  0.9022656542822813  0.793836299505429  0.5513487316174235  1.0000
  C   C30       1.0  0.5977353939517017  0.2938361213499832  0.5513472517419373  1.0000
  C   C31       1.0  0.9022639835865649  0.7938355853873561  0.9486519317923765  1.0000
  C   C32       1.0  0.4022646329176212  0.7061644598682263  0.0513480956272119  1.0000
  C   C33       1.0  0.09969126083278472  0.1643848232279765  0.5414076322882622  1.0000
  C   C34       1.0  0.40031140507323215  0.6643850005043674  0.5414069582064513  1.0000
  C   C35       1.0  0.0996910132440618  0.1643857225804481  0.9585923311670896  1.0000
  C   C36       1.0  0.5996871986909156  0.33561638066632327  0.0414068904592497  1.0000
  C   C37       1.0  0.9003128349600968  0.835615848348283  0.45859306980830894  1.0000
  C   C38       1.0  0.599685516194718  0.3356156710702792  0.4585937438912069  1.0000
  C   C39       1.0  0.9003116476446851  0.8356149489951649  0.041406934560896495  1.0000
  C   C40       1.0  0.40031115748305274  0.6643850953828263  0.9585930934539348  1.0000
  C   C41       1.0  0.1031482227967686  0.37220624321004464  0.3390965604446592  1.0000
  C   C42       1.0  0.39685499480797404  0.8722088323562571  0.33909660560127003  1.0000
  C   C43       1.0  0.1031483285501551  0.37220620268453786  0.1609035202252258  1.0000
  C   C44       1.0  0.6031461254225762  0.1277926842190453  0.8390964185309073  1.0000
  C   C45       1.0  0.8968544380901732  0.6277920149425428  0.6609027052828935  1.0000
  C   C46       1.0  0.6031476660794937  0.12779183921984583  0.6609048146799097  1.0000
  C   C47       1.0  0.896851462525781  0.6277912509932335  0.8390964636870137  1.0000
  C   C48       1.0  0.39685366565680624  0.8722087918302605  0.1609028471976615  1.0000
  C   C49       1.0  0.11035431522100941  0.3011003465973516  0.2500000264495412  1.0000
  C   C50       1.0  0.38964746663145183  0.8011029325048044  0.2499993556183711  1.0000
  C   C51       1.0  0.6103537593530888  0.1988993480193244  0.7500006282945222  1.0000
  C   C52       1.0  0.8896454758559571  0.698897911554596  0.7499992392784519  1.0000
  N   N1        1.0  0.11572632288805812  0.22585472926493108  0.6210392088206832  1.0000
  N   N2        1.0  0.38427490574898127  0.7258548993351754  0.6210385396265393  1.0000
  N   N3        1.0  0.11572616981705862  0.22585398344834573  0.8789607718555885  1.0000
  N   N4        1.0  0.6157250383991554  0.2741449091078608  0.121039881251086  1.0000
  N   N5        1.0  0.8842749030942444  0.7741451378363422  0.3789614932761722  1.0000
  N   N6        1.0  0.6157234504248025  0.2741457722394642  0.37896072610210035  1.0000
  N   N7        1.0  0.8842736212599007  0.7741442747036018  0.1210384938723976  1.0000
  N   N8        1.0  0.384271882868184  0.7258549579924461  0.878960820846423  1.0000
  Cl  Cl1       1.0  0.04874545085242941  0.985364599313222  0.7500001371312166  1.0000
  Cl  Cl2       1.0  0.45125314395664157  0.4853629710735347  0.7499999858725701  1.0000
  Cl  Cl3       1.0  0.5487466471217033  0.5146377005015951  0.249999998040245  1.0000
  Cl  Cl4       1.0  0.9512543402247077  0.014634463313221602  0.2499998467813214  1.0000
