data_image0
_chemical_formula_structural       Cs4U2H12C16O26
_chemical_formula_sum              "Cs4 U2 H12 C16 O26"
_cell_length_a       7.0823546501394565
_cell_length_b       11.389933083326865
_cell_length_c       11.389993025060875
_cell_angle_alpha    108.71899919577896
_cell_angle_beta     90.00059274568673
_cell_angle_gamma    90.00019068610695

_space_group_name_H-M_alt    "P 1"
_space_group_IT_number       1

loop_
  _space_group_symop_operation_xyz
  'x, y, z'

loop_
  _atom_site_type_symbol
  _atom_site_label
  _atom_site_symmetry_multiplicity
  _atom_site_fract_x
  _atom_site_fract_y
  _atom_site_fract_z
  _atom_site_occupancy
  Cs  Cs1       1.0  0.029729044583653805  0.7867769228228527  0.2867800757421081  1.0000
  Cs  Cs2       1.0  0.970272167894038  0.28677845025124776  0.7867779322510134  1.0000
  Cs  Cs3       1.0  0.9999997876707811  0.4965066861067057  0.49650770339059863  1.0000
  Cs  Cs4       1.0  0.9999989570128919  0.9965068021747355  0.9965074326680328  1.0000
  U   U1        1.0  0.5080129765072386  0.9986768934737142  0.4986770994997516  1.0000
  U   U2        1.0  0.4919844036726887  0.49867248929050584  0.9986725907085802  1.0000
  H   H1        1.0  0.09108628909223881  0.0117500911647355  0.59904912183778  1.0000
  H   H2        1.0  0.9089098572814508  0.5990419301426472  0.011744655954004223  1.0000
  H   H3        1.0  0.0910857969264214  0.09904677295112659  0.5117475786869152  1.0000
  H   H4        1.0  0.9089103494178803  0.5117424721631495  0.09904354540368132  1.0000
  H   H5        1.0  0.34842332701119727  0.2934840359910353  0.5457441240157835  1.0000
  H   H6        1.0  0.6515781440618441  0.5457426280402444  0.2934835753818065  1.0000
  H   H7        1.0  0.348421899727903  0.04574495534724579  0.7934873423473194  1.0000
  H   H8        1.0  0.6515781594193584  0.7934826260669398  0.04574416557632338  1.0000
  H   H9        1.0  0.401860269165411  0.3755658931575069  0.6791049349557172  1.0000
  H   H10       1.0  0.5981379126173962  0.6791025428923589  0.3755648374494031  1.0000
  H   H11       1.0  0.40186278865705577  0.17910512505603288  0.8755663971851607  1.0000
  H   H12       1.0  0.5981382170502842  0.8755642380003793  0.1791036750053082  1.0000
  C   C1        1.0  0.29180290001989573  0.8022541018444969  0.6221735612287846  1.0000
  C   C2        1.0  0.7081950937603099  0.6221679250644528  0.8022502099194003  1.0000
  C   C3        1.0  0.2918097371208219  0.12217287405156442  0.3022522424176516  1.0000
  C   C4        1.0  0.7081984885154855  0.302248955844398  0.12216535387883456  1.0000
  C   C5        1.0  0.26475472623630486  0.7564151587232002  0.7260827263134859  1.0000
  C   C6        1.0  0.7352410793113011  0.7260713401057756  0.7564087506459958  1.0000
  C   C7        1.0  0.2647691908522916  0.22607709798339218  0.2564082366164159  1.0000
  C   C8        1.0  0.7352453182104312  0.2564055222902438  0.22606621734523466  1.0000
  C   C9        1.0  0.22635559918354892  0.7092364003290823  0.8052775394258448  1.0000
  C   C10       1.0  0.7736391449138581  0.8052752048554055  0.7092288051476178  1.0000
  C   C11       1.0  0.2263651154844767  0.30527522278044467  0.20922618755408717  1.0000
  C   C12       1.0  0.7736440963111519  0.20922783999735367  0.3052721614066131  1.0000
  C   C13       1.0  0.16577464558556446  0.6520376029059277  0.8951319588198177  1.0000
  C   C14       1.0  0.8342232799458388  0.8951254787096802  0.6520334267362815  1.0000
  C   C15       1.0  0.16577486117329707  0.39512799206364946  0.15203298175855207  1.0000
  C   C16       1.0  0.8342248244505086  0.1520339655193439  0.3951259291380681  1.0000
  O   O1        1.0  0.5672717275957738  0.1314626875203473  0.6314613839794989  1.0000
  O   O2        1.0  0.43275008750107713  0.6314574824885996  0.13145878855874576  1.0000
  O   O3        1.0  0.46596474608563204  0.8635063681551072  0.36350760942035276  1.0000
  O   O4        1.0  0.5340127310072234  0.36349845558633115  0.8635004809537893  1.0000
  O   O5        1.0  0.38795922509038416  0.90369601668592  0.6441125385853186  1.0000
  O   O6        1.0  0.6120429433098807  0.644108298250373  0.9036904132637108  1.0000
  O   O7        1.0  0.38796227451261706  0.1441136880054756  0.40369496362692575  1.0000
  O   O8        1.0  0.6120444779310291  0.40368856388744234  0.14410559974660234  1.0000
  O   O9        1.0  0.21800723638541805  0.7410058058807039  0.5215473308725297  1.0000
  O   O10       1.0  0.7819889853290364  0.5215392358507102  0.7410091961642922  1.0000
  O   O11       1.0  0.21801005962468176  0.021545706473581595  0.2410077334787389  1.0000
  O   O12       1.0  0.781992158055509  0.24100935686624333  0.021538021500667512  1.0000
  O   O13       1.0  0.24415219992695825  0.5479059687970036  0.8882281048727523  1.0000
  O   O14       1.0  0.7558473339776842  0.888226491020653  0.5479018560208717  1.0000
  O   O15       1.0  0.24414621956462676  0.38822844536906587  0.04789997920686062  1.0000
  O   O16       1.0  0.7558437787781999  0.04790195377596971  0.38822671596582853  1.0000
  O   O17       1.0  0.03810600663469901  0.7045269753978333  0.9706343769467912  1.0000
  O   O18       1.0  0.9618919081642261  0.970630935366337  0.7045264803911098  1.0000
  O   O19       1.0  0.038107504477004304  0.4706300712933213  0.20452587673727865  1.0000
  O   O20       1.0  0.9618935823810802  0.20452392723110074  0.47063023819247735  1.0000
  O   O21       1.0  0.16582650724666337  0.03572239610880249  0.5357222501240957  1.0000
  O   O22       1.0  0.834170620226992  0.5357125791617817  0.035714603488500536  1.0000
  O   O23       1.0  0.30617543015617343  0.36521262780684083  0.6149161255526752  1.0000
  O   O24       1.0  0.6938261714510577  0.6149138344931089  0.36521076677008324  1.0000
  O   O25       1.0  0.30617684119520305  0.11491596362399996  0.8652150754713549  1.0000
  O   O26       1.0  0.6938247604387726  0.8652114184655841  0.11491474819369074  1.0000
