data_image0
_chemical_formula_structural       Mn4H68C76S4N12O28
_chemical_formula_sum              "Mn4 H68 C76 S4 N12 O28"
_cell_length_a       8.51462245805835
_cell_length_b       11.596828052438434
_cell_length_c       27.27517519580827
_cell_angle_alpha    101.02787909783274
_cell_angle_beta     89.9998105209112
_cell_angle_gamma    90.00041027759875

_space_group_name_H-M_alt    "P 1"
_space_group_IT_number       1

loop_
  _space_group_symop_operation_xyz
  'x, y, z'

loop_
  _atom_site_type_symbol
  _atom_site_label
  _atom_site_symmetry_multiplicity
  _atom_site_fract_x
  _atom_site_fract_y
  _atom_site_fract_z
  _atom_site_occupancy
  Mn  Mn1       1.0  0.3662881293595746  0.7449031528450263  0.8028190711130634  1.0000
  Mn  Mn2       1.0  0.8662956370844269  0.7550978801358996  0.6971789792928007  1.0000
  Mn  Mn3       1.0  0.6337135721763688  0.25509619316871823  0.19718174574779113  1.0000
  Mn  Mn4       1.0  0.13370958783334436  0.244905013447358  0.30281920004525636  1.0000
  H   H1        1.0  0.11059131292654462  0.7563574584447537  0.8549430294886307  1.0000
  H   H2        1.0  0.6105969076075795  0.743645773619882  0.6450598722387398  1.0000
  H   H3        1.0  0.8894103886269706  0.24364366553574968  0.1450561023222718  1.0000
  H   H4        1.0  0.3894094917235407  0.25636139114913453  0.3549492954723377  1.0000
  H   H5        1.0  0.0337180094297551  0.7675418950941477  0.801843889915105  1.0000
  H   H6        1.0  0.5337252851048219  0.732462772382675  0.6981540791825721  1.0000
  H   H7        1.0  0.9662872154743667  0.23246009903981968  0.19815604767071449  1.0000
  H   H8        1.0  0.466297556593247  0.26754453057697  0.3018430009824656  1.0000
  H   H9        1.0  0.9620281977411694  0.8929923360172226  0.9013709453273152  1.0000
  H   H10       1.0  0.46202735831310804  0.6070056564292373  0.5986267512356208  1.0000
  H   H11       1.0  0.0379770271237945  0.10700174308674093  0.09862906605642509  1.0000
  H   H12       1.0  0.5379743432403786  0.39299459740651355  0.40137157479924207  1.0000
  H   H13       1.0  0.7618015110976942  0.7591793090393465  0.8803966261835611  1.0000
  H   H14       1.0  0.26180411112614627  0.740820341152187  0.6196003187908091  1.0000
  H   H15       1.0  0.23820606266954772  0.2408130339672923  0.11960140735823191  1.0000
  H   H16       1.0  0.7382022882497098  0.2591860497584194  0.380399618494586  1.0000
  H   H17       1.0  0.6302930301708829  0.8722258322711554  0.8754962869318561  1.0000
  H   H18       1.0  0.13029212213272962  0.6277757611242407  0.624504624392415  1.0000
  H   H19       1.0  0.3697110202399899  0.127768238457179  0.12450445703048979  1.0000
  H   H20       1.0  0.8697072305458847  0.37223150828641133  0.37549538609303573  1.0000
  H   H21       1.0  0.8877481645405325  0.12050157721917293  0.9955466563535751  1.0000
  H   H22       1.0  0.3877451129799709  0.3794945743027256  0.504454132338374  1.0000
  H   H23       1.0  0.11225236253145711  0.8794933887633718  0.004452695651245604  1.0000
  H   H24       1.0  0.6122542396516055  0.6205021528982259  0.4955449997733298  1.0000
  H   H25       1.0  0.4145698523775252  0.18897874704505574  0.04707501186396001  1.0000
  H   H26       1.0  0.9145622998619347  0.3110273377044805  0.4529282453514725  1.0000
  H   H27       1.0  0.5854341980724557  0.8110214984237843  0.9529240467483859  1.0000
  H   H28       1.0  0.08543822721013333  0.6889702387123151  0.5470735239814744  1.0000
  H   H29       1.0  0.3165687143612388  0.1441025330896224  0.9588792764088013  1.0000
  H   H30       1.0  0.8165624084391396  0.3559020347808541  0.5411237548105774  1.0000
  H   H31       1.0  0.6834318127224819  0.8558941983005965  0.0411194894134113  1.0000
  H   H32       1.0  0.1834357697462252  0.6440973112241651  0.4588770620513998  1.0000
  H   H33       1.0  0.5085315311694744  0.09086363086863261  0.8889203634614092  1.0000
  H   H34       1.0  0.008528823244212398  0.4091350249751217  0.6110821319168593  1.0000
  H   H35       1.0  0.4914701703370099  0.9091269509021629  0.11107788997574632  1.0000
  H   H36       1.0  0.9914728783015364  0.5908669524046816  0.3889192708265483  1.0000
  H   H37       1.0  0.5509939012797532  0.9239688208874314  0.7482175224869252  1.0000
  H   H38       1.0  0.0509887990051681  0.5760350325606893  0.7517821938454574  1.0000
  H   H39       1.0  0.44900192799546096  0.07602963403522273  0.2517843200453314  1.0000
  H   H40       1.0  0.9489999836373216  0.4239740106042263  0.24821649788252392  1.0000
  H   H41       1.0  0.5641391899779223  0.1372008847299426  0.7484673215831704  1.0000
  H   H42       1.0  0.06413337672905331  0.36280597374562984  0.7515339656692959  1.0000
  H   H43       1.0  0.43586133709999325  0.8627967042459448  0.2515333488824325  1.0000
  H   H44       1.0  0.9358612781487565  0.6372004255086525  0.24846523904161444  1.0000
  H   H45       1.0  0.16975966415741786  0.18098406531625244  0.8510843039925362  1.0000
  H   H46       1.0  0.6697530377910609  0.3190136267741365  0.6489183084637702  1.0000
  H   H47       1.0  0.8302408629459566  0.8190187989508431  0.1489164393708222  1.0000
  H   H48       1.0  0.33023339590211265  0.6809866102784029  0.3510814827324182  1.0000
  H   H49       1.0  0.17997185612286165  0.9686400484113521  0.8487709853584209  1.0000
  H   H50       1.0  0.6799600380789387  0.5313564902724863  0.6512320191256009  1.0000
  H   H51       1.0  0.8200227987158613  0.03136104624717719  0.1512307104785293  1.0000
  H   H52       1.0  0.32002287227730625  0.4686446462206321  0.34876601382394773  1.0000
  H   H53       1.0  0.4645772540925536  0.2981042237761926  0.7262860819080784  1.0000
  H   H54       1.0  0.9645799124324554  0.2018984699585431  0.7737140713047594  1.0000
  H   H55       1.0  0.5354244474609545  0.701896900204311  0.273713049902824  1.0000
  H   H56       1.0  0.03541944023053391  0.7981070256717047  0.22628725794152874  1.0000
  H   H57       1.0  0.4736039257477671  0.5145501627926876  0.7335997950002309  1.0000
  H   H58       1.0  0.9736082647992604  0.9854540030546631  0.7664013368766974  1.0000
  H   H59       1.0  0.5263966013477913  0.4854518145842095  0.2664016077435463  1.0000
  H   H60       1.0  0.0263934367524357  0.014551467463228104  0.2336021901035252  1.0000
  H   H61       1.0  0.2841705112372424  0.5711385688121384  0.8758018441079257  1.0000
  H   H62       1.0  0.7841628721608416  0.9288628778639352  0.624201459915362  1.0000
  H   H63       1.0  0.7158300158406662  0.42885902016374905  0.12419882635767723  1.0000
  H   H64       1.0  0.21583882936339902  0.0711355728868739  0.3758007489041333  1.0000
  H   H65       1.0  0.2741279098300141  0.35680260236078715  0.87622364112962  1.0000
  H   H66       1.0  0.7741186507099229  0.14319736717776277  0.6237786848774219  1.0000
  H   H67       1.0  0.7258761405984587  0.6431941164790587  0.12377622355881361  1.0000
  H   H68       1.0  0.22588422528596652  0.8568028699154413  0.3762211063135226  1.0000
  C   C1        1.0  0.7384539881389856  0.7916117609559595  0.8065962319293476  1.0000
  C   C2        1.0  0.23849307675032352  0.7083860000622908  0.6934020466831613  1.0000
  C   C3        1.0  0.261545364519975  0.20838937557781637  0.19340180101495716  1.0000
  C   C4        1.0  0.7615356371302795  0.2916107146521868  0.30659818428652846  1.0000
  C   C5        1.0  0.7467044250908331  0.8368815591966058  0.8631687205605374  1.0000
  C   C6        1.0  0.24670843154798663  0.6631232581244717  0.636831237251613  1.0000
  C   C7        1.0  0.25329845089525077  0.1631160465305328  0.1368304847478541  1.0000
  C   C8        1.0  0.7532920955652217  0.336883107653435  0.36317089777033834  1.0000
  C   C9        1.0  0.7077885355999174  0.09996976243152032  0.9383989259165304  1.0000
  C   C10       1.0  0.20778860763801532  0.40002726019077534  0.5616017576428831  1.0000
  C   C11       1.0  0.29221668927090866  0.9000251993762804  0.06160079237590574  1.0000
  C   C12       1.0  0.7922201406010103  0.5999712198820008  0.43839788715056477  1.0000
  C   C13       1.0  0.7628524932219849  0.12409793188868432  0.9874587933781528  1.0000
  C   C14       1.0  0.2628481469341395  0.3759002332285561  0.5125426608439057  1.0000
  C   C15       1.0  0.237151557204534  0.8758987827648003  0.012541437599395543  1.0000
  C   C16       1.0  0.7371523801515566  0.6240973724927773  0.4874565444652319  1.0000
  C   C17       1.0  0.6563350719433741  0.15667174818189275  0.026620201499895302  1.0000
  C   C18       1.0  0.15632908398897882  0.34332693476880394  0.47338051027441  1.0000
  C   C19       1.0  0.34366545514429697  0.8433267318705548  0.9733794432961673  1.0000
  C   C20       1.0  0.8436667452841533  0.6566671652437321  0.5266176696667557  1.0000
  C   C21       1.0  0.49567624503992397  0.16321451668624581  0.016088929098096106  1.0000
  C   C22       1.0  0.9956733169259452  0.3367875975931583  0.48391207895890886  1.0000
  C   C23       1.0  0.5043289798504915  0.8367848377089333  0.9839111551833994  1.0000
  C   C24       1.0  0.004329559054248499  0.6632082552853974  0.5160866136647471  1.0000
  C   C25       1.0  0.44160178717073956  0.1385905076826148  0.9669285167154769  1.0000
  C   C26       1.0  0.9415979687837818  0.36141029442651984  0.5330733362010491  1.0000
  C   C27       1.0  0.5583987399032253  0.8614053326310512  0.033071274776268915  1.0000
  C   C28       1.0  0.058402558297942206  0.6385846924878393  0.46692418435819866  1.0000
  C   C29       1.0  0.5478978048213462  0.10739052592193593  0.9276020339508477  1.0000
  C   C30       1.0  0.04789534172520149  0.3926083413840333  0.5723989711666349  1.0000
  C   C31       1.0  0.45210742004555743  0.8926035573683964  0.07239761114377072  1.0000
  C   C32       1.0  0.9521087087169706  0.6073910171946012  0.4276007468261227  1.0000
  C   C33       1.0  0.7162765344259655  0.1875079958473478  0.079419198793083  1.0000
  C   C34       1.0  0.2162731484473852  0.3124936107760591  0.4205824269268277  1.0000
  C   C35       1.0  0.28372634156795584  0.8124913669147489  0.9205801529109364  1.0000
  C   C36       1.0  0.7837226808512626  0.687507504817198  0.5794174374641727  1.0000
  C   C37       1.0  0.4691208059037564  0.9842078518725685  0.7707641559053471  1.0000
  C   C38       1.0  0.9691150618239346  0.5157989357002749  0.7292364658489348  1.0000
  C   C39       1.0  0.5308773722737712  0.0157897370975064  0.229236514561002  1.0000
  C   C40       1.0  0.030873720804848404  0.4842074677258453  0.2707623725747297  1.0000
  C   C41       1.0  0.4736604429897326  0.10378632713697301  0.7702971483818573  1.0000
  C   C42       1.0  0.9736537235312782  0.396216394757012  0.7297044641979937  1.0000
  C   C43       1.0  0.5263400840862005  0.896210387507793  0.2297030825968207  1.0000
  C   C44       1.0  0.0263280123649636  0.6037821103671421  0.2702929828693783  1.0000
  C   C45       1.0  0.36689961517190983  0.17965547258258138  0.799490572287354  1.0000
  C   C46       1.0  0.8668948082276273  0.32034672543478143  0.7005107420851573  1.0000
  C   C47       1.0  0.6330997374616774  0.8203429990942371  0.20050980508731442  1.0000
  C   C48       1.0  0.13309162544789646  0.6796491232167485  0.299488316832857  1.0000
  C   C49       1.0  0.2582332144337586  0.12913684909676706  0.8278344805469402  1.0000
  C   C50       1.0  0.7582280260419694  0.3708630292733306  0.672168954462343  1.0000
  C   C51       1.0  0.7417661382233404  0.8708668936848981  0.1721663360146053  1.0000
  C   C52       1.0  0.24176545431915034  0.629132785904723  0.3278330347663356  1.0000
  C   C53       1.0  0.26235847574716326  0.008858250847573903  0.8264985540458766  1.0000
  C   C54       1.0  0.7623474051100487  0.4911425557346406  0.6735023875085773  1.0000
  C   C55       1.0  0.7376408768922857  0.9911411035330743  0.17350153023749473  1.0000
  C   C56       1.0  0.23763667970030863  0.5088594592788597  0.3264957186384123  1.0000
  C   C57       1.0  0.3705363306076066  0.30752086475645524  0.8011598141999983  1.0000
  C   C58       1.0  0.8705349862016689  0.1924831041062305  0.6988420105369855  1.0000
  C   C59       1.0  0.6294665453922121  0.6924802508542243  0.1988400501887568  1.0000
  C   C60       1.0  0.12946436648680762  0.8075285369599854  0.3011601973831048  1.0000
  C   C61       1.0  0.42730969513596767  0.35457187368022863  0.7609071569349055  1.0000
  C   C62       1.0  0.9273145131470815  0.14543061060632573  0.739095217777809  1.0000
  C   C63       1.0  0.572689657503503  0.6454283508451726  0.2390937331245055  1.0000
  C   C64       1.0  0.07268131620251948  0.8545819257141005  0.2609055981847561  1.0000
  C   C65       1.0  0.4316897945434164  0.47568947238938375  0.764467715301464  1.0000
  C   C66       1.0  0.9316922888502148  0.024314798964248013  0.7355340704361524  1.0000
  C   C67       1.0  0.5683119069984458  0.5243124966176965  0.23553442002016567  1.0000
  C   C68       1.0  0.06831058715556539  0.975690679929272  0.2644687239654715  1.0000
  C   C69       1.0  0.3246842008390161  0.5071665556833835  0.8436396642807439  1.0000
  C   C70       1.0  0.8246791992641319  0.9928333511012967  0.656362002353667  1.0000
  C   C71       1.0  0.6753186751432024  0.49283191181578473  0.15636107938192373  1.0000
  C   C72       1.0  0.17532367672592392  0.007166873432822701  0.34363888770462847  1.0000
  C   C73       1.0  0.317779022629729  0.3873689561699791  0.8433792057298106  1.0000
  C   C74       1.0  0.8177773398062201  0.11263297377329448  0.6566243377010608  1.0000
  C   C75       1.0  0.6822215044521299  0.6126303814681293  0.1566223437096426  1.0000
  C   C76       1.0  0.18222788511176455  0.8873768809679562  0.3433802878453349  1.0000
  S   S1        1.0  0.8451135412138768  0.060677331944859206  0.8889015110278677  1.0000
  S   S2        1.0  0.34511230333966136  0.4393265237292355  0.6110992310540908  1.0000
  S   S3        1.0  0.15488698586792543  0.9393202654037514  0.11109842685950615  1.0000
  S   S4        1.0  0.6548800026182421  0.5606780933661213  0.3889020249966321  1.0000
  N   N1        1.0  0.871991559242673  0.9193133653403153  0.880867698966938  1.0000
  N   N2        1.0  0.37199024631349425  0.580684165014141  0.6191315201698159  1.0000
  N   N3        1.0  0.128011316729733  0.0806824707927944  0.11913245881317638  1.0000
  N   N4        1.0  0.6280102807780423  0.4193134532662839  0.3808665862719778  1.0000
  N   N5        1.0  0.36607534046071794  0.9366433630285372  0.7986909508260851  1.0000
  N   N6        1.0  0.8660703560335179  0.5633558699704011  0.7013106162149825  1.0000
  N   N7        1.0  0.6339216632705347  0.0633551044561074  0.2013097928384511  1.0000
  N   N8        1.0  0.1339137287885919  0.4366487805955189  0.29868770952544577  1.0000
  N   N9        1.0  0.3815632435152453  0.5514539050670281  0.8050665566093187  1.0000
  N   N10       1.0  0.8815632746719474  0.9485506630974001  0.6949365386075854  1.0000
  N   N11       1.0  0.6184384580187795  0.4485463069050938  0.1949354323166901  1.0000
  N   N12       1.0  0.11844077575860008  0.0514504106525564  0.3050669886719461  1.0000
  O   O1        1.0  0.6141406136939834  0.7389328919362086  0.789898341338656  1.0000
  O   O2        1.0  0.1141342394260363  0.7610914839376405  0.7101026519854514  1.0000
  O   O3        1.0  0.38585873899047124  0.2610743900335351  0.2101005702794509  1.0000
  O   O4        1.0  0.8858604154518517  0.23891752575089245  0.289898970053585  1.0000
  O   O5        1.0  0.8563431612300648  0.8056933920831358  0.7794921310041901  1.0000
  O   O6        1.0  0.356332499989982  0.694309373815493  0.7205038744103973  1.0000
  O   O7        1.0  0.143660889219916  0.1943068533856973  0.2205069276081488  1.0000
  O   O8        1.0  0.6436680271172078  0.30569088839008174  0.2794937190466058  1.0000
  O   O9        1.0  0.7712938330865313  0.08619079246422962  0.8444247107420962  1.0000
  O   O10       1.0  0.2712871797317504  0.41381093684305637  0.6555762983105993  1.0000
  O   O11       1.0  0.22871256622667602  0.9138032824562716  0.1555756669303818  1.0000
  O   O12       1.0  0.7287168707416927  0.5861928394411252  0.3444215879365373  1.0000
  O   O13       1.0  0.9948842928826946  0.1127421346336206  0.906013854593354  1.0000
  O   O14       1.0  0.4948815503514299  0.3872571907382464  0.5939863527919867  1.0000
  O   O15       1.0  0.0051174086336516  0.8872528187927389  0.09398659627843393  1.0000
  O   O16       1.0  0.5051225001161515  0.612745702842105  0.4060118265464467  1.0000
  O   O17       1.0  0.8648468305776049  0.1939002461421993  0.08581756128491241  1.0000
  O   O18       1.0  0.3648387514481755  0.3061003466759403  0.41418309071796244  1.0000
  O   O19       1.0  0.13515252206770606  0.8060999909422933  0.914182229907155  1.0000
  O   O20       1.0  0.6351582523045282  0.693899907148186  0.5858152353183925  1.0000
  O   O21       1.0  0.6146524502921408  0.20798104713940554  0.1143340236242949  1.0000
  O   O22       1.0  0.11464218417154372  0.2920218305873733  0.38566634814360157  1.0000
  O   O23       1.0  0.3853492512516112  0.792019185764531  0.8856661338561338  1.0000
  O   O24       1.0  0.885354819583135  0.7079792975678675  0.6143324173796784  1.0000
  O   O25       1.0  0.11902979864619567  0.7287547836090842  0.8176072587170181  1.0000
  O   O26       1.0  0.6190270500145518  0.7712354086981464  0.6823861150148858  1.0000
  O   O27       1.0  0.8809683795606773  0.2712480890249296  0.1823927520688642  1.0000
  O   O28       1.0  0.3809499880258329  0.22874383601173784  0.31760386107627886  1.0000
