data_image0
_chemical_formula_structural       Cu4H24C16O20
_chemical_formula_sum              "Cu4 H24 C16 O20"
_cell_length_a       6.5722386352848465
_cell_length_b       8.736418501638685
_cell_length_c       11.602210399227896
_cell_angle_alpha    79.19280947275482
_cell_angle_beta     85.39005918271977
_cell_angle_gamma    69.61016629615101

_space_group_name_H-M_alt    "P 1"
_space_group_IT_number       1

loop_
  _space_group_symop_operation_xyz
  'x, y, z'

loop_
  _atom_site_type_symbol
  _atom_site_label
  _atom_site_symmetry_multiplicity
  _atom_site_fract_x
  _atom_site_fract_y
  _atom_site_fract_z
  _atom_site_occupancy
  Cu  Cu1       1.0  0.1332610000684938  0.364680763385074  0.47458435270154814  1.0000
  Cu  Cu2       1.0  0.8667327722294331  0.6353135756076963  0.525420416364561  1.0000
  Cu  Cu3       1.0  0.8519073263177788  0.14152597031041836  0.971930993712121  1.0000
  Cu  Cu4       1.0  0.14809037720931437  0.8584832761748868  0.028080122613509725  1.0000
  H   H1        1.0  0.27882793004651085  0.7337113398317426  0.2960567188263852  1.0000
  H   H2        1.0  0.7211907957222721  0.2662583343243767  0.703943427888383  1.0000
  H   H3        1.0  0.655257740236543  0.5238720335405063  0.26072558093243  1.0000
  H   H4        1.0  0.3447498469535191  0.4761187018996295  0.7392712826614201  1.0000
  H   H5        1.0  0.6158715164604517  0.22517542291298295  0.4011864378463628  1.0000
  H   H6        1.0  0.38413780293890915  0.7748315135414358  0.5988011814400735  1.0000
  H   H7        1.0  0.685978584165781  0.02476112841581819  0.3600589663294542  1.0000
  H   H8        1.0  0.31404129553973115  0.9752359634050831  0.6399226365114357  1.0000
  H   H9        1.0  0.4064888577479524  0.8947900975838504  0.3899723199741487  1.0000
  H   H10       1.0  0.5935397680942673  0.10520456336939786  0.6100100718332229  1.0000
  H   H11       1.0  0.14838666248721924  0.0090297615739772  0.4477918153274132  1.0000
  H   H12       1.0  0.851632508843622  0.9909722797601712  0.5521934378944522  1.0000
  H   H13       1.0  0.17178514046535306  0.15866685690941293  0.2315504730286051  1.0000
  H   H14       1.0  0.828205152235896  0.8413485660040431  0.7684575432745717  1.0000
  H   H15       1.0  0.6283476490461268  0.860729422855918  0.20716735665336475  1.0000
  H   H16       1.0  0.37166172731696184  0.1392575409673497  0.7928428789171916  1.0000
  H   H17       1.0  0.3534739692029092  0.2838155956225491  0.9985098971195469  1.0000
  H   H18       1.0  0.6465070189154786  0.7161898958565229  0.0014818483445325373  1.0000
  H   H19       1.0  0.2380592451238003  0.49724738179831  0.930735996347714  1.0000
  H   H20       1.0  0.7619189101605316  0.5027643097226359  0.06925415337226329  1.0000
  H   H21       1.0  0.492781050797234  0.6377907288274115  0.844327385795303  1.0000
  H   H22       1.0  0.5071927192528279  0.36221720019631204  0.15566435950180593  1.0000
  H   H23       1.0  0.7764916329261596  0.5188650037910559  0.853498860488024  1.0000
  H   H24       1.0  0.22348688301971728  0.4811392242939262  0.14649404046230066  1.0000
  C   C1        1.0  0.19611911722104491  0.6633646556592082  0.3597755079780782  1.0000
  C   C2        1.0  0.803899987327732  0.3366075145058288  0.6402225477261466  1.0000
  C   C3        1.0  0.7617772502072526  0.5149452591388833  0.3325339178958373  1.0000
  C   C4        1.0  0.23823191475818825  0.48504545431616436  0.6674706314587623  1.0000
  C   C5        1.0  0.5966654612299962  0.10334491924399455  0.4244624578364551  1.0000
  C   C6        1.0  0.4033730164007849  0.8966484744069302  0.5755411937756919  1.0000
  C   C7        1.0  0.3242437283840191  0.9780827942336497  0.4525865779353423  1.0000
  C   C8        1.0  0.6757730090979237  0.02189802182354579  0.5474198606964293  1.0000
  C   C9        1.0  0.12018546868208092  0.11066589622203077  0.1614807045533695  1.0000
  C   C10       1.0  0.8798177880077991  0.8893446126802966  0.8385342823656501  1.0000
  C   C11       1.0  0.7431053121877228  0.9013055011321638  0.14475025435201871  1.0000
  C   C12       1.0  0.25689480811320214  0.09869507079890379  0.8552593760073179  1.0000
  C   C13       1.0  0.372595058886816  0.40550653741743753  0.9837731141516101  1.0000
  C   C14       1.0  0.6273772762954765  0.5945013311878994  0.016230774148333228  1.0000
  C   C15       1.0  0.6197453147187063  0.5417844262943631  0.9001626894872315  1.0000
  C   C16       1.0  0.38023746205102804  0.45822726376099593  0.099834999352197  1.0000
  O   O1        1.0  0.27272376590087083  0.5067787545618642  0.36836820761707395  1.0000
  O   O2        1.0  0.7272757716220896  0.4931994992050476  0.6316299209903846  1.0000
  O   O3        1.0  0.9322758214081048  0.3881625056218494  0.3468294532098355  1.0000
  O   O4        1.0  0.06772176510825284  0.6118268685495779  0.6531801400355589  1.0000
  O   O5        1.0  0.36736291080366357  0.1318015817736224  0.4173612666142148  1.0000
  O   O6        1.0  0.632623865163602  0.86823131873912  0.582621198335744  1.0000
  O   O7        1.0  0.9645223523376599  0.24984137329186493  0.585101475179961  1.0000
  O   O8        1.0  0.03548794327606005  0.7501468615795371  0.4149033676242198  1.0000
  O   O9        1.0  0.3039459872413063  0.3666327552205855  0.6094383609605742  1.0000
  O   O10       1.0  0.6960563260090495  0.6333628989535425  0.3905623729762055  1.0000
  O   O11       1.0  0.9632710261573577  0.2134260275306658  0.10018792231790033  1.0000
  O   O12       1.0  0.03671415998653778  0.7866005597574881  0.8998161871017061  1.0000
  O   O13       1.0  0.22431721474342958  0.9606144823608882  0.15210880029220428  1.0000
  O   O14       1.0  0.7756611574873131  0.039407053956629995  0.847904095031872  1.0000
  O   O15       1.0  0.6696622334351334  0.04911070656676489  0.0901328246117359  1.0000
  O   O16       1.0  0.33032050591142353  0.9509046328031086  0.9098833173761064  1.0000
  O   O17       1.0  0.9302716174954643  0.7939985017349396  0.13671662265345225  1.0000
  O   O18       1.0  0.06972473155896354  0.2060169801313093  0.8632867897663343  1.0000
  O   O19       1.0  0.574597510556096  0.38782662363078657  0.9181490705080577  1.0000
  O   O20       1.0  0.4253972867627383  0.6121652976852514  0.0818413359649739  1.0000
