data_image0
_chemical_formula_structural       Zn2H11C30Br5N2O14
_chemical_formula_sum              "Zn2 H11 C30 Br5 N2 O14"
_cell_length_a       9.987564297841585
_cell_length_b       11.069669808994863
_cell_length_c       13.294085538466687
_cell_angle_alpha    90.49300652495045
_cell_angle_beta     69.31799595027546
_cell_angle_gamma    79.47096828253693

_space_group_name_H-M_alt    "P 1"
_space_group_IT_number       1

loop_
  _space_group_symop_operation_xyz
  'x, y, z'

loop_
  _atom_site_type_symbol
  _atom_site_label
  _atom_site_symmetry_multiplicity
  _atom_site_fract_x
  _atom_site_fract_y
  _atom_site_fract_z
  _atom_site_occupancy
  Zn  Zn1       1.0  0.6482924842206471  0.5030524373219762  0.48454125285321237  1.0000
  Zn  Zn2       1.0  0.3385420223210288  0.5440878016318322  0.5227060086786466  1.0000
  H   H1        1.0  0.7345317155640597  0.3611569100436824  0.8757192585451892  1.0000
  H   H2        1.0  0.47696938319563725  0.9364908712403944  0.41541164871519254  1.0000
  H   H3        1.0  0.8664482150131004  0.6070854491015679  0.4826895483228883  1.0000
  H   H4        1.0  0.03384817036496909  0.47738291704489194  0.6640395417024508  1.0000
  H   H5        1.0  0.12367762757123298  0.5562700886997687  0.4436318616434037  1.0000
  H   H6        1.0  0.17181130788937077  0.435932803999016  0.7679872203577958  1.0000
  H   H7        1.0  0.726433182963248  0.09212877564733189  0.4182334223189842  1.0000
  H   H8        1.0  0.9438851259443551  0.5170537029257999  0.0520185216145138  1.0000
  H   H9        1.0  0.8350189682597812  0.2771708292673267  0.25997797599104194  1.0000
  H   H10       1.0  0.9578154235427616  0.21912973460867136  0.8554414881562739  1.0000
  H   H11       1.0  0.2320944969039758  0.36568522295230804  0.3694887129801431  1.0000
  C   C1        1.0  0.48298152101364866  0.7536383354193956  0.48336958853335693  1.0000
  C   C2        1.0  0.5846483035481284  0.4412094044981387  0.299945365785412  1.0000
  C   C3        1.0  0.49612275309265624  0.2919107286841792  0.5334801295664846  1.0000
  C   C4        1.0  0.41303996713078556  0.5475017140291953  0.7121290405873852  1.0000
  C   C5        1.0  0.18416380700101326  0.5140785550132634  0.002518848356189122  1.0000
  C   C6        1.0  0.37653340668578744  0.5267867060335121  0.8293796590498631  1.0000
  C   C7        1.0  0.7636460171916679  0.32740797334425764  0.12264688472956214  1.0000
  C   C8        1.0  0.8010782875876996  0.31452512739166133  0.008919015822684158  1.0000
  C   C9        1.0  0.7005997938693012  0.36574441251450207  0.9633002744917152  1.0000
  C   C10       1.0  0.5542288146813162  0.4177828041759567  0.027960568311918642  1.0000
  C   C11       1.0  0.5123029313831606  0.40699913517831016  0.14031755630525578  1.0000
  C   C12       1.0  0.44307480587755055  0.46897228701224225  0.9851752249514619  1.0000
  C   C13       1.0  0.2915409981091627  0.4767700844120312  0.049585402910167956  1.0000
  C   C14       1.0  0.25910801155922764  0.43402571866970857  0.1562619522940167  1.0000
  C   C15       1.0  0.36328144060409767  0.4023476336758023  0.2015807197852625  1.0000
  C   C16       1.0  0.47683783383519074  0.5150646064614434  0.8813398115464895  1.0000
  C   C17       1.0  0.22998072609968284  0.5201792533606876  0.8908749255535611  1.0000
  C   C18       1.0  0.6220547607729685  0.38578970441192695  0.1873129808407229  1.0000
  C   C19       1.0  0.4005728067260179  0.09455183555785139  0.588127568853203  1.0000
  C   C20       1.0  0.5083256949204864  0.15776084807108498  0.5466586873367945  1.0000
  C   C21       1.0  0.42731923096717117  0.9596392587860125  0.582611940955097  1.0000
  C   C22       1.0  0.4659623713163581  0.8908446711070894  0.4897066521152242  1.0000
  C   C23       1.0  0.9108591085746126  0.46219153892600673  0.5562452615713482  1.0000
  C   C24       1.0  0.031327825244012786  0.4973592892444713  0.5841262716273905  1.0000
  C   C25       1.0  0.12637420859864784  0.5112910343340501  0.8339794545887147  1.0000
  C   C26       1.0  0.6662703277959351  0.09088212971730059  0.5063425355075638  1.0000
  C   C27       1.0  0.025377384615346346  0.5611949389829434  0.06897527439528522  1.0000
  C   C28       1.0  0.8548324764520032  0.24862974062297383  0.1750689926148894  1.0000
  C   C29       1.0  0.9520572644520653  0.265914151882221  0.9322188036764275  1.0000
  C   C30       1.0  0.3340081616056735  0.329669442469779  0.29996003467458376  1.0000
  Br  Br1       1.0  0.3956177319124732  0.8895546605556247  0.7173305146637716  1.0000
  Br  Br2       1.0  0.875733944620883  0.306476466313505  0.6009747764981485  1.0000
  Br  Br3       1.0  0.07109890347167175  0.39757957875838196  0.23238909310894942  1.0000
  Br  Br4       1.0  0.6473017406899826  0.5851190645040205  0.8259873273532251  1.0000
  Br  Br5       1.0  0.19849264400836114  0.16789456805764053  0.6510747918251809  1.0000
  N   N1        1.0  0.8417708767470342  0.5220121825753807  0.5021822421446488  1.0000
  N   N2        1.0  0.13387988455678365  0.5423966992896183  0.5172441135985723  1.0000
  O   O1        1.0  0.6042308328095912  0.6902046621315775  0.47940016470712266  1.0000
  O   O2        1.0  0.371862481864845  0.7134072117784528  0.4828258889810472  1.0000
  O   O3        1.0  0.690316394396916  0.46484480632422986  0.323912276633358  1.0000
  O   O4        1.0  0.45019045871683955  0.4712725137023525  0.3602790342185573  1.0000
  O   O5        1.0  0.6207813652779349  0.3231357517912058  0.49446529724029625  1.0000
  O   O6        1.0  0.37251001920428445  0.363467750940721  0.5594470714823956  1.0000
  O   O7        1.0  0.5453297884829027  0.5182370145104683  0.650422561686959  1.0000
  O   O8        1.0  0.3050528246222298  0.5872005593195836  0.6826558787836634  1.0000
  O   O9        1.0  0.9997507909688107  0.5675044686760626  0.8618441377048854  1.0000
  O   O10       1.0  0.7261654858528527  0.04221243264741759  0.5654587805114134  1.0000
  O   O11       1.0  0.9909591760420751  0.649980475588862  0.1345986020608479  1.0000
  O   O12       1.0  0.933601438442089  0.150775345684785  0.13039394500058424  1.0000
  O   O13       1.0  0.06307709779041908  0.2826937447425948  0.944506137554889  1.0000
  O   O14       1.0  0.4102099628936812  0.2298771917285691  0.2999902907459244  1.0000
