data_image0
_chemical_formula_structural       Cu2H32C40N4O10F8
_chemical_formula_sum              "Cu2 H32 C40 N4 O10 F8"
_cell_length_a       7.472217490743405
_cell_length_b       11.663033166533692
_cell_length_c       11.66301555609865
_cell_angle_alpha    97.41624900167297
_cell_angle_beta     99.27913574230594
_cell_angle_gamma    99.28086040337672

_space_group_name_H-M_alt    "P 1"
_space_group_IT_number       1

loop_
  _space_group_symop_operation_xyz
  'x, y, z'

loop_
  _atom_site_type_symbol
  _atom_site_label
  _atom_site_symmetry_multiplicity
  _atom_site_fract_x
  _atom_site_fract_y
  _atom_site_fract_z
  _atom_site_occupancy
  Cu  Cu1       1.0  0.216322136381777  0.4469022479343253  0.6921517907192509  1.0000
  Cu  Cu2       1.0  0.7163184578310934  0.6921479755414809  0.4469017133534407  1.0000
  H   H1        1.0  0.9888644929071689  0.42008869952699274  0.1256762163797589  1.0000
  H   H2        1.0  0.4888670242656444  0.12566682909992724  0.42008955883641613  1.0000
  H   H3        1.0  0.17808597273045743  0.8170462806642294  0.07650185369411844  1.0000
  H   H4        1.0  0.6780813950490485  0.07650971539740681  0.81704138143985  1.0000
  H   H5        1.0  0.09275591320182039  0.8259301174297562  0.5254004205250239  1.0000
  H   H6        1.0  0.5927479601620291  0.5253939255004524  0.8259248395010204  1.0000
  H   H7        1.0  0.3348720980980318  0.8312591813160282  0.5580268196836755  1.0000
  H   H8        1.0  0.8348625526856284  0.5580220740492906  0.8312455068092246  1.0000
  H   H9        1.0  0.8624115298180187  0.2243864029356715  0.17702903985547638  1.0000
  H   H10       1.0  0.3624133756687939  0.17701502111849274  0.22439134819384776  1.0000
  H   H11       1.0  0.17273060125877762  0.6891156609815  0.711785056056108  1.0000
  H   H12       1.0  0.6727258850215422  0.7117892808573459  0.6891269304120726  1.0000
  H   H13       1.0  0.13972148771966897  0.8491387021585693  0.8639375549110394  1.0000
  H   H14       1.0  0.639719579379893  0.8639477635554587  0.8491421398376956  1.0000
  H   H15       1.0  0.2814477517972023  0.47146647194626473  0.9580178472605992  1.0000
  H   H16       1.0  0.7814545425059265  0.958014153874615  0.4714653142781274  1.0000
  H   H17       1.0  0.0389816500229543  0.027783690518496898  0.8712760072310599  1.0000
  H   H18       1.0  0.5389885022893851  0.8712751006178295  0.027772472091797326  1.0000
  H   H19       1.0  0.20195505300971928  0.5699865078314588  0.2827269273475252  1.0000
  H   H20       1.0  0.7019509343984325  0.2827185455958344  0.569986397506426  1.0000
  H   H21       1.0  0.18160311426733242  0.152666943140872  0.48383617926531747  1.0000
  H   H22       1.0  0.6816098912876355  0.4838287221352858  0.15266627068105978  1.0000
  H   H23       1.0  0.947375191583781  0.18338126913820224  0.37761787219055515  1.0000
  H   H24       1.0  0.44736682121530447  0.3776040388260641  0.183384396722083  1.0000
  H   H25       1.0  0.2034152986708976  0.7538393688987881  0.3434173663064186  1.0000
  H   H26       1.0  0.703406861951919  0.3434107962573378  0.7538290288647359  1.0000
  H   H27       1.0  0.36985301971059675  0.8842595423943179  0.3609413538983405  1.0000
  H   H28       1.0  0.8698444628418686  0.36093969504883483  0.8842468980929252  1.0000
  H   H29       1.0  0.1303112014062151  0.8905779330006209  0.32804130284304717  1.0000
  H   H30       1.0  0.6303030456316564  0.3280344421787902  0.890568719600928  1.0000
  H   H31       1.0  0.25694533519023827  0.6243758357576752  0.1235552045546555  1.0000
  H   H32       1.0  0.7569567373044206  0.12355620250843911  0.6243692781628241  1.0000
  C   C1        1.0  0.21629554942939686  0.15890411056111023  0.6693596685501717  1.0000
  C   C2        1.0  0.7162965249473103  0.6693526279211142  0.1588982768671983  1.0000
  C   C3        1.0  0.27583332922901593  0.17468473527756603  0.8981832451529144  1.0000
  C   C4        1.0  0.7758367682963299  0.8981750529307038  0.1746717960481305  1.0000
  C   C5        1.0  0.02731318667372313  0.4001804930081079  0.2141699412559674  1.0000
  C   C6        1.0  0.5273082040857774  0.21415923827953526  0.40018553832508263  1.0000
  C   C7        1.0  0.19320859316211175  0.7491605561040587  0.0072973449897447105  1.0000
  C   C8        1.0  0.6932065662183434  0.007303142425136902  0.7491565450856896  1.0000
  C   C9        1.0  0.19643391590851422  0.4622287029891226  0.41624198371047777  1.0000
  C   C10       1.0  0.6964303499586676  0.4162328289874751  0.4622293186282532  1.0000
  C   C11       1.0  0.13024422898496374  0.35061281367626423  0.44363500465330213  1.0000
  C   C12       1.0  0.6302401829394668  0.4436277647736944  0.3506118997872463  1.0000
  C   C13       1.0  0.21128819003027394  0.030367935381555404  0.6503034561403283  1.0000
  C   C14       1.0  0.7112879673697422  0.6503007221372386  0.030361390929996936  1.0000
  C   C15       1.0  0.22599103986604527  0.8664705934972902  0.5066119141059885  1.0000
  C   C16       1.0  0.7259840551724325  0.50660570105822  0.8664619723149939  1.0000
  C   C17       1.0  0.9576741721131369  0.29094462878571653  0.24250806340136674  1.0000
  C   C18       1.0  0.45767193542906887  0.24249900318451983  0.2909463868015649  1.0000
  C   C19       1.0  0.19105258218573345  0.6788142217977011  0.8040915616333492  1.0000
  C   C20       1.0  0.6910503628112962  0.8040948859580582  0.6788172292977066  1.0000
  C   C21       1.0  0.17140387922482606  0.7676048357585754  0.8904798481940757  1.0000
  C   C22       1.0  0.6713977629013427  0.890486892258153  0.7676056543517333  1.0000
  C   C23       1.0  0.2518980994457466  0.5571780247769241  0.9425163708482317  1.0000
  C   C24       1.0  0.7519027468882556  0.9425158634765652  0.5571777965107145  1.0000
  C   C25       1.0  0.10955269717099012  0.10390598628510618  0.9372897609705146  1.0000
  C   C26       1.0  0.6095626501880604  0.9372860699347997  0.10389479145206348  1.0000
  C   C27       1.0  0.14432573871008003  0.4839315780702761  0.3011176470784704  1.0000
  C   C28       1.0  0.6443196693656573  0.3011102044259175  0.4839309132181525  1.0000
  C   C29       1.0  0.2283969094089713  0.22418868032303862  0.7816691732052448  1.0000
  C   C30       1.0  0.7283968064609425  0.7816666131363449  0.22418795621883453  1.0000
  C   C31       1.0  0.1924530821878321  0.21249106854330077  0.565932496201384  1.0000
  C   C32       1.0  0.6924539854097136  0.5659256759725012  0.21249498575982534  1.0000
  C   C33       1.0  0.32730238568331055  0.5595774384901375  0.4999730613430913  1.0000
  C   C34       1.0  0.82729036176017  0.4999754367736031  0.5595676707639186  1.0000
  C   C35       1.0  0.008038605537905147  0.2671045665779986  0.3557920178926608  1.0000
  C   C36       1.0  0.5080330506250732  0.3557795617807001  0.26710590842105114  1.0000
  C   C37       1.0  0.23261302141704487  0.848470728319846  0.3768562141942553  1.0000
  C   C38       1.0  0.732604799159077  0.37685110108415654  0.8484603666082505  1.0000
  C   C39       1.0  0.2357943398501093  0.6422994324509903  0.03353394127754683  1.0000
  C   C40       1.0  0.7357964848438884  0.0335348989172246  0.6422959468541052  1.0000
  N   N1        1.0  0.18128034555719102  0.3222129945690143  0.5573021286769233  1.0000
  N   N2        1.0  0.6812801019171318  0.5572964864111895  0.3222073281796085  1.0000
  N   N3        1.0  0.22921842635985717  0.5749895802264505  0.829694904258744  1.0000
  N   N4        1.0  0.7292170940284777  0.8296936882069659  0.5749927673717465  1.0000
  O   O1        1.0  0.25404489243862843  0.9933676378976416  0.544904216603335  1.0000
  O   O2        1.0  0.7540420354233108  0.5448976286781219  0.9933598484028322  1.0000
  O   O3        1.0  0.16592869496712143  0.9623394589813686  0.7173520017427393  1.0000
  O   O4        1.0  0.6659322238650348  0.7173423338503826  0.9623385411910164  1.0000
  O   O5        1.0  0.2095865827928876  0.3309591010872666  0.8008988911858809  1.0000
  O   O6        1.0  0.7095878563012691  0.8008964761791333  0.3309495765248299  1.0000
  O   O7        1.0  0.3483007004207794  0.5608139491077467  0.6123515381000431  1.0000
  O   O8        1.0  0.848293069029225  0.6123435569737055  0.560810963031571  1.0000
  O   O9        1.0  0.41245533333505346  0.6409660044754446  0.4573337822456621  1.0000
  O   O10       1.0  0.9124616789171613  0.45732670521002217  0.6409676127714762  1.0000
  F   F1        1.0  0.4093902410184215  0.10682322471716793  0.8928791384516828  1.0000
  F   F2        1.0  0.9093875728043134  0.8928657932928348  0.1068063010426457  1.0000
  F   F3        1.0  0.35142332109839464  0.26873367368472867  0.9870158748767678  1.0000
  F   F4        1.0  0.8514353819713635  0.9870108092730022  0.268715582283015  1.0000
  F   F5        1.0  0.9883344915551505  0.17837632876415202  0.957706061128377  1.0000
  F   F6        1.0  0.4883458815627082  0.9577073762143729  0.17836576523997397  1.0000
  F   F7        1.0  0.17061220424790952  0.06700795451134671  0.0415698404469751  1.0000
  F   F8        1.0  0.6706360203044639  0.04156479896992951  0.0669980148583988  1.0000
