data_image0
_chemical_formula_structural       Dy4H60C90S6O48
_chemical_formula_sum              "Dy4 H60 C90 S6 O48"
_cell_length_a       9.234999227604908
_cell_length_b       15.592049357487573
_cell_length_c       21.811712744365092
_cell_angle_alpha    102.84966814678995
_cell_angle_beta     101.60101973595407
_cell_angle_gamma    104.70021072786594

_space_group_name_H-M_alt    "P 1"
_space_group_IT_number       1

loop_
  _space_group_symop_operation_xyz
  'x, y, z'

loop_
  _atom_site_type_symbol
  _atom_site_label
  _atom_site_symmetry_multiplicity
  _atom_site_fract_x
  _atom_site_fract_y
  _atom_site_fract_z
  _atom_site_occupancy
  Dy  Dy1       1.0  0.5070150025990757  0.863381980036813  0.8160022649830407  1.0000
  Dy  Dy2       1.0  0.03347161294666276  0.9066768644195234  0.8529139940655808  1.0000
  Dy  Dy3       1.0  0.4929780443835198  0.13661715648964898  0.18399664798509716  1.0000
  Dy  Dy4       1.0  0.9665295532895538  0.09332089273637219  0.14708492609820206  1.0000
  H   H1        1.0  0.8756900813691856  0.8361048888511813  0.6754384528822823  1.0000
  H   H2        1.0  0.732500285876533  0.8404973350840095  0.5678030265381365  1.0000
  H   H3        1.0  0.306357140818669  0.9024475903945727  0.6220895689320682  1.0000
  H   H4        1.0  0.6507508979702052  0.7864359675829319  0.4520326722985003  1.0000
  H   H5        1.0  0.6682024814037248  0.9053157625499678  0.48883965428608167  1.0000
  H   H6        1.0  0.6784907987812545  0.8680892009269171  0.4062752881662205  1.0000
  H   H7        1.0  0.973079423311688  0.8441370783442608  0.3644873025662959  1.0000
  H   H8        1.0  0.9586569860490854  0.9109142330866927  0.26943771361096214  1.0000
  H   H9        1.0  0.4570469690257469  0.0158055859336415  0.32069155654429676  1.0000
  H   H10       1.0  0.4740863463546319  0.9518603138384519  0.4172934785789549  1.0000
  H   H11       1.0  0.9752674145550768  0.667420953667829  0.9151214423426521  1.0000
  H   H12       1.0  0.8978573997884423  0.5086671317680995  0.9291049979504887  1.0000
  H   H13       1.0  0.2604511916704979  0.44773925189920044  0.846472198065342  1.0000
  H   H14       1.0  0.33997797650142997  0.608658852796985  0.8353549703426706  1.0000
  H   H15       1.0  0.04884272575389306  0.22873802723285766  0.009458607968440414  1.0000
  H   H16       1.0  0.4813976872181058  0.16737603004820303  0.029132979624087292  1.0000
  H   H17       1.0  0.5828917477014101  0.2903657021204041  0.9798387876723281  1.0000
  H   H18       1.0  0.6620279132365849  0.4468571398317351  0.9824295769143274  1.0000
  H   H19       1.0  0.5921649321680887  0.36403634750170244  0.9025811497268843  1.0000
  H   H20       1.0  0.5871242167621913  0.48017186536247874  0.9120007423079172  1.0000
  H   H21       1.0  0.5589025130461139  0.5627761013217524  0.794562045853034  1.0000
  H   H22       1.0  0.004086910348703998  0.5553241613482383  0.6993599398887296  1.0000
  H   H23       1.0  0.9311385779485732  0.6986041381681005  0.7239542541184887  1.0000
  H   H24       1.0  0.9545756042967922  0.3933271246818037  0.6474441762858801  1.0000
  H   H25       1.0  0.09643450684151135  0.4435420243744658  0.7263662406201019  1.0000
  H   H26       1.0  0.9964868123166963  0.32190299541973383  0.6979700279054624  1.0000
  H   H27       1.0  0.22972083868226886  0.27319474511608627  0.7923365957786853  1.0000
  H   H28       1.0  0.1914531659289267  0.15027120143076186  0.8491029704439937  1.0000
  H   H29       1.0  0.6077368108420911  0.09665793345793358  0.8151892381662831  1.0000
  H   H30       1.0  0.6472357215255186  0.2193404651176465  0.7573033054118878  1.0000
  H   H31       1.0  0.12431511127371662  0.16389633452971716  0.3245618115223222  1.0000
  H   H32       1.0  0.2675015768984466  0.15950596569688  0.43219820234992296  1.0000
  H   H33       1.0  0.6936417836384408  0.09755223613969827  0.3779081136615402  1.0000
  H   H34       1.0  0.3492461982644101  0.2135645603468461  0.5479677179342841  1.0000
  H   H35       1.0  0.3317982683413518  0.09468753371871935  0.5111605632743377  1.0000
  H   H36       1.0  0.3215081170825655  0.13191270759121917  0.5937240976214396  1.0000
  H   H37       1.0  0.026924350473834107  0.15585930373826068  0.6355134539719243  1.0000
  H   H38       1.0  0.041339049972329185  0.08908214426860177  0.7305628494507486  1.0000
  H   H39       1.0  0.5429501343348945  0.984194945577222  0.6793097517974187  1.0000
  H   H40       1.0  0.525913701821409  0.048139522579660386  0.5827065925057011  1.0000
  H   H41       1.0  0.024737755242490802  0.33258234453474944  0.08487868903814187  1.0000
  H   H42       1.0  0.10214445439324756  0.49133825099665523  0.07089793413162938  1.0000
  H   H43       1.0  0.739540415705143  0.5522592055060686  0.1535301543700456  1.0000
  H   H44       1.0  0.6600228239645958  0.3913382100539309  0.16464335101685626  1.0000
  H   H45       1.0  0.9511543897630473  0.7712604240846872  0.9905414562336926  1.0000
  H   H46       1.0  0.5186005235136762  0.8326224168288191  0.9708658006333477  1.0000
  H   H47       1.0  0.41710902845201764  0.7096355211171427  0.020162021966371  1.0000
  H   H48       1.0  0.3379706353897803  0.5531461599463653  0.017571831372073608  1.0000
  H   H49       1.0  0.40783398579148405  0.6359676483719382  0.09742131641824155  1.0000
  H   H50       1.0  0.41287029330118935  0.5198300483839445  0.08800056587724467  1.0000
  H   H51       1.0  0.4410974909065217  0.4372257991747687  0.20543513788098974  1.0000
  H   H52       1.0  0.995920527636322  0.4446749944448314  0.3006420211405255  1.0000
  H   H53       1.0  0.0688684586361319  0.3013943054145257  0.2760425175618265  1.0000
  H   H54       1.0  0.04542557619147666  0.6066706396362844  0.35255658009577917  1.0000
  H   H55       1.0  0.9035685196843131  0.5564550475008474  0.27363410339471966  1.0000
  H   H56       1.0  0.0035169386234913205  0.6780954614844745  0.3020305956089402  1.0000
  H   H57       1.0  0.7702736592248199  0.7268092488236632  0.2076659565460587  1.0000
  H   H58       1.0  0.8085398774906595  0.8497279333051538  0.15089548346967524  1.0000
  H   H59       1.0  0.39225475231013734  0.903342588025744  0.18481022691847926  1.0000
  H   H60       1.0  0.35276319287104485  0.7806635289654478  0.24269870167876206  1.0000
  C   C1        1.0  0.18619743898408822  0.8646691023160572  0.7199043894551449  1.0000
  C   C2        1.0  0.10010447736527078  0.868543728147351  0.6561368214165737  1.0000
  C   C3        1.0  0.9386810822231126  0.8522682346612527  0.6401037731995345  1.0000
  C   C4        1.0  0.8581821911511439  0.8551296143077493  0.5797381428658566  1.0000
  C   C5        1.0  0.93910730350094  0.8771277723618168  0.5343070384033692  1.0000
  C   C6        1.0  0.10235026019012156  0.8963398242469722  0.5520367174421422  1.0000
  C   C7        1.0  0.18126890026007925  0.8902065444115194  0.6108962218819085  1.0000
  C   C8        1.0  0.7071047741418042  0.8588080317197181  0.4550055510361871  1.0000
  C   C9        1.0  0.22455344559357845  0.8931756383596365  0.39444251554169785  1.0000
  C   C10       1.0  0.07804502334635555  0.8809283864995264  0.3539426637363262  1.0000
  C   C11       1.0  0.07042577340661196  0.9179598744961908  0.301405762414511  1.0000
  C   C12       1.0  0.20727114923109732  0.9656689935522634  0.2892924455968283  1.0000
  C   C13       1.0  0.35255738289699684  0.9777099654496338  0.3308081152147863  1.0000
  C   C14       1.0  0.3622807564655659  0.941939903176319  0.3840333481599102  1.0000
  C   C15       1.0  0.2006287748368933  0.006246648494396798  0.23290337511917153  1.0000
  C   C16       1.0  0.20658307963337566  0.7430092663568927  0.8668960307280141  1.0000
  C   C17       1.0  0.1630844854496232  0.6475385261633873  0.8753640407548315  1.0000
  C   C18       1.0  0.03851143226205524  0.6194994902585761  0.9014576369566284  1.0000
  C   C19       1.0  0.994251387725832  0.5309041940325868  0.9086825142240681  1.0000
  C   C20       1.0  0.0751953943202751  0.4702196709933162  0.888693485682978  1.0000
  C   C21       1.0  0.20014020814498687  0.49657330925559506  0.8623189442674216  1.0000
  C   C22       1.0  0.24402958173558886  0.585862194176542  0.8560883946293883  1.0000
  C   C23       1.0  0.22452920553781305  0.3139121657414137  0.9779420803019786  1.0000
  C   C24       1.0  0.16577702855114754  0.24255433090291936  0.0031018050607514005  1.0000
  C   C25       1.0  0.25956978326898644  0.19030625367389573  0.022949459025042494  1.0000
  C   C26       1.0  0.4095615698393331  0.2087349003760721  0.014245508746348907  1.0000
  C   C27       1.0  0.46682671536837733  0.2781249489550959  0.9868832028410065  1.0000
  C   C28       1.0  0.37523269478879223  0.3324922185159451  0.9685874431946074  1.0000
  C   C29       1.0  0.20727134227817598  0.12343040577015069  0.05903150219356948  1.0000
  C   C30       1.0  0.5756181919311558  0.42370144755164313  0.9346193132218797  1.0000
  C   C31       1.0  0.7011034769029435  0.7277760135160635  0.7775369310914468  1.0000
  C   C32       1.0  0.740140555762224  0.6406966307341622  0.7605746245666508  1.0000
  C   C33       1.0  0.6571751819680928  0.5619484527082932  0.7742615905035846  1.0000
  C   C34       1.0  0.7031006569945077  0.4833979864313703  0.763470630020265  1.0000
  C   C35       1.0  0.8281537328193166  0.4782504113771608  0.7361579467562291  1.0000
  C   C36       1.0  0.9076368729737894  0.5567368193286201  0.7207286488354682  1.0000
  C   C37       1.0  0.865712761954981  0.6371125648460277  0.7341011165626267  1.0000
  C   C38       1.0  0.9858392515543032  0.39011305424646275  0.697995201555649  1.0000
  C   C39       1.0  0.4391349899461403  0.25147120027265396  0.7714480534145877  1.0000
  C   C40       1.0  0.31121001471613846  0.23391487192314736  0.7969453240480816  1.0000
  C   C41       1.0  0.29065766810651883  0.16568454187563472  0.8290291699283826  1.0000
  C   C42       1.0  0.3974850036681302  0.11636407271726058  0.835258467278585  1.0000
  C   C43       1.0  0.5259782319717203  0.135644008287656  0.8096046231260483  1.0000
  C   C44       1.0  0.547708175849209  0.2032995035368472  0.7771977083959098  1.0000
  C   C45       1.0  0.3710294336654555  0.0400537820724836  0.8670744142717124  1.0000
  C   C46       1.0  0.8138000123316899  0.13533211454706867  0.2800952224184883  1.0000
  C   C47       1.0  0.8998996022477284  0.13145749072134547  0.3438624316603906  1.0000
  C   C48       1.0  0.06131786864234808  0.14772951884188493  0.35989450147236096  1.0000
  C   C49       1.0  0.1418193144469271  0.14487091018428083  0.4202607840238952  1.0000
  C   C50       1.0  0.060893843452959104  0.12287206140631209  0.46569220779106485  1.0000
  C   C51       1.0  0.8976486749560236  0.10366000765893796  0.44796234231487375  1.0000
  C   C52       1.0  0.818727110820248  0.1097898204099579  0.3891011277985255  1.0000
  C   C53       1.0  0.2928934051513465  0.14119457196284904  0.5449947993914817  1.0000
  C   C54       1.0  0.7754510333239893  0.10682420536401338  0.6055588465267474  1.0000
  C   C55       1.0  0.9219561764242385  0.11906730120632861  0.6460577666146816  1.0000
  C   C56       1.0  0.9295746826672869  0.0820365047930025  0.6985947144675746  1.0000
  C   C57       1.0  0.7927215426703424  0.034329454040836496  0.7107072457304608  1.0000
  C   C58       1.0  0.6474430117669171  0.022292641885698596  0.6691928807047842  1.0000
  C   C59       1.0  0.6377207684148303  0.0580585447034849  0.6159652526991977  1.0000
  C   C60       1.0  0.7993841855414842  0.9937525083731341  0.7670981338946986  1.0000
  C   C61       1.0  0.7934110803791226  0.25698987468176426  0.13310389356777105  1.0000
  C   C62       1.0  0.8369141103346747  0.35245853840639524  0.12463501227621514  1.0000
  C   C63       1.0  0.9614885773493428  0.3805044993839957  0.09854308618932352  1.0000
  C   C64       1.0  0.005752305367394771  0.46910049270830717  0.09131908738228128  1.0000
  C   C65       1.0  0.9247998965371876  0.5297794835102748  0.1113097452128002  1.0000
  C   C66       1.0  0.7998591298687429  0.5034251492958076  0.13768268353553736  1.0000
  C   C67       1.0  0.7559690283007611  0.4141348775554192  0.14391249461953487  1.0000
  C   C68       1.0  0.775469743860384  0.6860876733266819  0.022058815672906497  1.0000
  C   C69       1.0  0.834220464892283  0.7574427345263003  0.9968976138060481  1.0000
  C   C70       1.0  0.740430646396561  0.8096921986464306  0.977050425778756  1.0000
  C   C71       1.0  0.590437018818939  0.791262160612618  0.9857526261757596  1.0000
  C   C72       1.0  0.5331696300435241  0.7218762669769208  0.013116315813917452  1.0000
  C   C73       1.0  0.6247677262834728  0.6675083157882539  0.03141414480324295  1.0000
  C   C74       1.0  0.7927327830254924  0.876566663455179  0.9409680169310302  1.0000
  C   C75       1.0  0.4243873436366102  0.5763025449559293  0.06538141696316299  1.0000
  C   C76       1.0  0.2989127320225577  0.2722251976893872  0.22245875684664895  1.0000
  C   C77       1.0  0.25986350603571395  0.3593045791818027  0.23942233323796802  1.0000
  C   C78       1.0  0.3428262915628651  0.4380520556688268  0.22573320489595256  1.0000
  C   C79       1.0  0.29690271601918994  0.516601856361163  0.23653063882947117  1.0000
  C   C80       1.0  0.17184962950533844  0.5217494260437333  0.2638419449300925  1.0000
  C   C81       1.0  0.09237018498898669  0.4432616349972776  0.27927087717165466  1.0000
  C   C82       1.0  0.13429649000048724  0.36288588238936353  0.26589630060957586  1.0000
  C   C83       1.0  0.014163031274826092  0.6098847092121813  0.3020051889902574  1.0000
  C   C84       1.0  0.560860610301809  0.7485327928076586  0.2285541330743968  1.0000
  C   C85       1.0  0.6887863185394637  0.7660884242021879  0.20305543874642498  1.0000
  C   C86       1.0  0.7093372006010341  0.834318062594697  0.17097181895209693  1.0000
  C   C87       1.0  0.6025054850188454  0.8836322910297553  0.16473933441722718  1.0000
  C   C88       1.0  0.47401151155130367  0.8643551326076561  0.19039584640383103  1.0000
  C   C89       1.0  0.4522867421120296  0.7966989530806571  0.22280400558667415  1.0000
  C   C90       1.0  0.6289573493228601  0.9599481323183522  0.1329280776003471  1.0000
  S   S1        1.0  0.23499381434420039  0.8464317852665457  0.4614154909676528  1.0000
  S   S2        1.0  0.015339548706975873  0.3572266341937437  0.8973380606315967  1.0000
  S   S3        1.0  0.46325980725826804  0.33803859678177156  0.7308913952663472  1.0000
  S   S4        1.0  0.7650125106109228  0.15356736601432172  0.5385854587339549  1.0000
  S   S5        1.0  0.9846590284234936  0.6427766799087281  0.10266702009054997  1.0000
  S   S6        1.0  0.5367398508349835  0.6619647057179846  0.26911056529322497  1.0000
  O   O1        1.0  0.1200589708205728  0.8679949569555135  0.7660188598812991  1.0000
  O   O2        1.0  0.32389393434144154  0.8587920892909509  0.7268894729429716  1.0000
  O   O3        1.0  0.8738219149310069  0.8813113731796633  0.47447905569244847  1.0000
  O   O4        1.0  0.18479418819563898  0.9249989233086283  0.5090053272990005  1.0000
  O   O5        1.0  0.11621376919835309  0.7585870664639884  0.4449543161859423  1.0000
  O   O6        1.0  0.39458810436104835  0.8564477345751768  0.4914145876420973  1.0000
  O   O7        1.0  0.06844884021527521  0.9978900964680689  0.19659537688283985  1.0000
  O   O8        1.0  0.3302268520392245  0.047424151604992894  0.22499415907245882  1.0000
  O   O9        1.0  0.12190376714899294  0.7931312061953546  0.8809268021064721  1.0000
  O   O10       1.0  0.32554084813818923  0.7682588284503992  0.8464619244114712  1.0000
  O   O11       1.0  0.864329574102463  0.3394448712691229  0.9091609283089708  1.0000
  O   O12       1.0  0.0456420984926496  0.29116976962386326  0.8479455155066231  1.0000
  O   O13       1.0  0.14062139403631593  0.37536650656610243  0.9681550676169972  1.0000
  O   O14       1.0  0.46268392588274315  0.991797795030834  0.8672858382963962  1.0000
  O   O15       1.0  0.2547559075023286  0.0251933350806439  0.8910360659909028  1.0000
  O   O16       1.0  0.06556874558900459  0.09957145604622747  0.06083579822769279  1.0000
  O   O17       1.0  0.3101347422841911  0.09571386734012317  0.09016011305623547  1.0000
  O   O18       1.0  0.34490984393482194  0.38262530810350637  0.7349106644194164  1.0000
  O   O19       1.0  0.6286636890216427  0.40748245569689345  0.7827268223750321  1.0000
  O   O20       1.0  0.5645983120273356  0.7263574952531824  0.7815854077843621  1.0000
  O   O21       1.0  0.420340858403776  0.40217239304632807  0.9422874655540451  1.0000
  O   O22       1.0  0.8097848359881468  0.8039412665756059  0.7890950989505824  1.0000
  O   O23       1.0  0.8630616980030368  0.3983924945945461  0.7282446426210852  1.0000
  O   O24       1.0  0.49114737364885025  0.30525226510455644  0.6686477460817455  1.0000
  O   O25       1.0  0.879949866111012  0.13200694382770448  0.23397723338454307  1.0000
  O   O26       1.0  0.6761171286499418  0.14120982051667136  0.2731086429781654  1.0000
  O   O27       1.0  0.12617849188921326  0.11868915396235019  0.5255206960875326  1.0000
  O   O28       1.0  0.8151995882315999  0.07499951447231716  0.4909917029201905  1.0000
  O   O29       1.0  0.8837966293213809  0.24140931583355746  0.5550456225011329  1.0000
  O   O30       1.0  0.6054181912512105  0.14355766086674035  0.5085910125872104  1.0000
  O   O31       1.0  0.9315464378573919  0.0021069653083784995  0.8034033964920722  1.0000
  O   O32       1.0  0.6697673643529853  0.9525708451619364  0.7750074084343764  1.0000
  O   O33       1.0  0.8781161252583302  0.2068707021084251  0.11906976429200705  1.0000
  O   O34       1.0  0.6744658748645235  0.23173060184450378  0.15352973096070593  1.0000
  O   O35       1.0  0.1356675227606488  0.6605598295811104  0.09084516358426235  1.0000
  O   O36       1.0  0.9543498289625132  0.708833531729759  0.15205716968538496  1.0000
  O   O37       1.0  0.8593808609172057  0.6246354154886402  0.031847352153604847  1.0000
  O   O38       1.0  0.5373128360203053  0.0081978817883979  0.13271238296189125  1.0000
  O   O39       1.0  0.7452441127981045  0.974810659933567  0.10896603431845618  1.0000
  O   O40       1.0  0.934422108868169  0.9004256020057823  0.9391626022723754  1.0000
  O   O41       1.0  0.6898593877569469  0.9042873449391281  0.9098387601067939  1.0000
  O   O42       1.0  0.6550934976402515  0.6173786914945723  0.26509217460054657  1.0000
  O   O43       1.0  0.37134148433893444  0.5925208442962386  0.21727376806022386  1.0000
  O   O44       1.0  0.43540684708118954  0.273645797577764  0.21841334643301732  1.0000
  O   O45       1.0  0.5796547575634818  0.597829521631205  0.057713935849832906  1.0000
  O   O46       1.0  0.1902196636790094  0.19605441497085244  0.2109033157842218  1.0000
  O   O47       1.0  0.1369442632776413  0.601608049736832  0.2717587886337255  1.0000
  O   O48       1.0  0.5088497561201422  0.694746193375167  0.3313541543382569  1.0000
