data_image0
_chemical_formula_structural       Ni2Mo6H40C48N16O19
_chemical_formula_sum              "Ni2 Mo6 H40 C48 N16 O19"
_cell_length_a       12.137806993393916
_cell_length_b       12.1362774221108
_cell_length_c       13.491846962582441
_cell_angle_alpha    116.73573839420243
_cell_angle_beta     116.74114887953515
_cell_angle_gamma    89.98936866664481

_space_group_name_H-M_alt    "P 1"
_space_group_IT_number       1

loop_
  _space_group_symop_operation_xyz
  'x, y, z'

loop_
  _atom_site_type_symbol
  _atom_site_label
  _atom_site_symmetry_multiplicity
  _atom_site_fract_x
  _atom_site_fract_y
  _atom_site_fract_z
  _atom_site_occupancy
  Ni  Ni1       1.0  0.5000006917942201  1.2568135474999905e-06  1.926829860099278e-06  1.0000
  Ni  Ni2       1.0  8.825829312010893e-07  0.5000012861109936  2.165229176364664e-06  1.0000
  Mo  Mo1       1.0  0.8089730127837882  0.031341685788170495  1.0617910966411034e-05  1.0000
  Mo  Mo2       1.0  0.19102411885406673  0.9686568628732531  0.9999845588617194  1.0000
  Mo  Mo3       1.0  0.031325147618794305  0.1910481244579074  2.8116489652100597e-05  1.0000
  Mo  Mo4       1.0  0.9686743129003119  0.8089523315162523  0.9999695161212333  1.0000
  Mo  Mo5       1.0  0.11328937108835649  0.11325066571880169  0.22653326837508567  1.0000
  Mo  Mo6       1.0  0.8867084863282386  0.8867507441758992  0.7734648425809925  1.0000
  H   H1        1.0  0.21547716425403957  0.9521873897498238  0.7804812789122694  1.0000
  H   H2        1.0  0.5649835515921424  0.8284274940083947  0.7805591935375916  1.0000
  H   H3        1.0  0.9521822154975652  0.565027346979079  0.7804965673467948  1.0000
  H   H4        1.0  0.8284096077101211  0.21541482651903007  0.7805038001404513  1.0000
  H   H5        1.0  0.7845225381850582  0.0478140196525914  0.21952128463387763  1.0000
  H   H6        1.0  0.4350184345377883  0.17157200765087308  0.21944203993289343  1.0000
  H   H7        1.0  0.047819573899268226  0.43497501612996103  0.2195057445939953  1.0000
  H   H8        1.0  0.17158912702203827  0.7845827678068816  0.21949608643433996  1.0000
  H   H9        1.0  0.5610661488331203  0.1541650466003901  0.87044352030555  1.0000
  H   H10       1.0  0.3093335610281471  0.7161206413466914  0.8703613837596722  1.0000
  H   H11       1.0  0.15422505774957782  0.30929812550368047  0.8703721027400636  1.0000
  H   H12       1.0  0.7162618204686523  0.5610257098425392  0.870430159963064  1.0000
  H   H13       1.0  0.43893326648970543  0.8458315940214761  0.12955403221096873  1.0000
  H   H14       1.0  0.6906647350485712  0.28387886088217584  0.1296361326779589  1.0000
  H   H15       1.0  0.845773480255346  0.6907023305684206  0.12962515648553843  1.0000
  H   H16       1.0  0.283739681811916  0.43897188448595875  0.1295671409480903  1.0000
  H   H17       1.0  0.36158741422271845  0.15470212082270507  0.6601702618977898  1.0000
  H   H18       1.0  0.2986586804243174  0.5054158019821243  0.660097631503966  1.0000
  H   H19       1.0  0.1547110447890958  0.2985832479582768  0.6601077404879876  1.0000
  H   H20       1.0  0.505527911663293  0.3615356289990501  0.6601628379306419  1.0000
  H   H21       1.0  0.6384113205106061  0.8452954735624874  0.33982888351309987  1.0000
  H   H22       1.0  0.7013414606796005  0.4945836999915869  0.339901372868141  1.0000
  H   H23       1.0  0.8452877351416817  0.7014181618384896  0.3398907438533811  1.0000
  H   H24       1.0  0.4944729100289534  0.6384629191520474  0.3398353147109887  1.0000
  H   H25       1.0  0.04234236375598499  0.020406910541190395  0.7066459934649034  1.0000
  H   H26       1.0  0.6643748754054143  0.6862761746980156  0.7066437011362937  1.0000
  H   H27       1.0  0.020430464232625026  0.6643786852226938  0.7066392013268514  1.0000
  H   H28       1.0  0.6862369883924231  0.042326342568003404  0.7066436680334365  1.0000
  H   H29       1.0  0.9576580192702621  0.9795935449793376  0.29335645951466915  1.0000
  H   H30       1.0  0.33562803324104346  0.3137233269818723  0.29335642339167833  1.0000
  H   H31       1.0  0.9795694801370161  0.3356236781415091  0.2933616226794626  1.0000
  H   H32       1.0  0.3137610657537522  0.9576722056990762  0.29335558794403493  1.0000
  H   H33       1.0  0.17827680236556628  0.023073944432695705  0.46078208198814985  1.0000
  H   H34       1.0  0.28249243834967785  0.43780182974229837  0.4607819302530985  1.0000
  H   H35       1.0  0.023058588717354712  0.2824498918319804  0.4608081701986679  1.0000
  H   H36       1.0  0.4377656147976836  0.17831523755468484  0.4606962501070627  1.0000
  H   H37       1.0  0.8217221742924465  0.9769246036178812  0.5392190297024086  1.0000
  H   H38       1.0  0.7175086252672501  0.5621976720741914  0.5392181886681942  1.0000
  H   H39       1.0  0.9769413556522932  0.7175524715322296  0.5391926538076459  1.0000
  H   H40       1.0  0.5622326812755176  0.8216842644963406  0.5393034898222738  1.0000
  C   C1        1.0  0.2842251350918872  0.0078040172277198  0.7791025817195916  1.0000
  C   C2        1.0  0.4948445176999385  0.7713683240692789  0.779102928580237  1.0000
  C   C3        1.0  0.007810615107686724  0.4948792236493206  0.7791054857413331  1.0000
  C   C4        1.0  0.7713859273360341  0.2841605267123839  0.7790717835526452  1.0000
  C   C5        1.0  0.7157743254201847  0.992196438390749  0.220899497874697  1.0000
  C   C6        1.0  0.505157468428827  0.2286311775307013  0.22089904605415003  1.0000
  C   C7        1.0  0.9921884067466066  0.5051231397535431  0.22089570604359907  1.0000
  C   C8        1.0  0.2286139718385058  0.7158380213588131  0.22092821919540037  1.0000
  C   C9        1.0  0.4595411083189306  0.11272163658573932  0.8209285623330305  1.0000
  C   C10       1.0  0.36135460924926827  0.7081495156085253  0.8208744437066219  1.0000
  C   C11       1.0  0.11274451433756383  0.36132856161066945  0.8208623755104231  1.0000
  C   C12       1.0  0.7082480991897029  0.4595063383167286  0.8209303449630315  1.0000
  C   C13       1.0  0.5404578683414273  0.8872769115833989  0.17907106702972433  1.0000
  C   C14       1.0  0.6386436868262848  0.2918499865610685  0.17912381389491833  1.0000
  C   C15       1.0  0.8872561106204129  0.638672847930934  0.17913759676541466  1.0000
  C   C16       1.0  0.2917527225037091  0.5404922098936565  0.17906706651469761  1.0000
  C   C17       1.0  0.3623346712020776  0.11362706105889939  0.7169319552214335  1.0000
  C   C18       1.0  0.35460357961007116  0.603297877702886  0.7168528226047147  1.0000
  C   C19       1.0  0.1136553105791904  0.3545902960104996  0.716898091786206  1.0000
  C   C20       1.0  0.6033815908067339  0.36229075851689885  0.7168903280057678  1.0000
  C   C21       1.0  0.6376645473864784  0.8863724409534655  0.28306741692928494  1.0000
  C   C22       1.0  0.6453963195679862  0.39670067054615293  0.28314495665162565  1.0000
  C   C23       1.0  0.8863455563069849  0.6454120673743304  0.28310162327759525  1.0000
  C   C24       1.0  0.396617385857148  0.6377077898300811  0.28310707786528866  1.0000
  C   C25       1.0  0.12448188627760001  0.0232923507739358  0.5941795805361922  1.0000
  C   C26       1.0  0.46974527873241817  0.5709525533386284  0.5941838785207098  1.0000
  C   C27       1.0  0.023279037739399704  0.4697467779408058  0.5941562114159495  1.0000
  C   C28       1.0  0.5709237352432907  0.12446379600150691  0.5941286316953766  1.0000
  C   C29       1.0  0.8755170903804128  0.9767061972766413  0.40582153115435937  1.0000
  C   C30       1.0  0.5302564654693143  0.42904599447740577  0.4058176121618118  1.0000
  C   C31       1.0  0.9767209066302486  0.5302555854234042  0.40584461259037163  1.0000
  C   C32       1.0  0.42907616393124937  0.8755347520696901  0.4058713710526619  1.0000
  C   C33       1.0  0.0239689667397229  0.009664819045518398  0.6155153063766008  1.0000
  C   C34       1.0  0.5916266446292794  0.6058609991710782  0.6155291699646314  1.0000
  C   C35       1.0  0.0096809125630344  0.5916230441430557  0.6155115341437353  1.0000
  C   C36       1.0  0.6058232024053323  0.023927582837821107  0.615505946105607  1.0000
  C   C37       1.0  0.9760314162865312  0.9903356364750094  0.3844871466029716  1.0000
  C   C38       1.0  0.4083762640160061  0.3941385024495291  0.3844716957272355  1.0000
  C   C39       1.0  0.9903190318066136  0.4083793192211474  0.3844892898625787  1.0000
  C   C40       1.0  0.39417485174083583  0.9760709654292657  0.3844933098718644  1.0000
  C   C41       1.0  0.10080336879270392  0.013953775637169503  0.47887953328904603  1.0000
  C   C42       1.0  0.3780610883247917  0.4650168925712705  0.4788701933921119  1.0000
  C   C43       1.0  0.013913673528534823  0.3780229859611167  0.47888312453573445  1.0000
  C   C44       1.0  0.4650048690297837  0.1008408508343805  0.47883265765547384  1.0000
  C   C45       1.0  0.8991967723088693  0.9860457262179737  0.5211209534108647  1.0000
  C   C46       1.0  0.6219418203205009  0.5349826090493296  0.5211306722997551  1.0000
  C   C47       1.0  0.9860874352811422  0.6219803310298178  0.5211192979716376  1.0000
  C   C48       1.0  0.5349941076282292  0.8991576972161965  0.5211684540350775  1.0000
  N   N1        1.0  0.4093090949411363  0.04634365171007461  0.8581470685151804  1.0000
  N   N2        1.0  0.4487791267950102  0.8117872557324192  0.8581268013368162  1.0000
  N   N3        1.0  0.04637711813994372  0.4487652260401731  0.8580820566700215  1.0000
  N   N4        1.0  0.8118624917602517  0.40925693577454325  0.8581497863030026  1.0000
  N   N5        1.0  0.5906912880862903  0.9536568038697338  0.14185464330049755  1.0000
  N   N6        1.0  0.5512210143077282  0.1882122461820046  0.14187294419919286  1.0000
  N   N7        1.0  0.9536235068180262  0.5512361835014232  0.1419179156058237  1.0000
  N   N8        1.0  0.18813832993081553  0.5907416123172738  0.1418491075025302  1.0000
  N   N9        1.0  0.2510393081896183  0.0469953393970499  0.6914240513910317  1.0000
  N   N10       1.0  0.4403906180512677  0.6444937700234589  0.6913986053070859  1.0000
  N   N11       1.0  0.04703327672059032  0.44040569449589384  0.6914389105689198  1.0000
  N   N12       1.0  0.6445191817805096  0.2509918369025783  0.6913873876586508  1.0000
  N   N13       1.0  0.748959910396593  0.953004162496761  0.30857680308749036  1.0000
  N   N14       1.0  0.5596106874926862  0.35550668557696957  0.308601997566079  1.0000
  N   N15       1.0  0.9529657451348681  0.5595966689662505  0.30856154005211056  1.0000
  N   N16       1.0  0.35548071739520287  0.7490067112278994  0.30861187392549283  1.0000
  O   O1        1.0  0.6659277054793122  0.034686867600541404  1.5284650522983898e-05  1.0000
  O   O2        1.0  0.33407010674687143  0.9653107272382826  0.9999790403916794  1.0000
  O   O3        1.0  0.03473009721273001  0.3341411143170774  7.978267774427727e-05  1.0000
  O   O4        1.0  0.9652658699874336  0.665856480836183  0.9999123132660873  1.0000
  O   O5        1.0  0.8523339779697707  0.17420280296233412  9.330053961061035e-05  1.0000
  O   O6        1.0  0.14766198923039306  0.8257947921909266  0.9998987954042281  1.0000
  O   O7        1.0  0.1741009461998289  0.14768267679395558  1.8028799942668605e-05  1.0000
  O   O8        1.0  0.8258978337321211  0.8523187330620915  0.9999797143775244  1.0000
  O   O9        1.0  4.838517143e-07  1.9074493309e-06  2.4502315270000012e-06  1.0000
  O   O10       1.0  0.9306131587018314  0.09725472058312332  0.17656695150493112  1.0000
  O   O11       1.0  0.24596575397413287  0.0792128003797004  0.1765142193064335  1.0000
  O   O12       1.0  0.0973142568379473  0.2459760702949225  0.17657368935977052  1.0000
  O   O13       1.0  0.07928572356474461  0.9305439690861377  0.17650643380130057  1.0000
  O   O14       1.0  0.06938935647843897  0.9027505039963233  0.8234353299636514  1.0000
  O   O15       1.0  0.754029729355551  0.9207828863757327  0.8234872850282642  1.0000
  O   O16       1.0  0.9026898162473812  0.7540243849524088  0.8234287748331542  1.0000
  O   O17       1.0  0.9207105759385854  0.0694622097257067  0.8234966825777408  1.0000
  O   O18       1.0  0.1953565636581374  0.1953390311866912  0.3906059933414455  1.0000
  O   O19       1.0  0.8046447418881613  0.8046614245323055  0.6093931272039158  1.0000
