data_image0
_chemical_formula_structural       CdH42C42N4O6
_chemical_formula_sum              "Cd1 H42 C42 N4 O6"
_cell_length_a       6.758999413678965
_cell_length_b       7.742736317703538
_cell_length_c       16.862940358580182
_cell_angle_alpha    78.97378973860087
_cell_angle_beta     85.62319576392679
_cell_angle_gamma    87.49249056563654

_space_group_name_H-M_alt    "P 1"
_space_group_IT_number       1

loop_
  _space_group_symop_operation_xyz
  'x, y, z'

loop_
  _atom_site_type_symbol
  _atom_site_label
  _atom_site_symmetry_multiplicity
  _atom_site_fract_x
  _atom_site_fract_y
  _atom_site_fract_z
  _atom_site_occupancy
  Cd  Cd1       1.0  0.49999809595451694  0.5000057208129505  0.4999982490622514  1.0000
  H   H1        1.0  0.013777162826173087  0.5784708264820111  0.3315856617077629  1.0000
  H   H2        1.0  0.9862214633666256  0.42151822164525027  0.6684168515015615  1.0000
  H   H3        1.0  0.32313386226653046  0.589573566541439  0.2397408151548319  1.0000
  H   H4        1.0  0.6768630596807697  0.41042074177227744  0.7602607032039614  1.0000
  H   H5        1.0  0.34692884657022927  0.409645062966831  0.1307105803200841  1.0000
  H   H6        1.0  0.6530635616430162  0.5903505423804346  0.8692897830672877  1.0000
  H   H7        1.0  0.06798462829438279  0.2278050236089939  0.11388430809546432  1.0000
  H   H8        1.0  0.9320122936529175  0.7721892847047158  0.886117210263329  1.0000
  H   H9        1.0  0.7435213139108682  0.7342058329142558  0.006999402444286316  1.0000
  H   H10       1.0  0.2564815777210683  0.26578720752962687  0.992999663939635  1.0000
  H   H11       1.0  0.7356267689982589  0.6299230924339413  0.1561827681228749  1.0000
  H   H12       1.0  0.26438370226598806  0.37006604247987696  0.8438163958463392  1.0000
  H   H13       1.0  0.7351315689799802  0.8459652441978773  0.2473455414045632  1.0000
  H   H14       1.0  0.2648700598892759  0.15402251862229827  0.7526546156768247  1.0000
  H   H15       1.0  0.7045805815486831  0.4056978420638373  0.0776693412290825  1.0000
  H   H16       1.0  0.2954252368308942  0.5942965219691344  0.9223312964184203  1.0000
  H   H17       1.0  0.6092841561719738  0.3581097232167422  0.988945889269786  1.0000
  H   H18       1.0  0.39072166679984827  0.641884637408701  0.011055341548193088  1.0000
  H   H19       1.0  0.867464223318933  0.36959800858302566  0.9941260907113261  1.0000
  H   H20       1.0  0.13253868668200397  0.6303950182307855  0.0058753483544720176  1.0000
  H   H21       1.0  0.901087787212383  0.099741626895721  0.8980837980372486  1.0000
  H   H22       1.0  0.09891062283124796  0.9002526867290968  0.10191826556854267  1.0000
  H   H23       1.0  0.6579564303634414  0.18930655423940113  0.9060286434844328  1.0000
  H   H24       1.0  0.3420448432060396  0.8106904061639284  0.09397369264312522  1.0000
  H   H25       1.0  0.6933563406438522  0.968370274845462  0.8940680951453004  1.0000
  H   H26       1.0  0.30664343105254227  0.031626690469309396  0.1059319162238452  1.0000
  H   H27       1.0  0.7482648004759012  0.9744044970104182  0.521954466220855  1.0000
  H   H28       1.0  0.2517387376169964  0.025609593697239995  0.47804631284830634  1.0000
  H   H29       1.0  0.6278927469016863  0.9086837805010147  0.4435477321268664  1.0000
  H   H30       1.0  0.3721101738197774  0.09134480736253177  0.5564488446802329  1.0000
  H   H31       1.0  0.8774705617251753  0.048613408840132905  0.33930821149271406  1.0000
  H   H32       1.0  0.12253142504959413  0.9514019997458475  0.6606907235876208  1.0000
  H   H33       1.0  0.21248489946172103  0.014147324471679197  0.2684330641188453  1.0000
  H   H34       1.0  0.7875142146027017  0.9858654441508247  0.731564412098777  1.0000
  H   H35       1.0  0.45615130159842465  0.788409730703165  0.33713506990448394  1.0000
  H   H36       1.0  0.5438463829992058  0.21160171282632229  0.6628625666374859  1.0000
  H   H37       1.0  0.055387287138636096  0.6427373166754363  0.5349131151548008  1.0000
  H   H38       1.0  0.9446132207242925  0.35727807978440046  0.4650864610194745  1.0000
  H   H39       1.0  0.6276161769692122  0.1734296411877736  0.25378177269126206  1.0000
  H   H40       1.0  0.37237793089727933  0.8265607073805581  0.7462189923761712  1.0000
  H   H41       1.0  0.5937489482582449  0.730528888017318  0.5884183450998819  1.0000
  H   H42       1.0  0.406238171329896  0.2694864572350467  0.4115769170218472  1.0000
  C   C1        1.0  0.6953581294582278  0.3933089384490884  0.3363822312786553  1.0000
  C   C2        1.0  0.30463558637048754  0.6066906349625325  0.6636159674711949  1.0000
  C   C3        1.0  0.8688478399757358  0.3979201062508863  0.2759677822876867  1.0000
  C   C4        1.0  0.1311493118974667  0.60206892634271  0.7240359651860473  1.0000
  C   C5        1.0  0.028653455986130907  0.5028073258988499  0.28316455342589825  1.0000
  C   C6        1.0  0.9713422572357755  0.4971803884167655  0.716838168031245  1.0000
  C   C7        1.0  0.20022098549748082  0.5092898199981235  0.23201279366721653  1.0000
  C   C8        1.0  0.7997835114898778  0.49070058619304285  0.7679882291064004  1.0000
  C   C9        1.0  0.2125770964926801  0.4090454004160762  0.1708989745837215  1.0000
  C   C10       1.0  0.7874229994274486  0.5909436666523503  0.8291017111907238  1.0000
  C   C11       1.0  0.056309080654521906  0.30616904002802403  0.161128632779203  1.0000
  C   C12       1.0  0.9436940546800727  0.6938187144731953  0.8388744422310666  1.0000
  C   C13       1.0  0.8816554616459485  0.2966219721205476  0.2131779857422842  1.0000
  C   C14       1.0  0.11834459860589419  0.703368397692202  0.7868249603131616  1.0000
  C   C15       1.0  0.7340337477790583  0.0725663821607583  0.14990839046454604  1.0000
  C   C16       1.0  0.2659693243337528  0.9274226955298843  0.8500933858039019  1.0000
  C   C17       1.0  0.7372139977543097  0.13351156444429077  0.06531696217154351  1.0000
  C   C18       1.0  0.2627890157289627  0.8664788330282535  0.934684108525552  1.0000
  C   C19       1.0  0.74241184115737  0.009510093444113497  0.013545453817769709  1.0000
  C   C20       1.0  0.2575910596590703  0.9904829401847336  0.9864547989070901  1.0000
  C   C21       1.0  0.7408216119120539  0.829488700538782  0.04716035573507327  1.0000
  C   C22       1.0  0.2591843053576  0.17050303756043655  0.9528393203732576  1.0000
  C   C23       1.0  0.7342888644098265  0.7703204101628813  0.13068670955073  1.0000
  C   C24       1.0  0.2657201371270829  0.22966870580976456  0.8693142818533701  1.0000
  C   C25       1.0  0.7320118834377354  0.8914663421840598  0.18210349679279153  1.0000
  C   C26       1.0  0.2679928205142801  0.1085188053245787  0.8178967892434131  1.0000
  C   C27       1.0  0.729564728756877  0.32697000117070724  0.0301970874523505  1.0000
  C   C28       1.0  0.270439660155894  0.6730230377692478  0.969803710519507  1.0000
  C   C29       1.0  0.7490466769352153  0.0695301676896278  0.9233466039551956  1.0000
  C   C30       1.0  0.2509577165698147  0.9304628678428131  0.07665478718713097  1.0000
  C   C31       1.0  0.7417188155548617  0.8677062797692018  0.48749925359369684  1.0000
  C   C32       1.0  0.2582785585957764  0.13231305178408087  0.512499488054395  1.0000
  C   C33       1.0  0.9398554161381372  0.8478357828237717  0.44259257735333796  1.0000
  C   C34       1.0  0.060144969873469685  0.15218225660739648  0.5574049945077562  1.0000
  C   C35       1.0  0.9869465958408837  0.9529343557868938  0.3669682656647525  1.0000
  C   C36       1.0  0.013053966059338498  0.0470797242985554  0.6330314229104063  1.0000
  C   C37       1.0  0.1735111187693192  0.9343674697433497  0.32769097910207995  1.0000
  C   C38       1.0  0.826486412900934  0.06564791609427797  0.6723075065781857  1.0000
  C   C39       1.0  0.30929718491086783  0.8110472518104999  0.3654851871008375  1.0000
  C   C40       1.0  0.6907049053462303  0.18896552743421316  0.6345133796107874  1.0000
  C   C41       1.0  0.08514531346364151  0.7277688731096246  0.4761554192901088  1.0000
  C   C42       1.0  0.9148581568152139  0.27224654419497796  0.5238434678667474  1.0000
  N   N1        1.0  0.7279652735015602  0.1919362988726121  0.2043103927349179  1.0000
  N   N2        1.0  0.2720348902326108  0.8080514415988773  0.7956921849518181  1.0000
  N   N3        1.0  0.26606815282019614  0.7105300942767983  0.43871380556151257  1.0000
  N   N4        1.0  0.7339308037246114  0.28948662006135345  0.5612839266239362  1.0000
  O   O1        1.0  0.577435113943146  0.26381602640611845  0.34608499850020286  1.0000
  O   O2        1.0  0.42255713215823215  0.7361835280643232  0.6539150276845263  1.0000
  O   O3        1.0  0.6760361484875118  0.517950243407135  0.3767290275592785  1.0000
  O   O4        1.0  0.3239529271635746  0.4820532734168878  0.6232654187355138  1.0000
  O   O5        1.0  0.6935865358134735  0.7083263852272167  0.5419177450838291  1.0000
  O   O6        1.0  0.3064004848845912  0.2916915859589011  0.4580784785770788  1.0000
