data_image0
_chemical_formula_structural       Zn6H84C132N72
_chemical_formula_sum              "Zn6 H84 C132 N72"
_cell_length_a       17.539020157206725
_cell_length_b       17.538985348638604
_cell_length_c       17.538999197079352
_cell_angle_alpha    109.31616577093642
_cell_angle_beta     109.31619767848635
_cell_angle_gamma    109.31614901024021

_space_group_name_H-M_alt    "P 1"
_space_group_IT_number       1

loop_
  _space_group_symop_operation_xyz
  'x, y, z'

loop_
  _atom_site_type_symbol
  _atom_site_label
  _atom_site_symmetry_multiplicity
  _atom_site_fract_x
  _atom_site_fract_y
  _atom_site_fract_z
  _atom_site_occupancy
  Zn  Zn1       1.0  0.7526487394959671  0.7521005673200706  0.23727644810394824  1.0000
  Zn  Zn2       1.0  0.7520998633577419  0.2372758964769588  0.7526482998565454  1.0000
  Zn  Zn3       1.0  0.23727585383294775  0.7526482344367763  0.7520998707141258  1.0000
  Zn  Zn4       1.0  0.24735194821369072  0.24790044992780477  0.7627238352015834  1.0000
  Zn  Zn5       1.0  0.2479001313207263  0.762723569028836  0.24735123968422817  1.0000
  Zn  Zn6       1.0  0.7627241381789317  0.24735243773361046  0.24790063790759115  1.0000
  H   H1        1.0  0.760240003056019  0.6222239634220585  0.34876708870014983  1.0000
  H   H2        1.0  0.6222234178125347  0.3487671810303538  0.7602398679156933  1.0000
  H   H3        1.0  0.34876710936458  0.7602401123234017  0.6222234768336178  1.0000
  H   H4        1.0  0.23976068366899736  0.37777765750688275  0.651233394297769  1.0000
  H   H5        1.0  0.3777758791988646  0.6512331467600845  0.23976029632601836  1.0000
  H   H6        1.0  0.6512321876468118  0.23976021546704357  0.3777766874080938  1.0000
  H   H7        1.0  0.6371475160654184  0.4802338310802199  0.33208568268108246  1.0000
  H   H8        1.0  0.4802343488497485  0.3320863499326379  0.6371473946738178  1.0000
  H   H9        1.0  0.33208485047545366  0.6371472040125069  0.4802326931048454  1.0000
  H   H10       1.0  0.3628545578714223  0.5197684758184451  0.667917767861624  1.0000
  H   H11       1.0  0.5197656445567131  0.6679143236328356  0.3628519745555181  1.0000
  H   H12       1.0  0.6679144482178785  0.36285252079441216  0.5197667017482955  1.0000
  H   H13       1.0  0.43523928061745204  0.46669946860728123  0.11214444152537338  1.0000
  H   H14       1.0  0.4666994763719287  0.11214445471374283  0.43523920206416017  1.0000
  H   H15       1.0  0.11214401274407486  0.4352388176628708  0.46669933680397674  1.0000
  H   H16       1.0  0.5647614086515702  0.5332997362023093  0.8878563820954141  1.0000
  H   H17       1.0  0.5332998216241122  0.8878552693956363  0.5647607624851715  1.0000
  H   H18       1.0  0.8878566758276631  0.5647603864491729  0.5333020565130012  1.0000
  H   H19       1.0  0.30796238157612515  0.5787424467133562  0.9426297302096882  1.0000
  H   H20       1.0  0.5787417983075541  0.9426284384875458  0.30796046559864004  1.0000
  H   H21       1.0  0.9426282196345921  0.3079596625520578  0.5787410737808542  1.0000
  H   H22       1.0  0.6920383074055394  0.4212573624748473  0.05737072340728855  1.0000
  H   H23       1.0  0.4212581963709069  0.05737102701824879  0.6920390739421263  1.0000
  H   H24       1.0  0.05737038533025898  0.6920385098152407  0.42125814700371217  1.0000
  H   H25       1.0  0.20802004214070277  0.6143924388340026  0.8356430474293288  1.0000
  H   H26       1.0  0.6143909374255755  0.8356408024927973  0.20801778563302528  1.0000
  H   H27       1.0  0.8356408959056052  0.2080184168083718  0.6143920051278468  1.0000
  H   H28       1.0  0.7919806461436776  0.385607369656654  0.16435797588383855  1.0000
  H   H29       1.0  0.3856083612677564  0.16435892231411486  0.7919816092201089  1.0000
  H   H30       1.0  0.16435701139216968  0.7919806178435705  0.38560784035765744  1.0000
  H   H31       1.0  0.4317471219704102  0.78160285487008  0.8264074241452872  1.0000
  H   H32       1.0  0.781603269543602  0.826408120228173  0.43174657427550045  1.0000
  H   H33       1.0  0.8264073411815573  0.4317463133897946  0.7816025669339054  1.0000
  H   H34       1.0  0.5682535677085454  0.21839695501566334  0.17359245977549162  1.0000
  H   H35       1.0  0.21839811316654326  0.17359324139965077  0.5682540534100439  1.0000
  H   H36       1.0  0.17359195779913242  0.5682528070385117  0.21839719792304618  1.0000
  H   H37       1.0  0.5406989807750833  0.7536305806932617  0.9333224561485095  1.0000
  H   H38       1.0  0.7536315644913215  0.9333232737880124  0.5406997022888756  1.0000
  H   H39       1.0  0.9333227169013438  0.5406994473321872  0.7536300701927698  1.0000
  H   H40       1.0  0.4593017079192235  0.24636983287354747  0.06667762746464936  1.0000
  H   H41       1.0  0.24636981780890466  0.06667748276365866  0.45930186509667686  1.0000
  H   H42       1.0  0.0666772767924755  0.45930062185468057  0.24636966904038352  1.0000
  H   H43       1.0  0.7572708304574716  0.8924478957276563  0.13527679580126775  1.0000
  H   H44       1.0  0.8924493032631985  0.13527714761759305  0.7572726147451403  1.0000
  H   H45       1.0  0.13527733646044027  0.7572727351217949  0.8924493078917449  1.0000
  H   H46       1.0  0.24272916225169885  0.1075527771402776  0.8647231431242588  1.0000
  H   H47       1.0  0.1075499943229161  0.8647219714156336  0.24272828950419986  1.0000
  H   H48       1.0  0.8647226555514463  0.24272793704859186  0.10755120072997212  1.0000
  H   H49       1.0  0.8830221645873948  0.04274943496550781  0.16773103799124567  1.0000
  H   H50       1.0  0.04275091265050429  0.1677312744113735  0.8830229830875352  1.0000
  H   H51       1.0  0.16773147081944734  0.8830233940705344  0.042751071578806164  1.0000
  H   H52       1.0  0.11697782951635108  0.9572512392975058  0.8322677615418994  1.0000
  H   H53       1.0  0.9572490776794494  0.8322700007425395  0.11697829492275247  1.0000
  H   H54       1.0  0.8322692159055689  0.1169782268584071  0.9572494114191057  1.0000
  H   H55       1.0  0.07379234805150497  0.048679528291138786  0.39014406943530117  1.0000
  H   H56       1.0  0.04867977155355158  0.3901457279337918  0.07379288475588197  1.0000
  H   H57       1.0  0.3901449697711143  0.07379289831813202  0.04867952342205234  1.0000
  H   H58       1.0  0.9262076450675991  0.9513217496529479  0.6098549297902168  1.0000
  H   H59       1.0  0.9513202221402678  0.6098543412530688  0.9262068544772645  1.0000
  H   H60       1.0  0.6098557175286173  0.9262075138535906  0.951321699583495  1.0000
  H   H61       1.0  0.9376808595608421  0.7308693139820689  0.5310029245596725  1.0000
  H   H62       1.0  0.7308687738215554  0.5310031876343189  0.9376803866735699  1.0000
  H   H63       1.0  0.5310033259769682  0.9376797948152601  0.7308687480370963  1.0000
  H   H64       1.0  0.06231913384561949  0.2691313595834046  0.4689964446696563  1.0000
  H   H65       1.0  0.2691312198722641  0.4689968815525417  0.06231935255957669  1.0000
  H   H66       1.0  0.46899667206536577  0.06231846472348932  0.26912925272653615  1.0000
  H   H67       1.0  0.037854884648005786  0.7059220353704134  0.6491351081310484  1.0000
  H   H68       1.0  0.7059224736779937  0.6491365639074259  0.037855942815191716  1.0000
  H   H69       1.0  0.6491368204345276  0.03785544158496622  0.7059222037575592  1.0000
  H   H70       1.0  0.9621437194547653  0.29407795013271  0.3508630026420718  1.0000
  H   H71       1.0  0.2940775190311839  0.3508641089605078  0.9621439961103274  1.0000
  H   H72       1.0  0.35086525953276027  0.9621444526820537  0.2940787389270624  1.0000
  H   H73       1.0  0.2785214536867285  0.9060046769919339  0.6906149019405277  1.0000
  H   H74       1.0  0.9060057002249806  0.6906160848967816  0.27852300672208247  1.0000
  H   H75       1.0  0.6906159144848729  0.27852205601280394  0.9060051063971243  1.0000
  H   H76       1.0  0.7214792362795848  0.0939945285151964  0.30938535198406203  1.0000
  H   H77       1.0  0.0939956833472451  0.3093834635952106  0.7214787309749084  1.0000
  H   H78       1.0  0.3093826921619111  0.7214755133709687  0.09399334499886441  1.0000
  H   H79       1.0  0.1882871413609593  0.9412496259229073  0.5764078363266093  1.0000
  H   H80       1.0  0.9412495958636241  0.5764081083680705  0.18828704687555847  1.0000
  H   H81       1.0  0.5764082415822074  0.18828646618610642  0.9412502327751396  1.0000
  H   H82       1.0  0.8117128543021507  0.05874923590182141  0.42359150352178426  1.0000
  H   H83       1.0  0.05874900741928709  0.42359066698275444  0.8117129432975716  1.0000
  H   H84       1.0  0.423590362397995  0.8117123098622586  0.05874918770179966  1.0000
  C   C1        1.0  0.6871215168798983  0.5864208616144638  0.2958576383520253  1.0000
  C   C2        1.0  0.5864207971507014  0.29585834933034494  0.6871214944645344  1.0000
  C   C3        1.0  0.29585845752377077  0.6871216386115934  0.5864208379556644  1.0000
  C   C4        1.0  0.3128798677995447  0.41357929265122095  0.7041425899487661  1.0000
  C   C5        1.0  0.4135785008453395  0.7041413747790272  0.31287847008479724  1.0000
  C   C6        1.0  0.7041422307606094  0.3128781698790703  0.413580185357503  1.0000
  C   C7        1.0  0.6190290132889442  0.508825625937618  0.2865358709433607  1.0000
  C   C8        1.0  0.5088253111051271  0.2865366659249986  0.6190294397172663  1.0000
  C   C9        1.0  0.28653594584930187  0.6190295051677027  0.5088254967414656  1.0000
  C   C10       1.0  0.38097236802663287  0.4911757342951263  0.713465896134572  1.0000
  C   C11       1.0  0.4911746809067522  0.7134640062453883  0.3809710689044579  1.0000
  C   C12       1.0  0.7134640454652936  0.3809711663051444  0.4911755815764492  1.0000
  C   C13       1.0  0.5076936041238865  0.5009195236435958  0.1657683551477974  1.0000
  C   C14       1.0  0.5009196819508546  0.1657695675811226  0.5076937223628234  1.0000
  C   C15       1.0  0.16576865875949653  0.5076932244813293  0.5009193169426708  1.0000
  C   C16       1.0  0.49230708317584515  0.49908088852813404  0.8342328678577502  1.0000
  C   C17       1.0  0.49907961506054477  0.834230760209323  0.4923064418788811  1.0000
  C   C18       1.0  0.8342320298122414  0.49230597963071415  0.4990820763743071  1.0000
  C   C19       1.0  0.5751140083872173  0.578712957731547  0.17368559734515543  1.0000
  C   C20       1.0  0.5787118568122905  0.17368449916475714  0.5751134497241424  1.0000
  C   C21       1.0  0.1736847535199217  0.5751138959800102  0.5787122164308512  1.0000
  C   C22       1.0  0.4248873722310761  0.4212884018036505  0.8263167394289679  1.0000
  C   C23       1.0  0.42128744188103434  0.8263152256421619  0.42488594512899863  1.0000
  C   C24       1.0  0.826314544476119  0.42488582812936915  0.42128774811848035  1.0000
  C   C25       1.0  0.5550644069694781  0.6183453051803481  0.11379214282282389  1.0000
  C   C26       1.0  0.6183449445906815  0.11379189023830334  0.555064279505487  1.0000
  C   C27       1.0  0.11379168135169239  0.5550633453674934  0.6183450242567332  1.0000
  C   C28       1.0  0.44493697533074067  0.38165545137132273  0.8862094245627289  1.0000
  C   C29       1.0  0.38165435369271705  0.8862072294924629  0.4449360550476625  1.0000
  C   C30       1.0  0.8862083119322006  0.4449361187432217  0.3816556546764219  1.0000
  C   C31       1.0  0.4968035888793878  0.6558975079141335  0.017045226381512287  1.0000
  C   C32       1.0  0.6558976058917237  0.01704533798857711  0.49680217056267395  1.0000
  C   C33       1.0  0.017045264266094796  0.49680234905019194  0.6558983128742567  1.0000
  C   C34       1.0  0.5031971010869254  0.34410169759300396  0.9829550275430845  1.0000
  C   C35       1.0  0.3441037775157127  0.9829560243367865  0.5031978874266868  1.0000
  C   C36       1.0  0.9829547290177982  0.503197115060523  0.34410236605889816  1.0000
  C   C37       1.0  0.43295419114732425  0.6653944900558528  0.947928810734652  1.0000
  C   C38       1.0  0.6653943111364881  0.9479291933794303  0.43295238307734246  1.0000
  C   C39       1.0  0.9479286241649658  0.4329523744949454  0.6653944318142135  1.0000
  C   C40       1.0  0.5670471935321189  0.3346056642098389  0.0520714175661397  1.0000
  C   C41       1.0  0.3346063775578187  0.052071220187386275  0.5670477005358164  1.0000
  C   C42       1.0  0.052069979815229296  0.5670464015534195  0.3346049886627327  1.0000
  C   C43       1.0  0.3373901384701554  0.623681660756425  0.9177253968065385  1.0000
  C   C44       1.0  0.6236801692266241  0.9177239913653706  0.33738816373153196  1.0000
  C   C45       1.0  0.9177239549429783  0.33738772117769855  0.6236802992133404  1.0000
  C   C46       1.0  0.6626112448147125  0.37631849211418  0.08227597088663424  1.0000
  C   C47       1.0  0.3763198237699043  0.08227607712394999  0.6626121451978121  1.0000
  C   C48       1.0  0.08227534403771128  0.6626113992506077  0.37631946564361124  1.0000
  C   C49       1.0  0.2821549508490477  0.6434737768630967  0.8585356571759134  1.0000
  C   C50       1.0  0.6434731457547612  0.8585343762442789  0.2821533689330167  1.0000
  C   C51       1.0  0.8585336271112283  0.2821533648198056  0.6434729045128477  1.0000
  C   C52       1.0  0.7178457374353329  0.3565260316275598  0.14146536613725405  1.0000
  C   C53       1.0  0.35652754293954547  0.14146603732253024  0.7178467146801423  1.0000
  C   C54       1.0  0.1414649758843254  0.7178460149096253  0.3565267156564714  1.0000
  C   C55       1.0  0.4071203884528883  0.7369113237341549  0.8535837928220926  1.0000
  C   C56       1.0  0.7369109114452853  0.8535834658898054  0.40711940019532733  1.0000
  C   C57       1.0  0.8535836127801983  0.4071199078184477  0.7369105977995644  1.0000
  C   C58       1.0  0.592880301226067  0.263088486151588  0.14641609109869333  1.0000
  C   C59       1.0  0.26308908224853406  0.14641660329706246  0.5928803390378191  1.0000
  C   C60       1.0  0.1464156859131336  0.5928798169884715  0.26308879705357663  1.0000
  C   C61       1.0  0.4673212115514786  0.7215965714984947  0.9127658585741968  1.0000
  C   C62       1.0  0.7215972721262957  0.9127665421532073  0.4673198446339128  1.0000
  C   C63       1.0  0.912765150343567  0.4673198643192364  0.7215957377638346  1.0000
  C   C64       1.0  0.532680175097255  0.27840237540505797  0.0872339703418348  1.0000
  C   C65       1.0  0.27840341656801126  0.08723387141360214  0.5326802389792462  1.0000
  C   C66       1.0  0.08723275904607418  0.5326791724253328  0.27840239863309074  1.0000
  C   C67       1.0  0.8284511956616711  0.9281824081840214  0.19238765989431544  1.0000
  C   C68       1.0  0.9281844330316528  0.19238799026500433  0.82845453712833  1.0000
  C   C69       1.0  0.19238786742855746  0.8284548570206525  0.9281838427022887  1.0000
  C   C70       1.0  0.17154880139602105  0.07181645503579395  0.8076105405616898  1.0000
  C   C71       1.0  0.07181625467801207  0.8076130269828783  0.17154574617720905  1.0000
  C   C72       1.0  0.8076121242959642  0.1715464195283473  0.07181629591561034  1.0000
  C   C73       1.0  0.8981039027010383  0.010477790076109316  0.210228121374371  1.0000
  C   C74       1.0  0.010479432765436102  0.21022944463065582  0.8981064777523996  1.0000
  C   C75       1.0  0.2102296688811052  0.8981073527358134  0.010479714833756777  1.0000
  C   C76       1.0  0.10189539668957787  0.9895219354283571  0.7897707037825796  1.0000
  C   C77       1.0  0.9895212553541552  0.7897721776933723  0.10189286585313087  1.0000
  C   C78       1.0  0.7897710181312689  0.101893663814522  0.9895211381679728  1.0000
  C   C79       1.0  0.003237892714388099  0.0143210427745615  0.3325105813139828  1.0000
  C   C80       1.0  0.014320893294438999  0.3325125104401536  0.0032388253205297853  1.0000
  C   C81       1.0  0.33251149168280125  0.0032389514667059065  0.014320295907715792  1.0000
  C   C82       1.0  0.9967627963898519  0.9856799758684003  0.6674885625991674  1.0000
  C   C83       1.0  0.9856784034295952  0.6674884217288974  0.996760968917364  1.0000
  C   C84       1.0  0.6674891953295725  0.9967620650836295  0.9856805570940138  1.0000
  C   C85       1.0  0.933964190037045  0.9322888541967272  0.31661854312882537  1.0000
  C   C86       1.0  0.9322894685301291  0.3166192576277708  0.9339646571884115  1.0000
  C   C87       1.0  0.31661903867048113  0.9339651339238346  0.9322889613661757  1.0000
  C   C88       1.0  0.06603649836990397  0.06771216374868767  0.6833811704805155  1.0000
  C   C89       1.0  0.06770982889119638  0.6833816752388273  0.06603456735328446  1.0000
  C   C90       1.0  0.6833830403121651  0.06603536402425901  0.06771218101081193  1.0000
  C   C91       1.0  0.9490487074963453  0.8891496760596167  0.3739632632722872  1.0000
  C   C92       1.0  0.8891494855691062  0.3739639875766158  0.9490485654190904  1.0000
  C   C93       1.0  0.3739638751582603  0.9490488708901239  0.8891495862683739  1.0000
  C   C94       1.0  0.05095128591011639  0.11085099750584958  0.6260361059570483  1.0000
  C   C95       1.0  0.11084981185221919  0.6260369452899754  0.05095065912261287  1.0000
  C   C96       1.0  0.6260375095211828  0.05095128337556076  0.1108506420324176  1.0000
  C   C97       1.0  0.9981697693466598  0.8480471968826819  0.47072131606385886  1.0000
  C   C98       1.0  0.8480466792238487  0.4707217074907676  0.9981701343074861  1.0000
  C   C99       1.0  0.47072167101019585  0.998169315691733  0.8480463982665397  1.0000
  C   C100      1.0  0.0018309190602891995  0.15195382106273309  0.5292783975454896  1.0000
  C   C101      1.0  0.15195261807490815  0.5292780159210723  0.0018303999380365134  1.0000
  C   C102      1.0  0.5292769350618726  0.0018294624492582654  0.1519513131218204  1.0000
  C   C103      1.0  0.05547403937442399  0.8373528364758228  0.5434980185983207  1.0000
  C   C104      1.0  0.8373515530136117  0.5434973443949219  0.05547451648936915  1.0000
  C   C105      1.0  0.5434982144837049  0.05547371743979563  0.8373524431342856  1.0000
  C   C106      1.0  0.944525953334754  0.16264783639211092  0.4565019203272059  1.0000
  C   C107      1.0  0.1626477442851382  0.45650237901691076  0.9445260177561534  1.0000
  C   C108      1.0  0.4565003931477206  0.944523248262911  0.1626458085693302  1.0000
  C   C109      1.0  0.0130590536450796  0.7712312542076634  0.5657278979546945  1.0000
  C   C110      1.0  0.771230685911263  0.5657279385968437  0.013058911320328598  1.0000
  C   C111      1.0  0.5657277792763296  0.013058251725389982  0.7712303531958254  1.0000
  C   C112      1.0  0.9869416330799365  0.22877036672128528  0.4342725850432173  1.0000
  C   C113      1.0  0.22877000179840215  0.43427307865103154  0.9869413719852032  1.0000
  C   C114      1.0  0.43427291167463267  0.9869403501006746  0.22876970103639144  1.0000
  C   C115      1.0  0.06826157547706657  0.7573582412864968  0.6308898973376955  1.0000
  C   C116      1.0  0.7573590234171659  0.6308906323729743  0.06826183463179086  1.0000
  C   C117      1.0  0.6308902837595909  0.06826061935926486  0.7573582611385915  1.0000
  C   C118      1.0  0.9317384208833344  0.2426406212357718  0.36910887281450744  1.0000
  C   C119      1.0  0.24264096929200457  0.3691100404949522  0.9317381042937354  1.0000
  C   C120      1.0  0.3691104078886552  0.9317379831643391  0.24264122339742752  1.0000
  C   C121      1.0  0.20275805584995504  0.8695237697242321  0.654855297387101  1.0000
  C   C122      1.0  0.8695242484861225  0.6548569130088709  0.20275941893637384  1.0000
  C   C123      1.0  0.6548569459732645  0.20275910480624035  0.8695247280101126  1.0000
  C   C124      1.0  0.7972412438280256  0.1304753514016212  0.34514389777366006  1.0000
  C   C125      1.0  0.13047504852527675  0.3451434147815746  0.7972407453053376  1.0000
  C   C126      1.0  0.3451437432957646  0.7972401000033499  0.13047609561067464  1.0000
  C   C127      1.0  0.15280917818387246  0.888779288155476  0.5911095183745728  1.0000
  C   C128      1.0  0.8887791411937369  0.5911103914437703  0.15281009916949267  1.0000
  C   C129      1.0  0.5911099758050041  0.1528098115813207  0.8887792729930339  1.0000
  C   C130      1.0  0.8471908174792444  0.11121957366925266  0.4088898214738207  1.0000
  C   C131      1.0  0.1112201570896687  0.40888872828699624  0.8471902353836497  1.0000
  C   C132      1.0  0.4088893224783944  0.8471893081494529  0.11122106156011569  1.0000
  N   N1        1.0  0.6650823395664884  0.6215145987262429  0.2400632372523787  1.0000
  N   N2        1.0  0.6215143943266098  0.24006310055568034  0.6650825078335528  1.0000
  N   N3        1.0  0.24006355999161844  0.6650824530967013  0.6215145607107503  1.0000
  N   N4        1.0  0.334918349415176  0.3784852104619603  0.759937216364591  1.0000
  N   N5        1.0  0.37848490366943105  0.7599366235536992  0.33491745671577894  1.0000
  N   N6        1.0  0.7599364330049097  0.33491761539261933  0.37848574821858694  1.0000
  N   N7        1.0  0.5291536436419122  0.4662315658125635  0.22188390188805582  1.0000
  N   N8        1.0  0.4662313830867574  0.22188517302246413  0.5291538241298992  1.0000
  N   N9        1.0  0.2218838584055405  0.5291531296049283  0.46623069302052755  1.0000
  N   N10       1.0  0.4708463510365488  0.533767899693231  0.7781156376527106  1.0000
  N   N11       1.0  0.5337686089251292  0.7781154991479227  0.4708466844918248  1.0000
  N   N12       1.0  0.7781154395905003  0.4708465945044508  0.5337692715288042  1.0000
  N   N13       1.0  0.4718492864784451  0.5955789767654666  0.04835321730287495  1.0000
  N   N14       1.0  0.5955788707308755  0.048354068826050416  0.47184781234520295  1.0000
  N   N15       1.0  0.04835283509211048  0.4718476085444507  0.5955788684979595  1.0000
  N   N16       1.0  0.5281527941861341  0.40442091819910075  0.9516471556855494  1.0000
  N   N17       1.0  0.40442112226565285  0.9516459996632703  0.5281524965841413  1.0000
  N   N18       1.0  0.9516471572071339  0.5281524592473305  0.4044220101275756  1.0000
  N   N19       1.0  0.6264183773853702  0.6885042019965937  0.12199918964729756  1.0000
  N   N20       1.0  0.6885033975061177  0.12199844361907711  0.6264171503514149  1.0000
  N   N21       1.0  0.12199899926810079  0.6264166004203346  0.6885038158153661  1.0000
  N   N22       1.0  0.37358231159630145  0.3114956071916026  0.8780012639696791  1.0000
  N   N23       1.0  0.3114952057768007  0.8780003317317476  0.3735828398217149  1.0000
  N   N24       1.0  0.8780009956977252  0.3735822607068541  0.31149609372921827  1.0000
  N   N25       1.0  0.5900953366856498  0.7132393051003589  0.060311452453739  1.0000
  N   N26       1.0  0.7132390245937755  0.06031072639046902  0.5900937017765528  1.0000
  N   N27       1.0  0.0603105773874262  0.5900943581389484  0.7132388656498349  1.0000
  N   N28       1.0  0.4099053515987308  0.2867605033902976  0.9396895708594215  1.0000
  N   N29       1.0  0.2867609691000438  0.9396893427963915  0.4099060374565936  1.0000
  N   N30       1.0  0.9396880265927691  0.40990441790941656  0.2867605548271115  1.0000
  N   N31       1.0  0.3161929960286399  0.7002514939160491  0.8277773717693719  1.0000
  N   N32       1.0  0.7002514444042092  0.8277766521971942  0.31619250057171666  1.0000
  N   N33       1.0  0.8277759374649563  0.316192309847736  0.7002508563520137  1.0000
  N   N34       1.0  0.6838076912710916  0.29974891825567346  0.17222385123617562  1.0000
  N   N35       1.0  0.2997499383059363  0.1722247094306297  0.6838081271138349  1.0000
  N   N36       1.0  0.17222336053108472  0.6838074142616362  0.2997491081973108  1.0000
  N   N37       1.0  0.8463545775570508  0.8888538419548552  0.24478713339774305  1.0000
  N   N38       1.0  0.8888554173214303  0.24478717991771495  0.8463554144234421  1.0000
  N   N39       1.0  0.24478756315579628  0.8463556029865416  0.888855571583491  1.0000
  N   N40       1.0  0.15364611183454707  0.11114657230950088  0.755212380519225  1.0000
  N   N41       1.0  0.11114387968996198  0.7552131478727304  0.15364474981826254  1.0000
  N   N42       1.0  0.7552145138575596  0.1536461023236839  0.11114597017825639  1.0000
  N   N43       1.0  0.9858099940646737  0.05313607162252514  0.27962819959760316  1.0000
  N   N44       1.0  0.0531376948546267  0.27963067898554783  0.9858123932527573  1.0000
  N   N45       1.0  0.2796306961062172  0.9858121395119638  0.053138239772394534  1.0000
  N   N46       1.0  0.0141893043413006  0.9468642575629999  0.7203708252517202  1.0000
  N   N47       1.0  0.9468616028540565  0.7203696495024301  0.01418720129275637  1.0000
  N   N48       1.0  0.7203699921781634  0.014187668978692643  0.9468627835407729  1.0000
  N   N49       1.0  0.8750124289498512  0.8143087546662426  0.3561025352356848  1.0000
  N   N50       1.0  0.814308507341039  0.356103119481375  0.8750122674273938  1.0000
  N   N51       1.0  0.3561030850890034  0.8750126788326965  0.8143086714607931  1.0000
  N   N52       1.0  0.12498756515389427  0.1856919195967777  0.6438962642974528  1.0000
  N   N53       1.0  0.18569148606542288  0.6438975540840916  0.12498710180194195  1.0000
  N   N54       1.0  0.6438962129070446  0.12498704527667567  0.18569129308853854  1.0000
  N   N55       1.0  0.905294542866919  0.7872506019763678  0.417519163385876  1.0000
  N   N56       1.0  0.7872502311470626  0.4175197880637641  0.9052953116869488  1.0000
  N   N57       1.0  0.41751924548924524  0.9052944043263977  0.7872499439964711  1.0000
  N   N58       1.0  0.09470545053954278  0.21275007158910605  0.5824802058434528  1.0000
  N   N59       1.0  0.2127483704539159  0.58247959027058  0.09470544787475182  1.0000
  N   N60       1.0  0.5824779698845574  0.09470368435715677  0.21274764832806176  1.0000
  N   N61       1.0  0.028612134329300393  0.9129503123834226  0.44591672338305693  1.0000
  N   N62       1.0  0.9129503326488544  0.44591771001344666  0.028611801469068707  1.0000
  N   N63       1.0  0.4459179614246409  0.028611744197895937  0.912949607081913  1.0000
  N   N64       1.0  0.9713878590771542  0.0870503611820509  0.5540826458462788  1.0000
  N   N65       1.0  0.08704966006031609  0.55408296285448  0.9713881374564577  1.0000
  N   N66       1.0  0.5540827299362476  0.971387462704321  0.08704950745029547  1.0000
  N   N67       1.0  0.16176999420640925  0.8042293027269168  0.6741932615387184  1.0000
  N   N68       1.0  0.8042297560011845  0.6741938974177373  0.16177017023441212  1.0000
  N   N69       1.0  0.6741939065630546  0.1617696489077503  0.8042297819366481  1.0000
  N   N70       1.0  0.8382300017440583  0.19576895471920602  0.32580644831349287  1.0000
  N   N71       1.0  0.19577023601069496  0.3258067747526567  0.8382303383873049  1.0000
  N   N72       1.0  0.3258053927049928  0.8382288671419502  0.19577035292411435  1.0000
