data_image0
_chemical_formula_structural       Ga4P8H44C40N8O32
_chemical_formula_sum              "Ga4 P8 H44 C40 N8 O32"
_cell_length_a       8.393446409
_cell_length_b       10.91483640560607
_cell_length_c       15.8253
_cell_angle_alpha    90.0
_cell_angle_beta     90.0
_cell_angle_gamma    108.8886912231272

_space_group_name_H-M_alt    "P 1"
_space_group_IT_number       1

loop_
  _space_group_symop_operation_xyz
  'x, y, z'

loop_
  _atom_site_type_symbol
  _atom_site_label
  _atom_site_symmetry_multiplicity
  _atom_site_fract_x
  _atom_site_fract_y
  _atom_site_fract_z
  _atom_site_occupancy
  Ga  Ga1       1.0  0.5446597413952361  0.6705884304797038  0.3869879243995342  1.0000
  Ga  Ga2       1.0  0.04466012318119541  0.6705884304797038  0.11301207560046578  1.0000
  Ga  Ga3       1.0  0.4553417894248355  0.3294120984218054  0.6130120756004658  1.0000
  Ga  Ga4       1.0  0.9553390248274454  0.3294120984218054  0.886987924399534  1.0000
  P   P1        1.0  0.6283376213582557  0.6470183250441863  0.5837304822025471  1.0000
  P   P2        1.0  0.12833721938515202  0.6470192933735675  0.9162688858978993  1.0000
  P   P3        1.0  0.3716623104094552  0.3529812355279418  0.4162688858978995  1.0000
  P   P4        1.0  0.8716607372177805  0.3529812355279418  0.08373048220254727  1.0000
  P   P5        1.0  0.31564993268728603  0.5622071963079307  0.21236627425704305  1.0000
  P   P6        1.0  0.8156507423070352  0.5622071963079307  0.2876324619438506  1.0000
  P   P7        1.0  0.6843480239156462  0.43779333259357867  0.7876337257429566  1.0000
  P   P8        1.0  0.18434840570160563  0.43779333259357867  0.7123669061565963  1.0000
  H   H1        1.0  0.4302406626327198  0.6266456432210177  0.6826284493816883  1.0000
  H   H2        1.0  0.9302402808467604  0.6266456432210177  0.8173709187187581  1.0000
  H   H3        1.0  0.5697592691349911  0.3733539173511105  0.3173709187187583  1.0000
  H   H4        1.0  0.069758459515235  0.3733539173511105  0.18262844938168846  1.0000
  H   H5        1.0  0.80913043174332  0.6435584841699011  0.6805090582800943  1.0000
  H   H6        1.0  0.3091308135292863  0.6435584841699011  0.8194909417199054  1.0000
  H   H7        1.0  0.1908683086186755  0.356441076402227  0.3194915736194587  1.0000
  H   H8        1.0  0.6908679268327163  0.356441076402227  0.18050842638054115  1.0000
  H   H9        1.0  0.519954659683691  0.4833755014923895  0.1911180198795606  1.0000
  H   H10       1.0  0.019955041469650294  0.4833755014923895  0.3088813482208862  1.0000
  H   H11       1.0  0.4800444883249568  0.5166250274091198  0.8088813482208861  1.0000
  H   H12       1.0  0.9800436988923522  0.5166240590797386  0.6911180198795603  1.0000
  H   H13       1.0  0.8734546813279922  0.8524445613375492  0.3108263350457818  1.0000
  H   H14       1.0  0.3734542793548812  0.8524455296669302  0.18917303305466496  1.0000
  H   H15       1.0  0.1265460657330166  0.1475569358933342  0.6891730330546648  1.0000
  H   H16       1.0  0.626545276300412  0.1475559675639531  0.8108257031462285  1.0000
  H   H17       1.0  0.0037600123010576997  0.0943462681398799  0.290429249366518  1.0000
  H   H18       1.0  0.5037600381617439  0.094347236469261  0.2095707506334819  1.0000
  H   H19       1.0  0.9962391357075903  0.9056542607616294  0.7095707506334816  1.0000
  H   H20       1.0  0.4962403012526126  0.9056532924322482  0.7904286174669648  1.0000
  H   H21       1.0  0.8291936216493028  0.2366548587942958  0.3264266712163462  1.0000
  H   H22       1.0  0.32919362732284435  0.23665679545305807  0.17357332878365375  1.0000
  H   H23       1.0  0.1708067177650534  0.7633456701072063  0.6735726968841005  1.0000
  H   H24       1.0  0.6708083111438726  0.7633447017778252  0.8264273031158991  1.0000
  H   H25       1.0  0.5419083548159733  0.1366303071708401  0.38089009371070387  1.0000
  H   H26       1.0  0.04190676143715421  0.1366312755002141  0.11911117008840218  1.0000
  H   H27       1.0  0.45809038554602927  0.8633692534012881  0.6191092743897428  1.0000
  H   H28       1.0  0.958092794218139  0.8633702217306691  0.8808907256102569  1.0000
  H   H29       1.0  0.2886765566440417  0.0339273564826428  0.4115372220431865  1.0000
  H   H30       1.0  0.788677773910436  0.0339283248120239  0.0884627779568135  1.0000
  H   H31       1.0  0.7113225598303786  0.9660702674307231  0.5884646736554726  1.0000
  H   H32       1.0  0.2113225655039201  0.9660722040894854  0.9115359582440802  1.0000
  H   H33       1.0  0.008366462049920594  0.8990725259666235  0.4688479839244763  1.0000
  H   H34       1.0  0.508366895557252  0.8990744626253857  0.03115391177418299  1.0000
  H   H35       1.0  0.9916342219426327  0.1009231612879873  0.5311551755732891  1.0000
  H   H36       1.0  0.49163463526281964  0.1009260662761235  0.9688448244267105  1.0000
  H   H37       1.0  0.9583422743592109  0.6666976830313658  0.50081704612235  1.0000
  H   H38       1.0  0.458339521108904  0.6667015563488903  0.9991848495763092  1.0000
  H   H39       1.0  0.04166235996289909  0.3332960675644827  0.499183585777203  1.0000
  H   H40       1.0  0.5416580278473759  0.3332980042232379  0.0008170461223499998  1.0000
  H   H41       1.0  0.19245549493229672  0.5735201884529957  0.4730589625473128  1.0000
  H   H42       1.0  0.6924519465758436  0.5735211567823768  0.026940405553133893  1.0000
  H   H43       1.0  0.807551177623047  0.4264784037897514  0.5269391417540275  1.0000
  H   H44       1.0  0.3075472014328042  0.4264793721191324  0.9730621220450784  1.0000
  C   C1        1.0  0.806238259357805  0.9200814001923661  0.3258251028416552  1.0000
  C   C2        1.0  0.3062390487904167  0.9200823685217472  0.1741748971583448  1.0000
  C   C3        1.0  0.1937612962974882  0.0799200970385172  0.6741748971583446  1.0000
  C   C4        1.0  0.6937616982705919  0.0799191287091361  0.825825102841655  1.0000
  C   C5        1.0  0.8756708108167572  0.0531506313319028  0.3136521898479003  1.0000
  C   C6        1.0  0.3756704088436535  0.0531515996612839  0.18634844205165274  1.0000
  C   C7        1.0  0.12432952859759888  0.9468498975696065  0.6863471782525465  1.0000
  C   C8        1.0  0.6243299305707026  0.9468489292402253  0.8136521898479001  1.0000
  C   C9        1.0  0.7792382991221487  0.1318322350935617  0.3338420124736955  1.0000
  C   C10       1.0  0.27923789714904507  0.1318332034229428  0.1661586194258575  1.0000
  C   C11       1.0  0.2207608488864921  0.8681682938079476  0.666157355626751  1.0000
  C   C12       1.0  0.7207628499119636  0.8681682938079476  0.8338432762728016  1.0000
  C   C13       1.0  0.6169115353181098  0.07522466787551  0.3651507396384304  1.0000
  C   C14       1.0  0.1169111333450061  0.0752256362048911  0.1348505241606759  1.0000
  C   C15       1.0  0.3830883964496011  0.9247748926966183  0.6348486284620165  1.0000
  C   C16       1.0  0.883088422310287  0.9247758610259993  0.8651513715379833  1.0000
  C   C17       1.0  0.5552764944795783  0.9413284834455666  0.3766576305030539  1.0000
  C   C18       1.0  0.055274901100759125  0.9413294517749407  0.12334236949694598  1.0000
  C   C19       1.0  0.4447238449347779  0.058672045455942595  0.6233417375973929  1.0000
  C   C20       1.0  0.944724654554534  0.058672045455942595  0.8766582624026069  1.0000
  C   C21       1.0  0.3857996211623913  0.8724570246314087  0.4106734153538979  1.0000
  C   C22       1.0  0.8857980479707167  0.8724570246314087  0.08932721654565508  1.0000
  C   C23       1.0  0.6142026934167433  0.1275425359407194  0.5893272165456549  1.0000
  C   C24       1.0  0.1142011000379242  0.1275435042701005  0.9106734153538978  1.0000
  C   C25       1.0  0.2630980843542972  0.9315183384980584  0.4250630319804357  1.0000
  C   C26       1.0  0.7630981102149832  0.9315193068274397  0.0749375999191173  1.0000
  C   C27       1.0  0.736900248361053  0.0684802537446885  0.5749388637182236  1.0000
  C   C28       1.0  0.2368998463879493  0.0684812220740696  0.9250617681813293  1.0000
  C   C29       1.0  0.10740315072555262  0.8567710570068313  0.45732339987235787  1.0000
  C   C30       1.0  0.6074031765862387  0.8567720253362056  0.04267849582630129  1.0000
  C   C31       1.0  0.8925983485602914  0.1432265669065416  0.5426791277258542  1.0000
  C   C32       1.0  0.39259637906905454  0.1432294718946778  0.9573215041736984  1.0000
  C   C33       1.0  0.07847998102425179  0.726619841716726  0.4755707632714702  1.0000
  C   C34       1.0  0.5784772164268688  0.726619841716726  0.024431132427189094  1.0000
  C   C35       1.0  0.9215227096673004  0.2733777821966399  0.5244311324271891  1.0000
  C   C36       1.0  0.42152230769419674  0.273378750526021  0.975570131371917  1.0000
  C   C37       1.0  0.2062584505017355  0.6742128873485669  0.4599691633017996  1.0000
  C   C38       1.0  0.7062565011976432  0.6742148240073291  0.0400314685977534  1.0000
  C   C39       1.0  0.7937474067603105  0.3257837682354179  0.5400308366982001  1.0000
  C   C40       1.0  0.2937426468110047  0.3257857048941801  0.9599697952013526  1.0000
  N   N1        1.0  0.6509507388991409  0.8666586683047229  0.3575325586244843  1.0000
  N   N2        1.0  0.1509503369260372  0.866659636634104  0.1424674413755156  1.0000
  N   N3        1.0  0.3490507919209307  0.1333418605967864  0.6424668094759622  1.0000
  N   N4        1.0  0.8490492187292559  0.1333418605967864  0.8575325586244842  1.0000
  N   N5        1.0  0.354594537262841  0.7453812234517869  0.4273618825551465  1.0000
  N   N6        1.0  0.8545917726654579  0.7453812234517869  0.0726381174448534  1.0000
  N   N7        1.0  0.645408968722009  0.2546183371203412  0.5726381174448534  1.0000
  N   N8        1.0  0.14540737534318993  0.2546193054497223  0.9273618825551464  1.0000
  O   O1        1.0  0.4374079510031308  0.6544308864471233  0.2734949732390533  1.0000
  O   O2        1.0  0.9374067854581013  0.6544318547765045  0.22650439486139354  1.0000
  O   O3        1.0  0.5625923884112254  0.3455696424543859  0.7265043948613934  1.0000
  O   O4        1.0  0.06259277019719182  0.3455696424543859  0.7734956051386062  1.0000
  O   O5        1.0  0.6550277374260035  0.7187105273419192  0.5000764598459426  1.0000
  O   O6        1.0  0.15502692780624733  0.7187105273419192  0.999922908254504  1.0000
  O   O7        1.0  0.3449737933940682  0.2812900015595901  0.4999229082545042  1.0000
  O   O8        1.0  0.8449722202024005  0.2812900015595901  7.645984594259997e-05  1.0000
  O   O9        1.0  0.594294200622933  0.5013564097472667  0.5787258377408334  1.0000
  O   O10       1.0  0.094293391003184  0.5013564097472667  0.9212741622591663  1.0000
  O   O11       1.0  0.40570692255049323  0.4986431508248614  0.4212735303596132  1.0000
  O   O12       1.0  0.9057057570054637  0.4986441191542426  0.0787252058412804  1.0000
  O   O13       1.0  0.2457230267603734  0.6352918562539145  0.1477008334755112  1.0000
  O   O14       1.0  0.7457222373277688  0.6352908879245334  0.3522991665244888  1.0000
  O   O15       1.0  0.7542765288949198  0.3647096409769688  0.8522997984240417  1.0000
  O   O16       1.0  0.2542781020865874  0.3647096409769688  0.6477002015759581  1.0000
  O   O17       1.0  0.4819434683740483  0.680843038612565  0.6306060548615162  1.0000
  O   O18       1.0  0.9819418951823735  0.680843038612565  0.8693939451384833  1.0000
  O   O19       1.0  0.5180564633936626  0.3191565219595631  0.36939331323893027  1.0000
  O   O20       1.0  0.01805725282626721  0.3191574902889442  0.1306060548615164  1.0000
  O   O21       1.0  0.7954814656208596  0.7087686895987488  0.6366457507914518  1.0000
  O   O22       1.0  0.29548143976017366  0.7087677212693748  0.863354249208548  1.0000
  O   O23       1.0  0.2045176823877881  0.2912318393027533  0.3633548811081012  1.0000
  O   O24       1.0  0.7045161091961134  0.2912318393027533  0.1366451188918987  1.0000
  O   O25       1.0  0.4153546399355151  0.4860316289813796  0.15985226188445265  1.0000
  O   O26       1.0  0.915354258149556  0.4860316289813796  0.3401483700151004  1.0000
  O   O27       1.0  0.5846441004264804  0.5139679315907486  0.8401477381155473  1.0000
  O   O28       1.0  0.08464488985909212  0.5139688999201226  0.6598516299848995  1.0000
  O   O29       1.0  0.1665609790054674  0.4570243540778804  0.2570200880867972  1.0000
  O   O30       1.0  0.6665605972195081  0.4570243540778804  0.24297991191320276  1.0000
  O   O31       1.0  0.8334381690031805  0.5429761748236288  0.7429799119132028  1.0000
  O   O32       1.0  0.3334401498415005  0.5429771431530099  0.757020088086797  1.0000
