data_image0
_chemical_formula_structural       Al2H36C42N18O12
_chemical_formula_sum              "Al2 H36 C42 N18 O12"
_cell_length_a       3.9295734200717547
_cell_length_b       27.970403560995535
_cell_length_c       27.97035423460193
_cell_angle_alpha    120.00009190953978
_cell_angle_beta     90.00065976028293
_cell_angle_gamma    89.99947332688943

_space_group_name_H-M_alt    "P 1"
_space_group_IT_number       1

loop_
  _space_group_symop_operation_xyz
  'x, y, z'

loop_
  _atom_site_type_symbol
  _atom_site_label
  _atom_site_symmetry_multiplicity
  _atom_site_fract_x
  _atom_site_fract_y
  _atom_site_fract_z
  _atom_site_occupancy
  Al  Al1       1.0  0.9886047612593102  0.49999940500597984  0.5000009409698123  1.0000
  Al  Al2       1.0  0.9268442624910023  0.16666603068212277  0.8333340393424821  1.0000
  H   H1        1.0  0.15526320896184842  0.19004690704286284  0.7011702431578472  1.0000
  H   H2        1.0  0.17474493301716623  0.24357055180205142  0.6509585021435459  1.0000
  H   H3        1.0  0.7158995237452361  0.2929703717022322  0.5467655601220188  1.0000
  H   H4        1.0  0.17196138150350046  0.42211348940985266  0.6837277177851818  1.0000
  H   H5        1.0  0.1552558449071029  0.011124942755898856  0.8099541324766903  1.0000
  H   H6        1.0  0.1747118005883905  0.9073904596829507  0.7564317963910341  1.0000
  H   H7        1.0  0.7158627044297602  0.7537952018168995  0.7070281085138179  1.0000
  H   H8        1.0  0.1719024221783911  0.7616075482321706  0.5778832327597669  1.0000
  H   H9        1.0  0.15528411078071264  0.29882929709973655  0.9888781642978588  1.0000
  H   H10       1.0  0.17474647057793652  0.34904029693684185  0.09261286313613235  1.0000
  H   H11       1.0  0.7158920018757513  0.45323356464007253  0.24620722854695742  1.0000
  H   H12       1.0  0.17196444575709793  0.31627284635970915  0.23838890696259102  1.0000
  H   H13       1.0  0.7683531276694637  0.30141457229174784  0.865268968977546  1.0000
  H   H14       1.0  0.7689593779307698  0.36565942275530017  0.869890534215074  1.0000
  H   H15       1.0  0.7657246942064263  0.40122365334712384  0.7691627499153101  1.0000
  H   H16       1.0  0.9871224680682218  0.38699285725311955  0.8121549052970709  1.0000
  H   H17       1.0  0.8758148083378787  0.3731530518897871  0.4809958034493321  1.0000
  H   H18       1.0  0.9650606571777871  0.31425747529793574  0.4833344665561939  1.0000
  H   H19       1.0  0.09385590374181871  0.5077384079767455  0.6220099795524447  1.0000
  H   H20       1.0  0.9724372650638389  0.4964472070335619  0.674567457008884  1.0000
  H   H21       1.0  0.7683593152498176  0.06384760478057672  0.6985821273953833  1.0000
  H   H22       1.0  0.7689821479562087  0.004221906859946478  0.6343380326485644  1.0000
  H   H23       1.0  0.7657199064171325  0.8679330669640708  0.5987796790643076  1.0000
  H   H24       1.0  0.9871370134710418  0.9251543059767329  0.6130119888046366  1.0000
  H   H25       1.0  0.8758333092846159  0.607844011034409  0.6268456458030371  1.0000
  H   H26       1.0  0.9650723744555237  0.6690798816035797  0.685741341630518  1.0000
  H   H27       1.0  0.09384192396168342  0.6142668900206445  0.492257909392933  1.0000
  H   H28       1.0  0.9723961751476154  0.6781135338658046  0.5035489306737944  1.0000
  H   H29       1.0  0.7683641563708079  0.13473200127151624  0.9361511930524177  1.0000
  H   H30       1.0  0.7689698783002968  0.13011134796259707  0.9957759390222524  1.0000
  H   H31       1.0  0.7657144074264438  0.23083909546783596  0.13206684844854522  1.0000
  H   H32       1.0  0.9871293860163279  0.1878480230845625  0.07484610641074603  1.0000
  H   H33       1.0  0.8758190077223135  0.519003621255614  0.39216021566511483  1.0000
  H   H34       1.0  0.9650654445124262  0.5166644291096533  0.3309255640326115  1.0000
  H   H35       1.0  0.09385308369611783  0.3779897445670315  0.3857300126155324  1.0000
  H   H36       1.0  0.9724259548591618  0.3254329922007316  0.3218823195631515  1.0000
  C   C1        1.0  0.4858711446072307  0.4594901703707778  0.41337024051774324  1.0000
  C   C2        1.0  0.48586891894986195  0.4538780746490759  0.54051058881241  1.0000
  C   C3        1.0  0.4858672556501844  0.5866299048091792  0.546122958806457  1.0000
  C   C4        1.0  0.4280134543859547  0.21630942509702328  0.7976265100370058  1.0000
  C   C5        1.0  0.42800467164071415  0.08131406485100003  0.7836900367128194  1.0000
  C   C6        1.0  0.42801634696976276  0.20237427162994268  0.9186875209445733  1.0000
  C   C7        1.0  0.4494512091211648  0.24945362932919585  0.7702726260491846  1.0000
  C   C8        1.0  0.28909901195948623  0.22928366059829147  0.7183310959319587  1.0000
  C   C9        1.0  0.29702651852031176  0.25857192943123425  0.6908610845029843  1.0000
  C   C10       1.0  0.45761321088298973  0.31075377481295885  0.7159825625856373  1.0000
  C   C11       1.0  0.6096514893041702  0.3328497023229389  0.7685372469058154  1.0000
  C   C12       1.0  0.6134759609294279  0.3014185290306842  0.7958806235279925  1.0000
  C   C13       1.0  0.6010442401768118  0.3338943449637028  0.5660216847630154  1.0000
  C   C14       1.0  0.4475557110593727  0.3550492722724032  0.6176738807407817  1.0000
  C   C15       1.0  0.3010760471922893  0.4075881708623685  0.6443773968772393  1.0000
  C   C16       1.0  0.2997073620511231  0.4396802518430789  0.6187699399586108  1.0000
  C   C17       1.0  0.47409377125828916  0.42029453511135284  0.5670346092247345  1.0000
  C   C18       1.0  0.6332517366350248  0.36687079509752635  0.541572749249447  1.0000
  C   C19       1.0  0.44944531955459877  0.020817112898960557  0.7505471388832134  1.0000
  C   C20       1.0  0.2890910292110149  0.98904722088799  0.7707165860127889  1.0000
  C   C21       1.0  0.297003524492105  0.9322901647333667  0.7414304062442342  1.0000
  C   C22       1.0  0.4575769678379801  0.9052253645157651  0.6892462714282959  1.0000
  C   C23       1.0  0.609634804320301  0.935683349410411  0.6671499618556069  1.0000
  C   C24       1.0  0.6134767861918252  0.9944568856445176  0.6985797869364136  1.0000
  C   C25       1.0  0.6010019527552045  0.7321245727306691  0.6661037860779261  1.0000
  C   C26       1.0  0.4474999421900209  0.7626217414184283  0.6449492261163245  1.0000
  C   C27       1.0  0.3010043756285158  0.736787286879732  0.5924069875432068  1.0000
  C   C28       1.0  0.2996689643376629  0.6790852183893464  0.5603197025330006  1.0000
  C   C29       1.0  0.47406381715635604  0.6467358189593784  0.5797033770908585  1.0000
  C   C30       1.0  0.6332273904634746  0.6747017216503511  0.6331295067194918  1.0000
  C   C31       1.0  0.4494629925332844  0.22972767435602062  0.9791829553157357  1.0000
  C   C32       1.0  0.28911656274460296  0.28166966295149365  0.010954219161249123  1.0000
  C   C33       1.0  0.2970246857842652  0.3091397625279839  0.06771339671193737  1.0000
  C   C34       1.0  0.457608952886119  0.2840174955680581  0.09477500916609927  1.0000
  C   C35       1.0  0.6096590422810523  0.23146272952483574  0.06431621828139807  1.0000
  C   C36       1.0  0.613495109646543  0.20411953743032296  0.005543849776493911  1.0000
  C   C37       1.0  0.601033739909717  0.4339777523879961  0.26787634323989823  1.0000
  C   C38       1.0  0.4475544507255337  0.38232713058712164  0.23737850128226512  1.0000
  C   C39       1.0  0.30105958711433095  0.3556197129875613  0.2632121773399305  1.0000
  C   C40       1.0  0.2997072638120599  0.38123079997021153  0.32091296881039716  1.0000
  C   C41       1.0  0.47409220336938074  0.43296489102295527  0.35326368882954295  1.0000
  C   C42       1.0  0.6332499732486383  0.45842679254056423  0.3252998130409567  1.0000
  N   N1        1.0  0.47990869637353484  0.34434505308610885  0.692190142240307  1.0000
  N   N2        1.0  0.4422544382516095  0.3198046133740392  0.6401601247056947  1.0000
  N   N3        1.0  0.47985473415565855  0.8478437916699167  0.6556543843997603  1.0000
  N   N4        1.0  0.44218081586782193  0.8203517418084516  0.6801940996335248  1.0000
  N   N5        1.0  0.4798928307038325  0.3078090636209083  0.1521573515074692  1.0000
  N   N6        1.0  0.4422418227834087  0.35983912536453033  0.17964718176326502  1.0000
  N   N7        1.0  0.7784188283630089  0.3239801016738043  0.8459017571757104  1.0000
  N   N8        1.0  0.7557659155890023  0.38516317190823923  0.7948063096827981  1.0000
  N   N9        1.0  0.7976601156121037  0.34499636662967265  0.4915145601193063  1.0000
  N   N10       1.0  0.15058879790037594  0.4911093686813431  0.6461041610798335  1.0000
  N   N11       1.0  0.7784143171439126  0.021914471330355175  0.6760176915275765  1.0000
  N   N12       1.0  0.7557562580157225  0.909637031662925  0.6148382812318687  1.0000
  N   N13       1.0  0.7976669271087006  0.6465182873045666  0.6550014012727278  1.0000
  N   N14       1.0  0.15054969076169297  0.6549887838970818  0.5088867436986746  1.0000
  N   N15       1.0  0.7784299365257611  0.1541004070099563  0.9780849098354668  1.0000
  N   N16       1.0  0.7557633627703881  0.2051960894210084  0.09036348375540375  1.0000
  N   N17       1.0  0.7976642499104402  0.5084851247242669  0.3534858116003435  1.0000
  N   N18       1.0  0.1505886553367759  0.35389616372871313  0.345008497894142  1.0000
  O   O1        1.0  0.7232276009021564  0.5597699547181848  0.5546414829201753  1.0000
  O   O2        1.0  0.7232199829162838  0.49486970074397635  0.44023170937321526  1.0000
  O   O3        1.0  0.7232344826174142  0.44536023153875703  0.5051305390086682  1.0000
  O   O4        1.0  0.2583635003803195  0.5608433127615413  0.5083363935113497  1.0000
  O   O5        1.0  0.25836508267853014  0.49166172868668667  0.5525095434080711  1.0000
  O   O6        1.0  0.2583593597206431  0.44749066200162  0.4391543373821564  1.0000
  O   O7        1.0  0.6535675862637901  0.16563323657801032  0.8897326296679752  1.0000
  O   O8        1.0  0.6535506338681856  0.224096821203382  0.8343671262306033  1.0000
  O   O9        1.0  0.6535520388480549  0.11026715550114136  0.7759015226709424  1.0000
  O   O10       1.0  0.18668601154296033  0.2159750077772174  0.8970938855978832  1.0000
  O   O11       1.0  0.18669421465747152  0.10290759754428783  0.8188844549905385  1.0000
  O   O12       1.0  0.18667744417228258  0.181115995473519  0.7840246334484179  1.0000
