data_image0
_chemical_formula_structural       Cu2H16C24N4Cl4
_chemical_formula_sum              "Cu2 H16 C24 N4 Cl4"
_cell_length_a       6.022436350388802
_cell_length_b       6.95549499832093
_cell_length_c       12.980722125764347
_cell_angle_alpha    90.00924759565264
_cell_angle_beta     90.00101897041525
_cell_angle_gamma    90.00290840538328

_space_group_name_H-M_alt    "P 1"
_space_group_IT_number       1

loop_
  _space_group_symop_operation_xyz
  'x, y, z'

loop_
  _atom_site_type_symbol
  _atom_site_label
  _atom_site_symmetry_multiplicity
  _atom_site_fract_x
  _atom_site_fract_y
  _atom_site_fract_z
  _atom_site_occupancy
  Cu  Cu1       1.0  3.390882247340001e-05  0.5000035341280695  0.9999907039829239  1.0000
  Cu  Cu2       1.0  0.5000050504397464  0.4999945211354132  0.5000048902333063  1.0000
  H   H1        1.0  0.32738233443222947  0.3587797209286735  0.1073484107168241  1.0000
  H   H2        1.0  0.6726168780931231  0.3586816254904122  0.8926919257714803  1.0000
  H   H3        1.0  0.8273881220904826  0.6412811289385091  0.3927136190188065  1.0000
  H   H4        1.0  0.17261128443725943  0.6413103815935417  0.6073426457928761  1.0000
  H   H5        1.0  0.6727058073882475  0.6412136320114572  0.8926313256543993  1.0000
  H   H6        1.0  0.327406506100523  0.6413117271766142  0.10729782522030008  1.0000
  H   H7        1.0  0.1726485480612254  0.35876830291024936  0.6073277493676557  1.0000
  H   H8        1.0  0.8272842453408416  0.3587332857077358  0.39263632162322193  1.0000
  H   H9        1.0  0.6172168181707036  0.181653034546379  0.1990426357461175  1.0000
  H   H10       1.0  0.38280155247476705  0.18149851305820872  0.800970558662904  1.0000
  H   H11       1.0  0.11713242391353158  0.8184218007784169  0.3009840009168059  1.0000
  H   H12       1.0  0.8828195947516235  0.8184723062652781  0.6990162052702331  1.0000
  H   H13       1.0  0.3828530589851482  0.8183475079963713  0.8009471157118996  1.0000
  H   H14       1.0  0.6172201713311836  0.8185005900511656  0.1990168814439244  1.0000
  H   H15       1.0  0.882786352387754  0.18159455556192242  0.6990265507399371  1.0000
  H   H16       1.0  0.11710416241700727  0.18155842158533636  0.3009573690931262  1.0000
  C   C1        1.0  0.1572801983677437  0.10438183270368744  0.05210372170402171  1.0000
  C   C2        1.0  0.8427648307967175  0.10434073050917193  0.9478814445926602  1.0000
  C   C3        1.0  0.6572658219939385  0.8956420735245417  0.4479139539544477  1.0000
  C   C4        1.0  0.3427408996207361  0.8956378884856165  0.5521119677116388  1.0000
  C   C5        1.0  0.8427714142846482  0.8956560880423866  0.9478744756544657  1.0000
  C   C6        1.0  0.15724527032600116  0.8956655634692655  0.0521229439831927  1.0000
  C   C7        1.0  0.3427210327030323  0.1043311572096002  0.5521212480827558  1.0000
  C   C8        1.0  0.6572509352317937  0.10431808373058261  0.44788394458999653  1.0000
  C   C9        1.0  0.3265803745481008  0.20241117137926784  0.10688349696009421  1.0000
  C   C10       1.0  0.6733824114965046  0.202388022480001  0.8931345203237344  1.0000
  C   C11       1.0  0.8265910595859295  0.7976036208493585  0.39314231761604657  1.0000
  C   C12       1.0  0.1733816747956283  0.7976212816598508  0.6069069907923109  1.0000
  C   C13       1.0  0.6734380283313469  0.7975994315361846  0.8930923880182605  1.0000
  C   C14       1.0  0.3266276896988032  0.797629771997656  0.1068621650013455  1.0000
  C   C15       1.0  0.17335262401464754  0.20241992679375198  0.6068813307739873  1.0000
  C   C16       1.0  0.8266035201458024  0.20238070399068425  0.3931328346804364  1.0000
  C   C17       1.0  0.4876454548968354  0.10217500915159411  0.158820749130598  1.0000
  C   C18       1.0  0.5123762349023905  0.10208920975055243  0.8411765566190256  1.0000
  C   C19       1.0  0.9876016117400751  0.8977985711972779  0.3412116033362267  1.0000
  C   C20       1.0  0.012371991911201998  0.8978333460594004  0.658822974302538  1.0000
  C   C21       1.0  0.5123945329115359  0.8977924621689228  0.8411497415088222  1.0000
  C   C22       1.0  0.4876554515092124  0.8978983926619295  0.15881550528136762  1.0000
  C   C23       1.0  0.0123387498866023  0.10214303142988973  0.6588420861688532  1.0000
  C   C24       1.0  0.9875965956803298  0.1020809319651548  0.34117370654595197  1.0000
  N   N1        1.0  1.08792814117e-05  0.20264409870743094  7.703636114800002e-06  1.0000
  N   N2        1.0  0.4999680968395025  0.7973737881738149  0.5000096218821426  1.0000
  N   N3        1.0  1.5219642833100003e-05  0.7973655473386717  0.9999838793777728  1.0000
  N   N4        1.0  0.49995400106919163  0.20266844815888874  0.5000078642271718  1.0000
  Cl  Cl1       1.0  0.15668472774289202  0.49993920694347344  0.8445145462757041  1.0000
  Cl  Cl2       1.0  0.8433685446994303  0.5000627716434778  0.1554675014515396  1.0000
  Cl  Cl3       1.0  0.656665968363285  0.49998863426286283  0.6554867830345615  1.0000
  Cl  Cl4       1.0  0.34333084868855923  0.49999321895143123  0.34452222671094995  1.0000
