data_image0
_chemical_formula_structural       Zn4H40C72N8O16
_chemical_formula_sum              "Zn4 H40 C72 N8 O16"
_cell_length_a       7.47870789405986
_cell_length_b       13.04041773956687
_cell_length_c       16.730507644118997
_cell_angle_alpha    102.46008995927772
_cell_angle_beta     90.0002153404344
_cell_angle_gamma    90.00034687661953

_space_group_name_H-M_alt    "P 1"
_space_group_IT_number       1

loop_
  _space_group_symop_operation_xyz
  'x, y, z'

loop_
  _atom_site_type_symbol
  _atom_site_label
  _atom_site_symmetry_multiplicity
  _atom_site_fract_x
  _atom_site_fract_y
  _atom_site_fract_z
  _atom_site_occupancy
  Zn  Zn1       1.0  0.5354682504145885  0.9342212140216049  0.7628135832929105  1.0000
  Zn  Zn2       1.0  0.03544939517641409  0.0657707128942064  0.7371775653738766  1.0000
  Zn  Zn3       1.0  0.4645508373549844  0.0657753880970517  0.2371859887645869  1.0000
  Zn  Zn4       1.0  0.9645335900679725  0.9342251237164163  0.2628153017410995  1.0000
  H   H1        1.0  0.4046076862304488  0.09827576083631581  0.9206993708939707  1.0000
  H   H2        1.0  0.9045511206233884  0.9017216081328953  0.5792981041329881  1.0000
  H   H3        1.0  0.5954421555602849  0.9017255407293377  0.0793051837296233  1.0000
  H   H4        1.0  0.09541314489374028  0.09828284367327457  0.4207039971644093  1.0000
  H   H5        1.0  0.21979399520731846  0.09366476057282819  0.04480543019482039  1.0000
  H   H6        1.0  0.719736614645285  0.9063410412169972  0.4551891755766277  1.0000
  H   H7        1.0  0.7802625322274961  0.9063373317784668  0.9551974656727538  1.0000
  H   H8        1.0  0.28023968502755275  0.0936665718913474  0.5448068880836985  1.0000
  H   H9        1.0  0.1051569696792214  0.9209382749622537  0.06507506981012771  1.0000
  H   H10       1.0  0.6051147864014152  0.07907567421926129  0.4349261073047828  1.0000
  H   H11       1.0  0.8948848493746909  0.07907088543738178  0.9349290270864685  1.0000
  H   H12       1.0  0.39485883903920177  0.9209342858603337  0.5650733437238742  1.0000
  H   H13       1.0  0.17074739871416963  0.7595978366908084  0.9593773307957748  1.0000
  H   H14       1.0  0.6707303529324092  0.24040954705504447  0.5406250395453965  1.0000
  H   H15       1.0  0.8292676777219368  0.24040582444887093  0.040626429326159993  1.0000
  H   H16       1.0  0.32924193537722596  0.7595980479460136  0.45937699815548416  1.0000
  H   H17       1.0  0.3043870505105914  0.6234973409581457  0.8722564595537605  1.0000
  H   H18       1.0  0.804382862862731  0.3765074535063135  0.627746292966755  1.0000
  H   H19       1.0  0.6956133174949313  0.3765063255807491  0.12774550833704273  1.0000
  H   H20       1.0  0.1955947740027995  0.6235040573569108  0.3722599964157922  1.0000
  H   H21       1.0  0.502175142152275  0.5516489769613457  0.6227967071967555  1.0000
  H   H22       1.0  0.0021909003018408  0.44833963085663  0.8772069712515106  1.0000
  H   H23       1.0  0.4978145287832446  0.4483484050087512  0.3772047904888964  1.0000
  H   H24       1.0  0.9978108047608242  0.5516506794397884  0.12279452021100205  1.0000
  H   H25       1.0  0.2970133129474134  0.4142375450715576  0.6232088778941859  1.0000
  H   H26       1.0  0.7970775941845075  0.585760894609919  0.8768065298384612  1.0000
  H   H27       1.0  0.7029536268807985  0.5857668687323141  0.3768057689016189  1.0000
  H   H28       1.0  0.20297091046616336  0.41423568223113705  0.12320140591757679  1.0000
  H   H29       1.0  0.2962808991448681  0.2253100301750308  0.6207123525780035  1.0000
  H   H30       1.0  0.7963284686230027  0.7746907859912612  0.8792956874787663  1.0000
  H   H31       1.0  0.7036847035312518  0.7746951888770326  0.37929585621594  1.0000
  H   H32       1.0  0.20371067613275065  0.22531051555223058  0.12070886713207331  1.0000
  H   H33       1.0  0.5223212688208249  0.28411038772004826  0.8629087892220895  1.0000
  H   H34       1.0  0.022281670718484695  0.7158830499195402  0.6370843871942425  1.0000
  H   H35       1.0  0.4776884590481173  0.7158862107594218  0.13709197763331815  1.0000
  H   H36       1.0  0.9776852689209574  0.2841065147804827  0.3629038278774672  1.0000
  H   H37       1.0  0.5040557846235102  0.47628570824854677  0.8699564749930744  1.0000
  H   H38       1.0  0.0040448601690386  0.5237068521178968  0.6300419011090383  1.0000
  H   H39       1.0  0.4959472576141053  0.5237093014339108  0.13004999900047653  1.0000
  H   H40       1.0  0.9959434735749679  0.47628347624978323  0.3699536162922001  1.0000
  C   C1        1.0  0.3519993289944735  0.024878197498637192  0.9318840584594312  1.0000
  C   C2        1.0  0.8519514645126519  0.9751221002510563  0.5681120327597782  1.0000
  C   C3        1.0  0.6480398157200893  0.975119978965559  0.0681145857121308  1.0000
  C   C4        1.0  0.14802082375419448  0.024880004594948  0.431886681175655  1.0000
  C   C5        1.0  0.250127549625887  0.021641124343581498  0.0009173536637305993  1.0000
  C   C6        1.0  0.750091351080151  0.9783640269151024  0.49907420396701957  1.0000
  C   C7        1.0  0.7499062465796767  0.9783609896793736  0.999078373322341  1.0000
  C   C8        1.0  0.24988895998549757  0.0216443715436441  0.500921993147699  1.0000
  C   C9        1.0  0.1867203265222841  0.9255519425601976  0.01204052432245107  1.0000
  C   C10       1.0  0.6866812130733562  0.074456063740584  0.4879591822179065  1.0000
  C   C11       1.0  0.8133121326091552  0.074455652565554  0.9879615134501522  1.0000
  C   C12       1.0  0.31329374949004307  0.9255515348858124  0.5120416606770988  1.0000
  C   C13       1.0  0.22535345737827575  0.8348948997462455  0.9530060291436584  1.0000
  C   C14       1.0  0.7253289872822106  0.16510958522002284  0.5469905609143098  1.0000
  C   C15       1.0  0.7746656304307037  0.1651095612230193  0.046993085196398  1.0000
  C   C16       1.0  0.27464196388339696  0.8348972316757681  0.45300895371723016  1.0000
  C   C17       1.0  0.32764629290319647  0.8440391657173691  0.8852074257804645  1.0000
  C   C18       1.0  0.8276249686474416  0.1559633889922196  0.6147884103641559  1.0000
  C   C19       1.0  0.6723714577598584  0.15596294103274738  0.1147906908046181  1.0000
  C   C20       1.0  0.17234598251288696  0.8440442204852517  0.3852088480988627  1.0000
  C   C21       1.0  0.3720663119726026  0.754390198258612  0.8172926735255999  1.0000
  C   C22       1.0  0.872058533547097  0.2456070359438129  0.682704723990355  1.0000
  C   C23       1.0  0.6279434159029262  0.2456087616768202  0.1827067014650581  1.0000
  C   C24       1.0  0.1279164289784944  0.7543950689077407  0.31729398994826147  1.0000
  C   C25       1.0  0.3543648373277008  0.6479880843574152  0.8181465537911593  1.0000
  C   C26       1.0  0.8543715422311635  0.3520137831340334  0.6818533944582086  1.0000
  C   C27       1.0  0.6456355306800247  0.3520163693334695  0.1818549501447322  1.0000
  C   C28       1.0  0.14561411734906216  0.6479890962223962  0.3181490373699773  1.0000
  C   C29       1.0  0.40292734878507  0.5724361000766366  0.7481904245886568  1.0000
  C   C30       1.0  0.9029381084679567  0.42756517248930953  0.7518130904019956  1.0000
  C   C31       1.0  0.5970783677429309  0.42756756285354663  0.251812738117593  1.0000
  C   C32       1.0  0.09706760803601357  0.572436141654194  0.24818728233726253  1.0000
  C   C33       1.0  0.4628600505421615  0.6067067012777018  0.6786340611046668  1.0000
  C   C34       1.0  0.9628737064641797  0.3932877606562927  0.8213654086823041  1.0000
  C   C35       1.0  0.537140317432737  0.39329225501853676  0.3213665086839086  1.0000
  C   C36       1.0  0.0371293357597935  0.6067104139231958  0.17863383285077108  1.0000
  C   C37       1.0  0.4828413576355998  0.7137857707085119  0.6833463489208995  1.0000
  C   C38       1.0  0.9828444878948658  0.2862056362677379  0.8166514398755923  1.0000
  C   C39       1.0  0.517154998910584  0.28620848257635606  0.3166504331425202  1.0000
  C   C40       1.0  0.0171545429338096  0.7137917547712436  0.183347070798547  1.0000
  C   C41       1.0  0.5616330200667928  0.7628438326093417  0.6162316396043792  1.0000
  C   C42       1.0  0.061625217653784085  0.23713641720832612  0.883759361914116  1.0000
  C   C43       1.0  0.43837537072185734  0.2371614064402578  0.3837699977906865  1.0000
  C   C44       1.0  0.9383804987786701  0.7628562726513478  0.11623476364308516  1.0000
  C   C45       1.0  0.3991266275672273  0.4591538413620598  0.7472876537748474  1.0000
  C   C46       1.0  0.8991345749279842  0.5408442686478949  0.7527171105677795  1.0000
  C   C47       1.0  0.6008670548257271  0.5408513777481971  0.2527205550525622  1.0000
  C   C48       1.0  0.1008644559222347  0.4591554729876676  0.2472835926688077  1.0000
  C   C49       1.0  0.3433168467076442  0.3869246500349632  0.6767837218665278  1.0000
  C   C50       1.0  0.843346201190279  0.6130763574145136  0.823225625097578  1.0000
  C   C51       1.0  0.6566701500293631  0.6130782094153702  0.3232252814131371  1.0000
  C   C52       1.0  0.15667556089049836  0.3869265165870317  0.1767785989872408  1.0000
  C   C53       1.0  0.34431511251460734  0.28001914860753635  0.6749657792990007  1.0000
  C   C54       1.0  0.8443375838856609  0.7199826555466728  0.8250413138679561  1.0000
  C   C55       1.0  0.6556638614414678  0.719982925484075  0.3250430905214828  1.0000
  C   C56       1.0  0.15568016679453925  0.2800202274960455  0.17495992318941228  1.0000
  C   C57       1.0  0.4103319427120055  0.24205485921942946  0.7414613109944028  1.0000
  C   C58       1.0  0.9103368737933619  0.7579417410197495  0.7585384339193268  1.0000
  C   C59       1.0  0.5896644139181573  0.7579480092997813  0.25854470527374224  1.0000
  C   C60       1.0  0.08967017977565207  0.24205173237488248  0.24145642249362706  1.0000
  C   C61       1.0  0.4692585662634483  0.31353270558451385  0.8115052449638043  1.0000
  C   C62       1.0  0.9692434391079559  0.6864594322119332  0.6884920474786043  1.0000
  C   C63       1.0  0.5307471502414031  0.6864662416733295  0.188498311853813  1.0000
  C   C64       1.0  0.03074355747326509  0.3135269766821054  0.31150041305482296  1.0000
  C   C65       1.0  0.4587720410053818  0.4210189070126802  0.8151211507277694  1.0000
  C   C66       1.0  0.9587677872151088  0.5789771050058192  0.6848797710015262  1.0000
  C   C67       1.0  0.5412256527088672  0.578978473164149  0.18488094437198302  1.0000
  C   C68       1.0  0.041227232190422576  0.4210140014782197  0.3151182694754339  1.0000
  C   C69       1.0  0.4170410270528393  0.12624297978907612  0.7362567231741722  1.0000
  C   C70       1.0  0.9170432084193719  0.8737513085130428  0.76373726073912  1.0000
  C   C71       1.0  0.5829553295217805  0.8737551965864585  0.2637419209463943  1.0000
  C   C72       1.0  0.0829598337596167  0.1262405887594014  0.2362591209834193  1.0000
  N   N1        1.0  0.3903781732646152  0.9382932855495412  0.8756834159123414  1.0000
  N   N2        1.0  0.8903546002179465  0.061703251840945904  0.6243097099535717  1.0000
  N   N3        1.0  0.6096395773749917  0.06170489449012001  0.1243140334246604  1.0000
  N   N4        1.0  0.10962437369767027  0.9383004291327949  0.3756874786754594  1.0000
  N   N5        1.0  0.43898015384571915  0.7834782411245984  0.7512978634852061  1.0000
  N   N6        1.0  0.9389793077512324  0.21651535275597672  0.7486960392713441  1.0000
  N   N7        1.0  0.5610242254973699  0.21652072965913757  0.2486979270718734  1.0000
  N   N8        1.0  0.061005014660921085  0.7834843997084916  0.2513010795205091  1.0000
  O   O1        1.0  0.5968228708942572  0.8618236545308664  0.6392939636691465  1.0000
  O   O2        1.0  0.09681249716910398  0.1381630274825199  0.8606969945164947  1.0000
  O   O3        1.0  0.40317615997442147  0.138180017434955  0.3607062120064626  1.0000
  O   O4        1.0  0.903186533580289  0.8618265336642067  0.13929241540253653  1.0000
  O   O5        1.0  0.5845601886423709  0.7062758224028656  0.5466640101587501  1.0000
  O   O6        1.0  0.0845589123785828  0.2937068513279116  0.9533364074360691  1.0000
  O   O7        1.0  0.4154401793332524  0.2937278658547982  0.4533307888776362  1.0000
  O   O8        1.0  0.9154575010510511  0.7062803447790745  0.046655589177497334  1.0000
  O   O9        1.0  0.5482574983096455  0.09025185747832863  0.7705846156400042  1.0000
  O   O10       1.0  0.0482474549089247  0.9097322798993089  0.7294016445997471  1.0000
  O   O11       1.0  0.45173885821470344  0.9097408341718418  0.22940891250150486  1.0000
  O   O12       1.0  0.9517475644570295  0.0902580665811925  0.2705878987641128  1.0000
  O   O13       1.0  0.29567065844712914  0.06771220928390419  0.6969236409050056  1.0000
  O   O14       1.0  0.795672447708277  0.9322784201497499  0.8030742991340674  1.0000
  O   O15       1.0  0.7043190124899965  0.9322875377619582  0.3030752701068238  1.0000
  O   O16       1.0  0.2043332687328316  0.0677111084326825  0.1969258640745508  1.0000
