data_image0
_chemical_formula_structural       Al6H14C84Br12O52
_chemical_formula_sum              "Al6 H14 C84 Br12 O52"
_cell_length_a       11.98554181678904
_cell_length_b       12.10663536061712
_cell_length_c       28.67563159232195
_cell_angle_alpha    89.9184451943795
_cell_angle_beta     90.02039366730229
_cell_angle_gamma    118.0100218809744

_space_group_name_H-M_alt    "P 1"
_space_group_IT_number       1

loop_
  _space_group_symop_operation_xyz
  'x, y, z'

loop_
  _atom_site_type_symbol
  _atom_site_label
  _atom_site_symmetry_multiplicity
  _atom_site_fract_x
  _atom_site_fract_y
  _atom_site_fract_z
  _atom_site_occupancy
  Al  Al1       1.0  0.7894002564710121  0.25107829400835163  0.24860072577626371  1.0000
  Al  Al2       1.0  0.524260810517923  0.2575405435882557  0.2501827198136723  1.0000
  Al  Al3       1.0  0.762260759079581  0.5021476495373562  0.2501749428439766  1.0000
  Al  Al4       1.0  0.5326563749696478  0.7491621412018219  0.7511214944709864  1.0000
  Al  Al5       1.0  0.26253713298231673  0.7465262192535037  0.7500803155538804  1.0000
  Al  Al6       1.0  0.26376281929757545  0.49977385283401776  0.750225549967233  1.0000
  H   H1        1.0  0.4149783009585946  0.16415995693897398  0.39894955280578154  1.0000
  H   H2        1.0  0.8830544660694599  0.7331725701466353  0.6062756200427799  1.0000
  H   H3        1.0  0.2648302751406463  0.15517845453705803  0.9094027427065327  1.0000
  H   H4        1.0  0.7683263261461661  0.26448860918732453  0.6098541101659194  1.0000
  H   H5        1.0  0.7758595882501426  0.6624191387030506  0.0864974223461843  1.0000
  H   H6        1.0  0.8638617968288571  0.22887265043742389  0.4142520896454798  1.0000
  H   H7        1.0  0.4198919267034711  0.1642533555749921  0.10053842651585401  1.0000
  H   H8        1.0  0.7792255161722608  0.664710591721203  0.41340175679193447  1.0000
  H   H9        1.0  0.8609957897945862  0.20099987038405936  0.0863415343477527  1.0000
  H   H10       1.0  0.880729805320982  0.7290962465359881  0.8925363254846418  1.0000
  H   H11       1.0  0.2638293421303288  0.15589390825207514  0.5919592696226558  1.0000
  H   H12       1.0  0.7777080939644706  0.24936329468174276  0.8903335966009321  1.0000
  H   H13       1.0  0.8834929647546587  0.13075543905432593  0.2751661729070918  1.0000
  H   H14       1.0  0.7396999218850341  0.8622030071035456  0.7232728521485186  1.0000
  C   C1        1.0  0.5662587571780335  0.11105147423355531  0.3150605522841659  1.0000
  C   C2        1.0  0.4444220239997635  0.887170668660069  0.6842285945404356  1.0000
  C   C3        1.0  0.10817185536623702  0.5505768779172725  0.8131891380359377  1.0000
  C   C4        1.0  0.44266941978495583  0.5318303776423504  0.6833329976564783  1.0000
  C   C5        1.0  0.5242843234157419  0.48533158266413057  0.35667542895921395  1.0000
  C   C6        1.0  0.9603966112062923  0.5023448467196303  0.1369133251537846  1.0000
  C   C7        1.0  0.5358904973431323  0.05222858959201199  0.3602914913166799  1.0000
  C   C8        1.0  0.5227134791498286  0.48405630498767477  0.1436090598648647  1.0000
  C   C9        1.0  0.9587989677431354  0.4983764926513813  0.36375810456458885  1.0000
  C   C10       1.0  0.5309680975075963  0.05236768938988228  0.1396683616831709  1.0000
  C   C11       1.0  0.04426237341949958  0.5200030707524731  0.8572963240020215  1.0000
  C   C12       1.0  0.5576417366229194  0.45283839925346575  0.1874291747502355  1.0000
  C   C13       1.0  0.46229055602449887  0.5023116014750499  0.6365429126402091  1.0000
  C   C14       1.0  0.46483181188534684  0.9418250445072971  0.8618319409632206  1.0000
  C   C15       1.0  0.0427452925089113  0.5196104665855542  0.6434101311011916  1.0000
  C   C16       1.0  0.46307006124875744  0.5031139061022926  0.8636697409685823  1.0000
  C   C17       1.0  0.4693906310747166  0.9426750288313668  0.6385843372975656  1.0000
  C   C18       1.0  0.4419134800246668  0.3761825679679801  0.4726741924738604  1.0000
  C   C19       1.0  0.9227292773008386  0.5666125849400315  0.0164145009150189  1.0000
  C   C20       1.0  0.61504539394479  0.08823164767618857  0.4782934181882936  1.0000
  C   C21       1.0  0.444748054067972  0.37662173642404173  0.0270903470828685  1.0000
  C   C22       1.0  0.9249599882262987  0.5680934663974142  0.4838453179122126  1.0000
  C   C23       1.0  0.9088735748162547  0.4655022039195842  0.3172990537380542  1.0000
  C   C24       1.0  0.6108482809146595  0.08232920512599409  0.0223437702205871  1.0000
  C   C25       1.0  0.9317328729290395  0.5605181448863233  0.9679393271153032  1.0000
  C   C26       1.0  0.43420078743211826  0.3781676929199802  0.5212069058365429  1.0000
  C   C27       1.0  0.6042455435958941  0.07665108175339698  0.9737217157848548  1.0000
  C   C28       1.0  0.9333068472373397  0.5618835753587136  0.5323404974221759  1.0000
  C   C29       1.0  0.4374569270983102  0.38030381839874383  0.9785879459734801  1.0000
  C   C30       1.0  0.6072037017962516  0.08073883995270138  0.5268762643850664  1.0000
  C   C31       1.0  0.5315747092108652  0.6064520716777793  0.5200831957067109  1.0000
  C   C32       1.0  0.06048532884270224  0.4540349475212363  0.9766768530807113  1.0000
  C   C33       1.0  0.3926633738387439  0.9077308143609244  0.5204888276917288  1.0000
  C   C34       1.0  0.5672125026872976  0.11333939324368461  0.1843066260281958  1.0000
  C   C35       1.0  0.5308505961771175  0.6082537115854547  0.9804438157547323  1.0000
  C   C36       1.0  0.06189883021490062  0.4551894161465241  0.5241944058845291  1.0000
  C   C37       1.0  0.3835806566307838  0.914615935386017  0.9792575717067747  1.0000
  C   C38       1.0  0.0518901012427335  0.45998093977528487  0.025043669350672797  1.0000
  C   C39       1.0  0.535719754848266  0.6047831971225789  0.4714680378087337  1.0000
  C   C40       1.0  0.39086976507066845  0.920677504728388  0.0278401546049594  1.0000
  C   C41       1.0  0.05444148763237423  0.46173887731993096  0.4757937038922435  1.0000
  C   C42       1.0  0.5349035387843414  0.6051567497242231  0.0290645778834175  1.0000
  C   C43       1.0  0.40065843442021526  0.9160996034224381  0.4719555501314971  1.0000
  C   C44       1.0  0.4934995780342605  0.49013830440027545  0.44719294346553073  1.0000
  C   C45       1.0  0.5611740340190818  0.4564361325790855  0.3128371962900189  1.0000
  C   C46       1.0  0.9831227772908802  0.5157655552235454  0.04570069031488801  1.0000
  C   C47       1.0  0.5123707764734179  0.006491705749773796  0.4503596583208207  1.0000
  C   C48       1.0  0.4940769456633589  0.4899630520715093  0.052972909499899905  1.0000
  C   C49       1.0  0.98540608554174  0.5169040622117363  0.4548092835991966  1.0000
  C   C50       1.0  0.5047896004645481  0.004897212976693799  0.04983670340539699  1.0000
  C   C51       1.0  0.0011562269192637172  0.5058124284808939  0.9476150223960502  1.0000
  C   C52       1.0  0.47991825933657845  0.4925078116860958  0.5455497865112092  1.0000
  C   C53       1.0  0.49066181395620834  0.9905772617504949  0.9515410452148743  1.0000
  C   C54       1.0  0.001770304024134448  0.5065034458986091  0.5529793447245979  1.0000
  C   C55       1.0  0.4811891274867222  0.49518400291827186  0.9547222324863895  1.0000
  C   C56       1.0  0.9110906678849843  0.47162481927998795  0.1834419418835793  1.0000
  C   C57       1.0  0.4962248590377243  0.9888478711156026  0.5486335382736414  1.0000
  C   C58       1.0  0.47258154500848093  0.4955844017442601  0.5945640887547796  1.0000
  C   C59       1.0  0.018928880866155916  0.5088733597428002  0.8988008334201255  1.0000
  C   C60       1.0  0.485462009760063  0.9704035005816178  0.5973898527116078  1.0000
  C   C61       1.0  0.4737986841852475  0.49842421235170054  0.90571908211637  1.0000
  C   C62       1.0  0.018256803450967137  0.5089365757639968  0.6018419257572774  1.0000
  C   C63       1.0  0.48052886093418573  0.9714443708936424  0.9028239542356361  1.0000
  C   C64       1.0  0.97299406717611  0.5137503246171987  0.09475210162613479  1.0000
  C   C65       1.0  0.5069714249447372  0.4903005191030232  0.39832145329090446  1.0000
  C   C66       1.0  0.5129518120835925  0.021884902149594196  0.09872662993507929  1.0000
  C   C67       1.0  0.4421625514573292  0.8858374954749307  0.8164017102993598  1.0000
  C   C68       1.0  0.9738077161495299  0.5126757067513309  0.4057689720185067  1.0000
  C   C69       1.0  0.5066131635419708  0.4893929490690638  0.1018685848970478  1.0000
  C   C70       1.0  0.5204174116256581  0.023623823846591605  0.4014528775380697  1.0000
  C   C71       1.0  0.3863676934522715  0.25106928321022787  0.44896953336997564  1.0000
  C   C72       1.0  0.8509037671622153  0.6309284931758441  0.033742320082716  1.0000
  C   C73       1.0  0.7241222095216032  0.19413560419780398  0.4538659754056482  1.0000
  C   C74       1.0  0.3947719305482451  0.25014760308242495  0.0493278770987402  1.0000
  C   C75       1.0  0.8518996565654293  0.6309655087929968  0.4663575475793209  1.0000
  C   C76       1.0  0.7237303643774595  0.18088748485784834  0.047828664920651  1.0000
  C   C77       1.0  0.8593514864496756  0.6009422460834627  0.9350044361560919  1.0000
  C   C78       1.0  0.10728758364341225  0.5499728078769338  0.6874343804325633  1.0000
  C   C79       1.0  0.38784231451599294  0.25839905583085704  0.5483723738693413  1.0000
  C   C80       1.0  0.7194902217828556  0.16508531808808866  0.9476398858522685  1.0000
  C   C81       1.0  0.8617171379077391  0.6029303363959144  0.5652990571695398  1.0000
  C   C82       1.0  0.394984857732176  0.26333432030196496  0.9498778400216281  1.0000
  C   C83       1.0  0.7188244353233344  0.17283846162770536  0.5536658532975736  1.0000
  C   C84       1.0  0.4429461906916929  0.5310856948491252  0.816750084503191  1.0000
  Br  Br1       1.0  0.5927678935217814  0.7571475894960286  0.55331939025195  1.0000
  Br  Br2       1.0  0.13415163182884274  0.3937718491990553  0.4370142797475722  1.0000
  Br  Br3       1.0  0.5976560618515308  0.7538202965405816  0.0642953500162804  1.0000
  Br  Br4       1.0  0.2659265855861507  0.8096343831949327  0.4333555143441927  1.0000
  Br  Br5       1.0  0.1482522705783609  0.37794092015118946  0.9489980961530904  1.0000
  Br  Br6       1.0  0.24371125195646925  0.7902975574137299  0.5497457236209584  1.0000
  Br  Br7       1.0  0.58950373888068  0.7592522880900888  0.9474568404957324  1.0000
  Br  Br8       1.0  0.14924108675633369  0.3792420159806086  0.5523396147447599  1.0000
  Br  Br9       1.0  0.23076886154295548  0.8082063827483948  0.9494623755153668  1.0000
  Br  Br10      1.0  0.12990970263903273  0.39100803438396514  0.064276673240272  1.0000
  Br  Br11      1.0  0.5996674643549652  0.7541660484531433  0.43646934883095406  1.0000
  Br  Br12      1.0  0.25247132461437616  0.8192211917649671  0.0659107032019222  1.0000
  O   O1        1.0  0.8852143032201243  0.35830224482708667  0.3026014182946355  1.0000
  O   O2        1.0  0.5233784886309252  0.6359133560552336  0.6993532264443658  1.0000
  O   O3        1.0  0.33884561626175  0.8673537658819581  0.7958196326296374  1.0000
  O   O4        1.0  0.13806812944795874  0.47030319847908686  0.7043849253927448  1.0000
  O   O5        1.0  0.6713660120323439  0.13452337234612338  0.2973789110712346  1.0000
  O   O6        1.0  0.484478824717506  0.3435754216118312  0.2035817936883006  1.0000
  O   O7        1.0  0.8866877145156309  0.5464935989618951  0.29556683622347185  1.0000
  O   O8        1.0  0.6790464047114142  0.14778674163235186  0.1974231628111269  1.0000
  O   O9        1.0  0.4863378766274238  0.3506862145730024  0.2947289622705256  1.0000
  O   O10       1.0  0.8818687190255616  0.5503655379684105  0.2031798493320736  1.0000
  O   O11       1.0  0.522393203463956  0.8549949056684768  0.8012189037448181  1.0000
  O   O12       1.0  0.4830210705825948  0.13237148144877148  0.20577944408180573  1.0000
  O   O13       1.0  0.13538980927504704  0.6571140830596106  0.7048152756576799  1.0000
  O   O14       1.0  0.3395751039568609  0.4516623340253928  0.796822215200649  1.0000
  O   O15       1.0  0.5261636387582483  0.8607915338630289  0.7013369208752565  1.0000
  O   O16       1.0  0.137333528393853  0.6584221855117817  0.7960803229888427  1.0000
  O   O17       1.0  0.3405776441362818  0.45185900240065263  0.7039182648038604  1.0000
  O   O18       1.0  0.6908787980651212  0.3370068858846054  0.2500682169290798  1.0000
  O   O19       1.0  0.351058190095813  0.6644196050344603  0.7501643159667637  1.0000
  O   O20       1.0  0.2867802325749125  0.16281784758848517  0.4613050500285638  1.0000
  O   O21       1.0  0.4576523777882997  0.24750693140030927  0.4133394209080592  1.0000
  O   O22       1.0  0.8210808333319904  0.6934578047182497  0.0079054868900954  1.0000
  O   O23       1.0  0.6692198282892932  0.5348986223762465  0.29665754363252017  1.0000
  O   O24       1.0  0.8212612430410715  0.6146634275148626  0.0794367972423586  1.0000
  O   O25       1.0  0.7348502162221279  0.2993164699916164  0.4525375072746343  1.0000
  O   O26       1.0  0.7990298073114348  0.1566714489845751  0.4313100857092564  1.0000
  O   O27       1.0  0.30720416667981704  0.15658153041025707  0.0326914581149467  1.0000
  O   O28       1.0  0.4570000853124654  0.2502120728519656  0.0883595995977018  1.0000
  O   O29       1.0  0.8173023966964766  0.68908037902348  0.4924634707657773  1.0000
  O   O30       1.0  0.8266854051909434  0.6188641196604364  0.4203169916199627  1.0000
  O   O31       1.0  0.7399467872762601  0.28754273561697363  0.05232958972530351  1.0000
  O   O32       1.0  0.7939720783454618  0.13408498593118168  0.0680042676012107  1.0000
  O   O33       1.0  0.7497399518839104  0.5318330392614357  0.9245136524599502  1.0000
  O   O34       1.0  0.8944025945208695  0.3684527217050401  0.20031465834625103  1.0000
  O   O35       1.0  0.9333846854921575  0.7129906883419534  0.914953867759749  1.0000
  O   O36       1.0  0.44082512412741437  0.19391821343899807  0.5478586336128259  1.0000
  O   O37       1.0  0.2846945970894481  0.2329870708536745  0.5745318083333188  1.0000
  O   O38       1.0  0.8252088208803984  0.2127787363475946  0.9650026912547104  1.0000
  O   O39       1.0  0.6963514473274088  0.1893559389054289  0.9038228318536383  1.0000
  O   O40       1.0  0.7538227208979366  0.5326047354649077  0.5775634105887945  1.0000
  O   O41       1.0  0.9352952431113551  0.7172365650363018  0.5836732908771154  1.0000
  O   O42       1.0  0.45932086254453  0.21103771194935916  0.9445341672295912  1.0000
  O   O43       1.0  0.2828552392226555  0.2288547143629032  0.9285194408050828  1.0000
  O   O44       1.0  0.8266939604652422  0.21872608438229688  0.5383317349025134  1.0000
  O   O45       1.0  0.48375954554792605  0.14008892080504856  0.29793096077757747  1.0000
  O   O46       1.0  0.6892795402594061  0.20201845616433184  0.5956558074536602  1.0000
  O   O47       1.0  0.6620331046876304  0.5323702740256452  0.2056814743606949  1.0000
  O   O48       1.0  0.52466759525867  0.6336107381000103  0.7998726603320918  1.0000
  O   O49       1.0  0.3376785511197937  0.8642060491827478  0.7028367984647517  1.0000
  O   O50       1.0  0.1372708952169859  0.4703887576836506  0.7956323368561016  1.0000
  O   O51       1.0  0.880311455804744  0.17302239016346016  0.2469817263194543  1.0000
  O   O52       1.0  0.698194441584846  0.8243537364325346  0.7522683729095903  1.0000
