data_image0
_chemical_formula_structural       Cu2H40C40N4O8
_chemical_formula_sum              "Cu2 H40 C40 N4 O8"
_cell_length_a       7.560653152609463
_cell_length_b       9.431772565043437
_cell_length_c       15.98805398335084
_cell_angle_alpha    89.99997004581083
_cell_angle_beta     94.35185171117875
_cell_angle_gamma    89.99967447025628

_space_group_name_H-M_alt    "P 1"
_space_group_IT_number       1

loop_
  _space_group_symop_operation_xyz
  'x, y, z'

loop_
  _atom_site_type_symbol
  _atom_site_label
  _atom_site_symmetry_multiplicity
  _atom_site_fract_x
  _atom_site_fract_y
  _atom_site_fract_z
  _atom_site_occupancy
  Cu  Cu1       1.0  0.9999962389025328  4.967155099700002e-06  0.9999998833365922  1.0000
  Cu  Cu2       1.0  0.5000043285836782  0.5000012873425632  0.49999605499245103  1.0000
  H   H1        1.0  0.8532582817358543  0.34816277630258  0.16298688469634467  1.0000
  H   H2        1.0  0.3532543731919162  0.1518527901724411  0.6629860245003627  1.0000
  H   H3        1.0  0.14674058559922534  0.6518440393839172  0.8370198137485403  1.0000
  H   H4        1.0  0.6467503683291936  0.8481455435373918  0.3370040390032401  1.0000
  H   H5        1.0  0.06797080366515469  0.3944219405750717  0.2108703024184706  1.0000
  H   H6        1.0  0.567967412476811  0.10558847298961645  0.7108686666603461  1.0000
  H   H7        1.0  0.9320320636571963  0.6055763931341644  0.7891359439846184  1.0000
  H   H8        1.0  0.4320399605350643  0.8944162221908486  0.2891221365310415  1.0000
  H   H9        1.0  0.9470438391670083  0.2543032018883196  0.2522430210467661  1.0000
  H   H10       1.0  0.44704457004025483  0.24570554530247798  0.7522410772265431  1.0000
  H   H11       1.0  0.05295502818006528  0.7457004330599092  0.7477636773992062  1.0000
  H   H12       1.0  0.5529574978275702  0.7542906679208203  0.2477494958515507  1.0000
  H   H13       1.0  0.5397754536511598  0.91589662730064  0.10617525236470732  1.0000
  H   H14       1.0  0.03979674986204169  0.5841062750195293  0.6061905229212599  1.0000
  H   H15       1.0  0.46020526704099746  0.0841080679368176  0.8938181480368286  1.0000
  H   H16       1.0  0.9602129596029697  0.4159079623679673  0.39380976480296687  1.0000
  H   H17       1.0  0.5632440622080352  0.04974865343039171  0.18627176717381397  1.0000
  H   H18       1.0  0.06322809207643589  0.4502469513648963  0.686285915075324  1.0000
  H   H19       1.0  0.4367659001880639  0.9502518007595313  0.8137210249727433  1.0000
  H   H20       1.0  0.9367549861461126  0.5497662258336361  0.3137163452275473  1.0000
  H   H21       1.0  0.5978712345208946  0.08955130758580761  0.07988645897715681  1.0000
  H   H22       1.0  0.09789131129357288  0.4104505698595205  0.5799040613999153  1.0000
  H   H23       1.0  0.4021202229828729  0.9104480863988801  0.9201036538674219  1.0000
  H   H24       1.0  0.9021234504883394  0.5895583662843508  0.4201039520247392  1.0000
  H   H25       1.0  0.49029832266529627  0.3708941787902091  0.1623895487947564  1.0000
  H   H26       1.0  0.9902818915586237  0.1290932278651411  0.6623754535855896  1.0000
  H   H27       1.0  0.5097183963750281  0.6290914319294317  0.8376391925476201  1.0000
  H   H28       1.0  0.009715081865771004  0.8709029853710606  0.33760864305762794  1.0000
  H   H29       1.0  0.15012029602394958  0.0349843864390778  0.7936041288993607  1.0000
  H   H30       1.0  0.6501175754923024  0.4650012378386777  0.2936177959730983  1.0000
  H   H31       1.0  0.849869961613379  0.9650181882875799  0.20638217862387623  1.0000
  H   H32       1.0  0.34988853323194746  0.5349748306892509  0.7064104851401326  1.0000
  H   H33       1.0  0.8894987326285032  0.3109340522172134  0.9424940311936822  1.0000
  H   H34       1.0  0.3894715044908423  0.1890515093495324  0.4425044214399634  1.0000
  H   H35       1.0  0.11051021954850167  0.6890727634541562  0.0574893339436358  1.0000
  H   H36       1.0  0.610497657652523  0.8109266797527116  0.5575166271722624  1.0000
  H   H37       1.0  0.21645686737301864  0.08381083284755421  0.3176367416343311  1.0000
  H   H38       1.0  0.716469638399097  0.41617661060915623  0.8176375718047596  1.0000
  H   H39       1.0  0.7835285896051187  0.9161705369607066  0.6823737539518362  1.0000
  H   H40       1.0  0.2835366190473678  0.5838291448216355  0.1823469275385463  1.0000
  C   C1        1.0  0.9771664648102955  0.3068192629617671  0.1935090798429684  1.0000
  C   C2        1.0  0.4771715074338871  0.19319256827445494  0.6935092185815963  1.0000
  C   C3        1.0  0.022833707765521186  0.6931822514912513  0.8064983007646589  1.0000
  C   C4        1.0  0.5228411075502349  0.8068078859096846  0.30648368862306097  1.0000
  C   C5        1.0  0.057844927185527695  0.20161517203540316  0.136071222685139  1.0000
  C   C6        1.0  0.5578532182621032  0.2983953284728997  0.6360737775555237  1.0000
  C   C7        1.0  0.9421513086507857  0.7983874026726455  0.8639347360712364  1.0000
  C   C8        1.0  0.4421554178439918  0.7016040654738163  0.3639189570623388  1.0000
  C   C9        1.0  0.2368290697472872  0.15952619018630543  0.1533443584537935  1.0000
  C   C10       1.0  0.7368358856848686  0.3404782236037463  0.653341829828264  1.0000
  C   C11       1.0  0.7631643660121836  0.8404700230500313  0.8466658576697198  1.0000
  C   C12       1.0  0.2631756348150985  0.6595211703386642  0.3466441488971768  1.0000
  C   C13       1.0  0.32341540896571536  0.0618847739561232  0.102369861991491  1.0000
  C   C14       1.0  0.8234290458372724  0.43811505301981424  0.6023794794702299  1.0000
  C   C15       1.0  0.676577143006213  0.9381199212546536  0.8976271793308613  1.0000
  C   C16       1.0  0.1765795691635788  0.5618928228955016  0.3976138797765928  1.0000
  C   C17       1.0  0.5169350671110988  0.027536616917458914  0.12107981457459263  1.0000
  C   C18       1.0  0.0169416660709203  0.4724677080160691  0.6210893035211171  1.0000
  C   C19       1.0  0.4830641584733967  0.9724691385252342  0.878916265128922  1.0000
  C   C20       1.0  0.9830614119320413  0.5275444088937036  0.3789106965585703  1.0000
  C   C21       1.0  0.3378545661107424  0.21932488935896544  0.2289298002959939  1.0000
  C   C22       1.0  0.8378607597078939  0.28066738043510503  0.7289197596433115  1.0000
  C   C23       1.0  0.6621385535978134  0.7806586009222587  0.7710897853098972  1.0000
  C   C24       1.0  0.16215097150868016  0.7193362544930154  0.27105997276199645  1.0000
  C   C25       1.0  0.4635752170143661  0.3275863469828977  0.22346786254029646  1.0000
  C   C26       1.0  0.9635699744251479  0.17240538123090235  0.7234667479771134  1.0000
  C   C27       1.0  0.5364312709885725  0.672400324008372  0.7765491751956902  1.0000
  C   C28       1.0  0.03643091461751168  0.8276024947032284  0.27651939514485957  1.0000
  C   C29       1.0  0.053696918355498696  0.12075002135420485  0.7965128618608193  1.0000
  C   C30       1.0  0.5536987392822255  0.37923919977919246  0.2965292589666789  1.0000
  C   C31       1.0  0.9463107497180017  0.8792451316133241  0.20346919648772405  1.0000
  C   C32       1.0  0.44629800109492374  0.6207358085223407  0.7035011179710153  1.0000
  C   C33       1.0  0.9090398645034552  0.2741996818237383  0.8790292721802119  1.0000
  C   C34       1.0  0.40901947541787814  0.22579537383953155  0.37902555830001466  1.0000
  C   C35       1.0  0.09097035074777442  0.7258071338443416  0.1209560243817549  1.0000
  C   C36       1.0  0.5909579395031768  0.7741859959855333  0.6209870906393037  1.0000
  C   C37       1.0  0.3118737684766727  0.16858366495603866  0.3095811175275998  1.0000
  C   C38       1.0  0.8118767581543764  0.3314171529211977  0.8095759240109219  1.0000
  C   C39       1.0  0.6881181724307052  0.8314051265594743  0.6904340381243514  1.0000
  C   C40       1.0  0.18813202543655183  0.6685896627491061  0.19041243818132614  1.0000
  N   N1        1.0  0.02855764248167249  0.1698055197987003  0.8735481000901404  1.0000
  N   N2        1.0  0.528532149826674  0.33018164544938605  0.3735583257315085  1.0000
  N   N3        1.0  0.9714445306964732  0.8302055368705512  0.1264393498235279  1.0000
  N   N4        1.0  0.4714515594002576  0.6697976038668969  0.6264646049636725  1.0000
  O   O1        1.0  0.9528029913208795  0.15806258228537473  0.07481465510235101  1.0000
  O   O2        1.0  0.4527977121490848  0.3419600253865839  0.5748117904145076  1.0000
  O   O3        1.0  0.0471999813197854  0.8419484743776312  0.925188468137037  1.0000
  O   O4        1.0  0.547196440049234  0.658049971053508  0.42517718822080053  1.0000
  O   O5        1.0  0.2495886537014299  0.9969795952467708  0.0388635204780741  1.0000
  O   O6        1.0  0.7495900991837058  0.5030415212089352  0.5388596292303801  1.0000
  O   O7        1.0  0.7504130768742953  0.003048425357128801  0.9611370466989655  1.0000
  O   O8        1.0  0.2504145368911351  0.496978017422059  0.46113355742527773  1.0000
