data_image0
_chemical_formula_structural       AlH15C27N10O6
_chemical_formula_sum              "Al1 H15 C27 N10 O6"
_cell_length_a       3.904750495309187
_cell_length_b       18.06548890849249
_cell_length_c       18.11336510474032
_cell_angle_alpha    119.5667233463786
_cell_angle_beta     89.20285885032025
_cell_angle_gamma    90.91673361317426

_space_group_name_H-M_alt    "P 1"
_space_group_IT_number       1

loop_
  _space_group_symop_operation_xyz
  'x, y, z'

loop_
  _atom_site_type_symbol
  _atom_site_label
  _atom_site_symmetry_multiplicity
  _atom_site_fract_x
  _atom_site_fract_y
  _atom_site_fract_z
  _atom_site_occupancy
  Al  Al1       1.0  0.036565255549270106  0.9997715426322387  0.5005147840547438  1.0000
  H   H1        1.0  0.7774008509418027  0.3055359074417511  0.41035949920820514  1.0000
  H   H2        1.0  0.8322914943045775  0.09348520633369617  0.891321814673745  1.0000
  H   H3        1.0  0.7903082346694889  0.6098729068413674  0.19746627313444517  1.0000
  H   H4        1.0  0.3301519383723316  0.3075532673580952  0.8994122767015398  1.0000
  H   H5        1.0  0.8257765983389973  0.019567665577618198  0.7321809388258913  1.0000
  H   H6        1.0  0.8026283207026522  0.7692779288008181  0.2850983258119442  1.0000
  H   H7        1.0  0.2736102907267437  0.5974370679018575  0.4023726407238896  1.0000
  H   H8        1.0  0.38076201259794124  0.0874635583402679  0.1875823061289239  1.0000
  H   H9        1.0  0.78805767793569  0.21927998797752227  0.48467005183159984  1.0000
  H   H10       1.0  0.2307435183334405  0.9633563961997139  0.29258284317292993  1.0000
  H   H11       1.0  0.1734536843293668  0.9701176376440798  0.20238407085478366  1.0000
  H   H12       1.0  0.14012912969717922  0.8248180455360838  0.5264202135556104  1.0000
  H   H13       1.0  0.04039819962688539  0.7260136784452624  0.5139534751379246  1.0000
  H   H14       1.0  0.17384867610053328  0.20176138493782503  0.6733108500697753  1.0000
  H   H15       1.0  0.0910634248937328  0.2890170807404573  0.7709343107584276  1.0000
  C   C1        1.0  0.5503771618499443  0.0637973439847244  0.4312606284388992  1.0000
  C   C2        1.0  0.53986279535539  0.06844355476198419  0.6327164011739869  1.0000
  C   C3        1.0  0.5306081633336887  0.8671095458107702  0.43584655345326706  1.0000
  C   C4        1.0  0.688784009960962  0.2396536924255486  0.3794213868488754  1.0000
  C   C5        1.0  0.5776640655035479  0.2003482914467014  0.29462396623722503  1.0000
  C   C6        1.0  0.7163668537838107  0.12241054076331177  0.8575327689977784  1.0000
  C   C7        1.0  0.5806729078862106  0.20496673191903617  0.9036567256881868  1.0000
  C   C8        1.0  0.5317895795649504  0.595366009888032  0.29617270355008435  1.0000
  C   C9        1.0  0.6748710009077713  0.6427997447787206  0.2604732681013361  1.0000
  C   C10       1.0  0.4328064576902761  0.2435964903319885  0.8618389574477449  1.0000
  C   C11       1.0  0.40092425569132933  0.2003362568210036  0.7728651687979777  1.0000
  C   C12       1.0  0.5493509450568866  0.1180437127575544  0.7261128716598365  1.0000
  C   C13       1.0  0.709950179000536  0.08183951713886022  0.7698582480668961  1.0000
  C   C14       1.0  0.6793101198052581  0.7306007756518512  0.3088842666741628  1.0000
  C   C15       1.0  0.5218705408692516  0.7733348737613568  0.3895275487355506  1.0000
  C   C16       1.0  0.36005550897314015  0.725358177025342  0.4237401180281638  1.0000
  C   C17       1.0  0.3824698924403833  0.6360589977384024  0.3766902966643144  1.0000
  C   C18       1.0  0.4614783167031149  0.1161262066863955  0.2535540302657608  1.0000
  C   C19       1.0  0.4363172958598797  0.06931451532921071  0.2965977993002227  1.0000
  C   C20       1.0  0.5602826440334638  0.1082183465075062  0.38137746526710714  1.0000
  C   C21       1.0  0.6910333572797427  0.19200485136074263  0.4202252588137014  1.0000
  C   C22       1.0  0.5574285521311283  0.37765468118995943  0.25427598135718915  1.0000
  C   C23       1.0  0.5984104535329138  0.24428975960996976  0.11988073201047907  1.0000
  C   C24       1.0  0.5818136471781443  0.24826991603767815  0.2482894666824365  1.0000
  C   C25       1.0  0.5438721568247973  0.501675835867374  0.2489642615912331  1.0000
  C   C26       1.0  0.5699134799468409  0.3794730066593245  0.12033431145404447  1.0000
  C   C27       1.0  0.5899833912434715  0.2513044505735635  0.9971553273439397  1.0000
  N   N1        1.0  0.5751029817901453  0.3338374772936276  0.1648363119255478  1.0000
  N   N2        1.0  0.5997656686202149  0.20212602714835273  0.1629505665159385  1.0000
  N   N3        1.0  0.564563231319795  0.3336188318843582  0.2954656601213301  1.0000
  N   N4        1.0  0.5335122925351642  0.46222362869456646  0.29560964858632843  1.0000
  N   N5        1.0  0.5643071628291024  0.464298474349512  0.16380533489284943  1.0000
  N   N6        1.0  0.6153582581086355  0.20381936361793146  0.035298169235439  1.0000
  N   N7        1.0  0.5687840483319206  0.3367500767119438  0.035755008772  1.0000
  N   N8        1.0  0.31622741609007937  0.9866272738367031  0.25466282657915684  1.0000
  N   N9        1.0  0.20626389895286223  0.7628803471052167  0.5023990253225394  1.0000
  N   N10       1.0  0.24944483425103667  0.2403306094250652  0.73423291813112  1.0000
  O   O1        1.0  0.2971267476913225  0.9070307711220024  0.49218593445405656  1.0000
  O   O2        1.0  0.3104086025515472  0.008550040315803597  0.41616417258916266  1.0000
  O   O3        1.0  0.30466284638887225  0.0841129195930748  0.5933139553161411  1.0000
  O   O4        1.0  0.7696080429629363  0.9054218774305836  0.4183884763094028  1.0000
  O   O5        1.0  0.7669990664068392  0.0113100855923776  0.5941600431478521  1.0000
  O   O6        1.0  0.7789574153408622  0.0822289012147621  0.4878245188865193  1.0000
