data_image0
_chemical_formula_structural       In4H80C36S4N4O4
_chemical_formula_sum              "In4 H80 C36 S4 N4 O4"
_cell_length_a       7.8528955
_cell_length_b       8.326886467767556
_cell_length_c       18.1539
_cell_angle_alpha    95.38246413946521
_cell_angle_beta     90.0
_cell_angle_gamma    90.0

_space_group_name_H-M_alt    "P 1"
_space_group_IT_number       1

loop_
  _space_group_symop_operation_xyz
  'x, y, z'

loop_
  _atom_site_type_symbol
  _atom_site_label
  _atom_site_symmetry_multiplicity
  _atom_site_fract_x
  _atom_site_fract_y
  _atom_site_fract_z
  _atom_site_occupancy
  In  In1       1.0  0.0724891856768011  0.9497403727768443  0.7838153017948244  1.0000
  In  In2       1.0  0.4275136476730167  0.9497379602813396  0.2838179522236004  1.0000
  In  In3       1.0  0.9275075671133022  0.0502559000382305  0.2161840971621913  1.0000
  In  In4       1.0  0.5724843785327351  0.0502607250292328  0.7161826522253918  1.0000
  H   H1        1.0  0.9714493208269488  0.6545715481757526  0.8196112460522329  1.0000
  H   H2        1.0  0.5285502653129655  0.6545751669190027  0.3196147068276858  1.0000
  H   H3        1.0  0.0285270573128074  0.3454150746573177  0.1803838817826602  1.0000
  H   H4        1.0  0.4714477608927794  0.3454247246393224  0.6803865003673053  1.0000
  H   H5        1.0  0.8364481610636503  0.7218922351434147  0.7515390219034259  1.0000
  H   H6        1.0  0.6635488782449741  0.7218934413911668  0.251539073803599  1.0000
  H   H7        1.0  0.1635485917264532  0.2781052439194127  0.24845602218716317  1.0000
  H   H8        1.0  0.3364453277138323  0.2781076564149103  0.7484627361373839  1.0000
  H   H9        1.0  0.004556281183163  0.4781771145970169  0.6973146441698361  1.0000
  H   H10       1.0  0.4954363648414812  0.4781747021015193  0.19731839629026382  1.0000
  H   H11       1.0  0.995436651359995  0.5218263957045579  0.3026823119590674  1.0000
  H   H12       1.0  0.5045667550268575  0.5218263957045579  0.8026834136507119  1.0000
  H   H13       1.0  0.1976990525341904  0.5784862650513602  0.7218284221980653  1.0000
  H   H14       1.0  0.3022935934904538  0.5784838525558627  0.2218338268559705  1.0000
  H   H15       1.0  0.8022887863463879  0.4215172452502145  0.2781668813933607  1.0000
  H   H16       1.0  0.697709526377885  0.4215136265069646  0.778166174847037  1.0000
  H   H17       1.0  0.06546757180201718  0.65188161569165  0.6538176102635731  1.0000
  H   H18       1.0  0.4345225273913299  0.651877996948393  0.1538218613296536  1.0000
  H   H19       1.0  0.9345151734159742  0.3481170696189295  0.3461818924937745  1.0000
  H   H20       1.0  0.5654805924770014  0.3481170696189295  0.8461791382646595  1.0000
  H   H21       1.0  0.06851740227537557  0.1144596428180336  0.9191745856993805  1.0000
  H   H22       1.0  0.4314816108274968  0.11445843657028122  0.4191723304159182  1.0000
  H   H23       1.0  0.9314869910086043  0.8855474862267984  0.0808313396632059  1.0000
  H   H24       1.0  0.5685087748843713  0.8855414549880436  0.5808266733957694  1.0000
  H   H25       1.0  0.2553453054354263  0.1627795152163571  0.8712918864320828  1.0000
  H   H26       1.0  0.2446524342517975  0.1627783089686119  0.371290732840265  1.0000
  H   H27       1.0  0.7446565410172565  0.8372131388554607  0.1287090093618914  1.0000
  H   H28       1.0  0.7553366780444222  0.8372167575987177  0.6287080633707518  1.0000
  H   H29       1.0  0.0611506927603997  0.4086707067050526  0.8954510832185748  1.0000
  H   H30       1.0  0.4388445000955414  0.4086707067050526  0.3954494306811043  1.0000
  H   H31       1.0  0.9388575207705256  0.5913279786055199  0.1045473178471283  1.0000
  H   H32       1.0  0.5611446122006853  0.5913267723577746  0.6045461642553107  1.0000
  H   H33       1.0  0.8967749539007599  0.30312644101258723  0.8448972197744524  1.0000
  H   H34       1.0  0.6032208119922159  0.3031288535080918  0.3448951201914952  1.0000
  H   H35       1.0  0.10323198621451007  0.6968734505457377  0.1551023348830682  1.0000
  H   H36       1.0  0.3967644800570724  0.696867419306983  0.6551031770738689  1.0000
  H   H37       1.0  0.0844707534946849  0.3545825575627859  0.7993148358783415  1.0000
  H   H38       1.0  0.4155231659456078  0.3545813513150335  0.29931368228652394  1.0000
  H   H39       1.0  0.9155387334518821  0.645410096509039  0.2006827548406918  1.0000
  H   H40       1.0  0.584465946350619  0.6454125090045366  0.7006828586410307  1.0000
  H   H41       1.0  0.9975747162304671  0.2146240435422868  0.4780163559025041  1.0000
  H   H42       1.0  0.5024223230781573  0.2146095685692799  0.9780146314088398  1.0000
  H   H43       1.0  0.0024309504691615  0.7853854979980426  0.521987469877125  1.0000
  H   H44       1.0  0.4975718828806491  0.7853854979980426  0.0219869190312991  1.0000
  H   H45       1.0  0.14468039209231878  0.0959823397725117  0.5224921938392058  1.0000
  H   H46       1.0  0.3553186210105537  0.09597630853375702  0.0224946885674839  1.0000
  H   H47       1.0  0.8553240011916614  0.9040199642813179  0.47751021884776174  1.0000
  H   H48       1.0  0.6446806786108397  0.9040235830245678  0.9775136796232146  1.0000
  H   H49       1.0  0.2786589990914834  0.3546657886575844  0.4930382237532526  1.0000
  H   H50       1.0  0.2213451076739759  0.3546597574188297  0.9930368625607571  1.0000
  H   H51       1.0  0.7213492144394351  0.6453341029007404  0.5069657376708534  1.0000
  H   H52       1.0  0.778655465363066  0.6453365153962451  0.006966943162836998  1.0000
  H   H53       1.0  0.2711280189581017  0.3434175283821261  0.5905601928003961  1.0000
  H   H54       1.0  0.2288735409760676  0.3434127033911238  0.0905599851997181  1.0000
  H   H55       1.0  0.728881467988465  0.6565811569284534  0.4094420641860737  1.0000
  H   H56       1.0  0.7711232118140356  0.6565859819194559  0.9094450260158666  1.0000
  H   H57       1.0  0.1245718856184936  0.4676200342827244  0.547705135966261  1.0000
  H   H58       1.0  0.3754347679782555  0.4676140030439697  0.047703774773772495  1.0000
  H   H59       1.0  0.8754426949906529  0.5323822697711053  0.4522983784123582  1.0000
  H   H60       1.0  0.6245632582274894  0.5323846822666098  0.9523001347501605  1.0000
  H   H61       1.0  0.847832496943326  0.4255412877466185  0.5756221470608837  1.0000
  H   H62       1.0  0.6521683626122365  0.4255340502601115  0.0756185305849328  1.0000
  H   H63       1.0  0.15216934950936425  0.5744586038117063  0.42437740759662995  1.0000
  H   H64       1.0  0.3478347572560949  0.5744658412982134  0.9243766173059952  1.0000
  H   H65       1.0  0.7536735972100956  0.3241561642986355  0.6462498849660036  1.0000
  H   H66       1.0  0.7463234420985216  0.3241537518031308  0.1462486794740201  1.0000
  H   H67       1.0  0.24631806191741384  0.6758509647461963  0.3537472268634048  1.0000
  H   H68       1.0  0.2536860448480454  0.675853377241701  0.8537478815095625  1.0000
  H   H69       1.0  0.5624511366539904  0.3302621904127748  0.5348528500671392  1.0000
  H   H70       1.0  0.9375509963172204  0.33025254043077024  0.0348513331741458  1.0000
  H   H71       1.0  0.4375583502925763  0.6697425261365524  0.4651408528869894  1.0000
  H   H72       1.0  0.0624521235511182  0.6697389073933024  0.9651434514155994  1.0000
  H   H73       1.0  0.6125995182286558  0.1287126662405385  0.551164567057171  1.0000
  H   H74       1.0  0.8874000679112584  0.1287078412495362  0.0511654611481447  1.0000
  H   H75       1.0  0.3874099687179111  0.8712896378132913  0.44882737955914814  1.0000
  H   H76       1.0  0.11259413804755518  0.8712872253177937  0.9488322333712276  1.0000
  H   H77       1.0  0.7157627399982616  0.2203308016509453  0.47874333484943327  1.0000
  H   H78       1.0  0.7842406663885981  0.2203199454211884  0.9787445202853889  1.0000
  H   H79       1.0  0.2842531140265407  0.7796775336416388  0.5212505238052003  1.0000
  H   H80       1.0  0.2157548129858569  0.7796727086506365  0.021253621279470298  1.0000
  C   C1        1.0  0.9852938957356585  0.1161520084122927  0.6486405347916886  1.0000
  C   C2        1.0  0.5147082372355527  0.1161471834212904  0.1486403271910106  1.0000
  C   C3        1.0  0.014709224132680297  0.8838563268802915  0.3513632390877746  1.0000
  C   C4        1.0  0.4853050699579526  0.8838515018892892  0.8513635823329224  1.0000
  C   C5        1.0  0.9707094663363307  0.7058865337391182  0.7660101864839675  1.0000
  C   C6        1.0  0.5292913932192249  0.7058841212436135  0.2660122860669317  1.0000
  C   C7        1.0  0.0292783725442405  0.2941049140849544  0.23398680148907403  1.0000
  C   C8        1.0  0.4707142734803965  0.2941121515714614  0.7339876637359026  1.0000
  C   C9        1.0  0.0640808221629854  0.598043159833779  0.7068958586199585  1.0000
  C   C10       1.0  0.4359130972773001  0.5980395410905288  0.20689900799439442  1.0000
  C   C11       1.0  0.9359070167175929  0.401956731724546  0.29310094180844  1.0000
  C   C12       1.0  0.5640900225910315  0.4019603504678031  0.7931005466631191  1.0000
  C   C13       1.0  0.11605400835907888  0.15296065852550106  0.866630660447008  1.0000
  C   C14       1.0  0.3839424579124965  0.15296065852550106  0.3666295587553634  1.0000
  C   C15       1.0  0.8839465646779558  0.8470404392805762  0.1333722511856124  1.0000
  C   C16       1.0  0.6160453809680746  0.8470416455283286  0.633370650548315  1.0000
  C   C17       1.0  0.035567772422289985  0.3124676235941592  0.8507519574883844  1.0000
  C   C18       1.0  0.46442869384929236  0.3124676235941592  0.350750304950914  1.0000
  C   C19       1.0  0.9644391676929871  0.6875322679641656  0.149248148014955  1.0000
  C   C20       1.0  0.5355604184469271  0.6875286492209156  0.6492474414686242  1.0000
  C   C21       1.0  0.07277188395032398  0.209304490961614  0.5288756720844674  1.0000
  C   C22       1.0  0.4272284025681969  0.2092960472273617  0.0288753087832845  1.0000
  C   C23       1.0  0.9272350561649532  0.7906990193399608  0.471127343348499  1.0000
  C   C24       1.0  0.5727696236375479  0.7907038443309631  0.9711297543324662  1.0000
  C   C25       1.0  0.19358337316471355  0.3525259051478074  0.5408548666844979  1.0000
  C   C26       1.0  0.3064194601850971  0.3525198739090527  0.0408540563378352  1.0000
  C   C27       1.0  0.8064273871975018  0.6474751926582698  0.45914914663977413  1.0000
  C   C28       1.0  0.6935798394362962  0.6474776051537674  0.9591509029775835  1.0000
  C   C29       1.0  0.8036156854500334  0.3069080277110956  0.589759963709227  1.0000
  C   C30       1.0  0.6963864475211707  0.3069032027200934  0.0897575527252599  1.0000
  C   C31       1.0  0.1963899812495882  0.6930991013337362  0.41023880065765184  1.0000
  C   C32       1.0  0.3036179457628094  0.6930966888382386  0.9102403493947904  1.0000
  C   C33       1.0  0.6664382583468722  0.2423375856150756  0.5354126633628696  1.0000
  C   C34       1.0  0.8335638746243319  0.24232793563306393  0.0354133498531723  1.0000
  C   C35       1.0  0.3335725020153362  0.757668337182011  0.46458109149142496  1.0000
  C   C36       1.0  0.1664354249970614  0.7576647184387539  0.9645831391742161  1.0000
  S   S1        1.0  0.1710209947400898  0.0012822413590143  0.6496863786000588  1.0000
  S   S2        1.0  0.3289831120253695  0.0012713851292574004  0.14968425896107357  1.0000
  S   S3        1.0  0.8289795782969449  0.9987273001813151  0.3503207522545111  1.0000
  S   S4        1.0  0.671027648336846  0.9987248876858176  0.8503173433792313  1.0000
  N   N1        1.0  0.952885467532326  0.2013251620906047  0.5902722540890792  1.0000
  N   N2        1.0  0.5471179388545266  0.2013215433473547  0.0902676916219818  1.0000
  N   N3        1.0  0.0471201991673027  0.7986771419632248  0.4097334636728363  1.0000
  N   N4        1.0  0.4528864544294535  0.7986819669542271  0.909731467890218  1.0000
  O   O1        1.0  0.8818403351986532  0.11815076093523663  0.7033820068503402  1.0000
  O   O2        1.0  0.6181579775256124  0.1181495546874842  0.2033792007210522  1.0000
  O   O3        1.0  0.1181551441758018  0.8818599868528452  0.2966224216752806  1.0000
  O   O4        1.0  0.381847689174009  0.8818515431185929  0.7966198549908086  1.0000
