data_image0
_chemical_formula_structural       Cd2H16C12I4N8
_chemical_formula_sum              "Cd2 H16 C12 I4 N8"
_cell_length_a       4.253988182473872
_cell_length_b       9.418791222017388
_cell_length_c       14.64621493787975
_cell_angle_alpha    95.81176912380901
_cell_angle_beta     90.14954611656607
_cell_angle_gamma    102.35612674399512

_space_group_name_H-M_alt    "P 1"
_space_group_IT_number       1

loop_
  _space_group_symop_operation_xyz
  'x, y, z'

loop_
  _atom_site_type_symbol
  _atom_site_label
  _atom_site_symmetry_multiplicity
  _atom_site_fract_x
  _atom_site_fract_y
  _atom_site_fract_z
  _atom_site_occupancy
  Cd  Cd1       1.0  0.05910807194868539  0.0017766299672886037  0.7506421904862111  1.0000
  Cd  Cd2       1.0  0.9409039976020849  0.9982249576721784  0.24935787178664984  1.0000
  H   H1        1.0  0.6584354440253645  0.6251404372641358  0.001663274447650987  1.0000
  H   H2        1.0  0.02037731375698118  0.3690983885652058  0.4939019134714259  1.0000
  H   H3        1.0  0.34155150956868136  0.37484346172630006  0.9983276429682706  1.0000
  H   H4        1.0  0.9796353279812987  0.6309043553342093  0.5061002591923015  1.0000
  H   H5        1.0  0.9604961619260591  0.45702619339071754  0.8777755157825808  1.0000
  H   H6        1.0  0.48828372696171124  0.5398971666224596  0.615490232224822  1.0000
  H   H7        1.0  0.03949969753821149  0.5429663479763819  0.12221313292712922  1.0000
  H   H8        1.0  0.5117107727136272  0.4601068941364018  0.38451746667777814  1.0000
  H   H9        1.0  0.15681007774924174  0.6401227563687399  0.7428307167461982  1.0000
  H   H10       1.0  0.507671082561508  0.3631524998349604  0.7543913314914621  1.0000
  H   H11       1.0  0.8432045909129329  0.3598841882317315  0.25716621682967405  1.0000
  H   H12       1.0  0.4923057555992399  0.6368538855247293  0.24561921581290858  1.0000
  H   H13       1.0  0.6926136165402852  0.8644095830753783  0.9322304996987613  1.0000
  H   H14       1.0  0.8226912847342122  0.1343151661282533  0.5677608920667154  1.0000
  H   H15       1.0  0.30738821313883585  0.1355854693523071  0.06776921119703873  1.0000
  H   H16       1.0  0.1773148344362312  0.8656886696064136  0.43224065323955335  1.0000
  C   C1        1.0  0.7727070491687513  0.648134034056298  0.9371532616914919  1.0000
  C   C2        1.0  0.11312163662485365  0.3485141810871042  0.5591506744997332  1.0000
  C   C3        1.0  0.2272906903018423  0.3518575139719999  0.0628387494272289  1.0000
  C   C4        1.0  0.8868863625519124  0.6514886613087683  0.4408542332155464  1.0000
  C   C5        1.0  0.9266580303982224  0.5672182705300699  0.8741599819840787  1.0000
  C   C6        1.0  0.34677706518601065  0.4308606466261367  0.6211007486229151  1.0000
  C   C7        1.0  0.07334887002554068  0.43277760627479717  0.1258315798928038  1.0000
  C   C8        1.0  0.653220795414647  0.5691455076688994  0.3789043312751091  1.0000
  C   C9        1.0  0.025901942146518264  0.6589426971079461  0.8048124117926392  1.0000
  C   C10       1.0  0.35733058413947555  0.3423631485264949  0.6924393374658495  1.0000
  C   C11       1.0  0.9741074724927045  0.34106312607820405  0.19518309434622694  1.0000
  C   C12       1.0  0.6426498045729969  0.6576409106845915  0.3075669901355057  1.0000
  I   I1        1.0  0.49067014765717665  0.8759102524165242  0.6197600946761028  1.0000
  I   I2        1.0  0.6122931999406661  0.1271781696006613  0.8814016518631576  1.0000
  I   I3        1.0  0.5093411469883691  0.1240945774308315  0.3802387738717813  1.0000
  I   I4        1.0  0.3877062953663851  0.8728169108583116  0.1185987425258546  1.0000
  N   N1        1.0  0.9383812418358559  0.7872776925891856  0.8242602423785571  1.0000
  N   N2        1.0  0.14427303205403058  0.2145850043902655  0.6751014851356133  1.0000
  N   N3        1.0  0.061632805708491396  0.2127183335081355  0.17573679337690612  1.0000
  N   N4        1.0  0.855719093975317  0.7854190207490673  0.3249048451625002  1.0000
  N   N5        1.0  0.7857194444566885  0.7783084124831845  0.9046333271962228  1.0000
  N   N6        1.0  0.9995919876359379  0.220716549762507  0.5940969092780082  1.0000
  N   N7        1.0  0.2142747968274107  0.2216855465614741  0.09536563975578362  1.0000
  N   N8        1.0  0.0004042349500323216  0.7792862630542955  0.4059059436428144  1.0000
