data_image0
_chemical_formula_structural       Gd4H28C32O28
_chemical_formula_sum              "Gd4 H28 C32 O28"
_cell_length_a       7.223162891004001
_cell_length_b       7.672950782022782
_cell_length_c       17.372043025960135
_cell_angle_alpha    92.13472391885163
_cell_angle_beta     89.99995411247346
_cell_angle_gamma    90.00011309455851

_space_group_name_H-M_alt    "P 1"
_space_group_IT_number       1

loop_
  _space_group_symop_operation_xyz
  'x, y, z'

loop_
  _atom_site_type_symbol
  _atom_site_label
  _atom_site_symmetry_multiplicity
  _atom_site_fract_x
  _atom_site_fract_y
  _atom_site_fract_z
  _atom_site_occupancy
  Gd  Gd1       1.0  0.5079701693348609  0.8563153496906466  0.7464496206719318  1.0000
  Gd  Gd2       1.0  0.007970139881443596  0.6436854433572066  0.7535509145397725  1.0000
  Gd  Gd3       1.0  0.4920308975105955  0.14368359659534488  0.2535494536557579  1.0000
  Gd  Gd4       1.0  0.9920295425286341  0.3563148228283167  0.2464499060885572  1.0000
  H   H1        1.0  0.18309772439219774  0.03684935776060879  0.8022020347903692  1.0000
  H   H2        1.0  0.6830980715383532  0.46315078957083944  0.6977972972697941  1.0000
  H   H3        1.0  0.8169033424559515  0.9631521968736507  0.1977970778233953  1.0000
  H   H4        1.0  0.3169029953059948  0.5368481671995936  0.3022029284961505  1.0000
  H   H5        1.0  0.3096324944451894  0.20801200467663247  0.8078769662004035  1.0000
  H   H6        1.0  0.8096324939682942  0.2919883800023583  0.6921229033366672  1.0000
  H   H7        1.0  0.6903671879659965  0.791988251024449  0.1921227029896713  1.0000
  H   H8        1.0  0.19036857287471068  0.7080092725939409  0.3078773032862472  1.0000
  H   H9        1.0  0.6628670440473597  0.03465984229887909  0.5205921407280911  1.0000
  H   H10       1.0  0.1628658681838004  0.46534026792156885  0.9794071974465696  1.0000
  H   H11       1.0  0.3371340227988924  0.9653404134034672  0.4794075284617633  1.0000
  H   H12       1.0  0.8371338142268312  0.5346599930217336  0.020593047462625698  1.0000
  H   H13       1.0  0.2944261982152696  0.298255217215086  0.5549594278866792  1.0000
  H   H14       1.0  0.7944241362163067  0.20174775315925328  0.9450410602516683  1.0000
  H   H15       1.0  0.7055762530681945  0.7017476520790282  0.4450408553081786  1.0000
  H   H16       1.0  0.20557693062939106  0.798252507785314  0.054959184657320706  1.0000
  H   H17       1.0  0.48783166863793775  0.24756684475167387  0.6123017035304346  1.0000
  H   H18       1.0  0.9878312079093519  0.2524338720439658  0.8876986878691469  1.0000
  H   H19       1.0  0.5121693982077601  0.7524334161929006  0.3876985413785619  1.0000
  H   H20       1.0  0.01216847450263  0.7475676930734635  0.1123015761830928  1.0000
  H   H21       1.0  0.6012226412751573  0.32591034006957625  0.48703542866361  1.0000
  H   H22       1.0  0.10122175532421808  0.17409128549278563  0.0129652580610085  1.0000
  H   H23       1.0  0.39877704113547446  0.674089920873726  0.5129648162455922  1.0000
  H   H24       1.0  0.8987765426513477  0.8259089754492449  0.9870349868483999  1.0000
  H   H25       1.0  0.6678556107165291  0.49265854185317437  0.5543952861471055  1.0000
  H   H26       1.0  0.1678563094741747  0.007340283829947195  0.9456051828148162  1.0000
  H   H27       1.0  0.33214407169410254  0.5073417190901283  0.4456049587620968  1.0000
  H   H28       1.0  0.8321433729351142  0.9926586729392213  0.0543950429513416  1.0000
  C   C1        1.0  0.922799812168641  0.971813959289136  0.5730615767575388  1.0000
  C   C2        1.0  0.4227992061799242  0.5281849706148164  0.9269370676378657  1.0000
  C   C3        1.0  0.07720125467950817  0.02818759534513049  0.4269375358562328  1.0000
  C   C4        1.0  0.5772004762266715  0.47181137780607685  0.0730631198422103  1.0000
  C   C5        1.0  0.11434094685268548  0.9508831361607761  0.5610781551716713  1.0000
  C   C6        1.0  0.6143399613489391  0.5491165373459808  0.9389211773107107  1.0000
  C   C7        1.0  0.8856601199900708  0.0491132017769402  0.4389208808699365  1.0000
  C   C8        1.0  0.3856597210611454  0.45088372883954253  0.0610796433176191  1.0000
  C   C9        1.0  0.8115595173345509  0.0206401379797683  0.5117971740197902  1.0000
  C   C10       1.0  0.3115583538686835  0.47935894605880236  0.9882026757920171  1.0000
  C   C11       1.0  0.1884429339521603  0.9793653344203933  0.488202571742022  1.0000
  C   C12       1.0  0.6884413285338622  0.5206334898396818  0.0117974542589465  1.0000
  C   C13       1.0  0.24484045755273337  0.9058103163864502  0.6236404743402417  1.0000
  C   C14       1.0  0.7448410716291247  0.5941882923258957  0.8763587995583251  1.0000
  C   C15       1.0  0.7551592248562996  0.0941873257241355  0.37635858084462376  1.0000
  C   C16       1.0  0.2551572263477908  0.40581327279026874  0.12364146449412772  1.0000
  C   C17       1.0  0.820467810795556  0.945313186135003  0.6468705826259082  1.0000
  C   C18       1.0  0.32046740274644475  0.5546855665436256  0.8531292441352747  1.0000
  C   C19       1.0  0.17953187161857193  0.05469099257292949  0.3531302954315406  1.0000
  C   C20       1.0  0.6795308952296679  0.4453146891561842  0.1468704250550061  1.0000
  C   C21       1.0  0.352524121574163  0.48287298079459623  0.6457569356115584  1.0000
  C   C22       1.0  0.8525246168864058  0.017126178387819397  0.8542429018193687  1.0000
  C   C23       1.0  0.6474741764019497  0.5171272749052136  0.3542427335787224  1.0000
  C   C24       1.0  0.1474750655247732  0.9828740773132619  0.14575676737069898  1.0000
  C   C25       1.0  0.4173073015160539  0.3542894805949927  0.5834553168830539  1.0000
  C   C26       1.0  0.91730517711337  0.14571110683465346  0.9165450958311752  1.0000
  C   C27       1.0  0.5826937653309939  0.6457120845237158  0.4165449471689726  1.0000
  C   C28       1.0  0.08269450529726187  0.854289154108649  0.08345514907802  1.0000
  C   C29       1.0  0.5478250565197271  0.43284513590491963  0.5245936305275123  1.0000
  C   C30       1.0  0.0478258230771473  0.06715477377758819  0.9754068938539717  1.0000
  C   C31       1.0  0.45217462589090457  0.567155125038383  0.47540661438168297  1.0000
  C   C32       1.0  0.9521752437680033  0.9328454924091998  0.024593926774151995  1.0000
  O   O1        1.0  0.18187069335689898  0.8502382348580184  0.6872846179637193  1.0000
  O   O2        1.0  0.6818715466627695  0.649761567764024  0.8127152698281678  1.0000
  O   O3        1.0  0.8181289890537325  0.1497620260852841  0.3127156269454757  1.0000
  O   O4        1.0  0.3181267513146934  0.35023999210991963  0.1872844185051505  1.0000
  O   O5        1.0  0.31002694245217544  0.08286547169241487  0.7922269198414966  1.0000
  O   O6        1.0  0.8100271739480716  0.4171336095361938  0.7077729304332792  1.0000
  O   O7        1.0  0.6899741243927264  0.9171334798357974  0.2077727302053205  1.0000
  O   O8        1.0  0.1899725084612101  0.5828653472329676  0.2922272953328786  1.0000
  O   O9        1.0  0.4174726179218453  0.9258225910874884  0.6145777037410625  1.0000
  O   O10       1.0  0.9174717881509834  0.5741763395288971  0.8854220937026652  1.0000
  O   O11       1.0  0.5825256800561647  0.07417896354423449  0.3854214088731283  1.0000
  O   O12       1.0  0.08252512538626888  0.42582131830580733  0.1145786886400018  1.0000
  O   O13       1.0  0.7372927748421813  0.0721973481479381  0.6794665896272534  1.0000
  O   O14       1.0  0.2372932113412674  0.4278016049051275  0.8205338583488881  1.0000
  O   O15       1.0  0.26270552313148693  0.9278016138621792  0.320534211858245  1.0000
  O   O16       1.0  0.7627064710688102  0.5721986612803889  0.17946696227944156  1.0000
  O   O17       1.0  0.7990545670770927  0.7891845655240742  0.6707095870840121  1.0000
  O   O18       1.0  0.29905314767185587  0.7108141426325997  0.8292896704298656  1.0000
  O   O19       1.0  0.2009464997683637  0.21081438076191716  0.3292894872436776  1.0000
  O   O20       1.0  0.7009479191762934  0.28918741200166653  0.1707094421839059  1.0000
  O   O21       1.0  0.47606839425542086  0.5713219659292222  0.6835497578405736  1.0000
  O   O22       1.0  0.9760684402292623  0.9286783763456935  0.8164500410368021  1.0000
  O   O23       1.0  0.523931288155758  0.4286782897718594  0.3164499113494941  1.0000
  O   O24       1.0  0.0239312421819236  0.07132187935538778  0.18354962815326556  1.0000
  O   O25       1.0  0.18022010344363792  0.49605053435887925  0.6585897632823219  1.0000
  O   O26       1.0  0.6802205959133829  0.0039496129364379965  0.8414101453666447  1.0000
  O   O27       1.0  0.8197781945324747  0.5039497213409305  0.3414099059079518  1.0000
  O   O28       1.0  0.319779086497796  0.9960506427646365  0.158589523823423  1.0000
