data_image0
_chemical_formula_structural       Zn4H42C64N10Cl6O16
_chemical_formula_sum              "Zn4 H42 C64 N10 Cl6 O16"
_cell_length_a       11.1376834786753
_cell_length_b       14.02817566511043
_cell_length_c       26.468789129020752
_cell_angle_alpha    90.7445091503276
_cell_angle_beta     89.72084368694362
_cell_angle_gamma    89.75993563351699

_space_group_name_H-M_alt    "P 1"
_space_group_IT_number       1

loop_
  _space_group_symop_operation_xyz
  'x, y, z'

loop_
  _atom_site_type_symbol
  _atom_site_label
  _atom_site_symmetry_multiplicity
  _atom_site_fract_x
  _atom_site_fract_y
  _atom_site_fract_z
  _atom_site_occupancy
  Zn  Zn1       1.0  0.49578274630236047  0.40178630086543876  0.4975537224927322  1.0000
  Zn  Zn2       1.0  0.4942226137270254  0.6010658594351453  0.5044857653122108  1.0000
  Zn  Zn3       1.0  0.503583042975954  0.6001933945174114  0.07982440120547102  1.0000
  Zn  Zn4       1.0  0.5043686419068862  0.4015312961660769  0.0819442264923893  1.0000
  H   H1        1.0  0.4678984576933516  0.2506379341279157  0.4179392369935685  1.0000
  H   H2        1.0  0.3118369412169101  0.7507027583544498  0.4823164988110521  1.0000
  H   H3        1.0  0.673674511380362  0.7573138675568745  0.516814249786549  1.0000
  H   H4        1.0  0.6784927935190551  0.9368268561094624  0.5118788074576202  1.0000
  H   H5        1.0  0.5212441376269012  0.24506520200831966  0.5724632705713191  1.0000
  H   H6        1.0  0.5216166279981493  0.0651203096162263  0.5725776566189468  1.0000
  H   H7        1.0  0.49261600588134485  0.28200254827227406  0.23457135670409465  1.0000
  H   H8        1.0  0.6502549734627363  0.30280721500086843  0.2379344820187583  1.0000
  H   H9        1.0  0.6399940221855259  0.2910960706909691  0.33287142637130535  1.0000
  H   H10       1.0  0.4815499026667211  0.2732826606646412  0.3290220003017765  1.0000
  H   H11       1.0  0.5791449284550721  0.3528569910597951  0.6603613946497334  1.0000
  H   H12       1.0  0.5975350085636036  0.6289234654733561  0.917050714918446  1.0000
  H   H13       1.0  0.3901627396436992  0.37196174842776497  0.9223005265085719  1.0000
  H   H14       1.0  0.386823940134235  0.365631632048256  0.8277667024656737  1.0000
  H   H15       1.0  0.3845882666973849  0.6178024794876933  0.6630868321145018  1.0000
  H   H16       1.0  0.38857455173613425  0.6183099403819057  0.7575498375447296  1.0000
  H   H17       1.0  0.8754689670835204  0.7354051341984374  0.47415535750749177  1.0000
  H   H18       1.0  0.8905778673372919  0.731848896659379  0.5414082305795347  1.0000
  H   H19       1.0  0.1147311261803381  0.7323545815712579  0.5319010260711536  1.0000
  H   H20       1.0  0.09906167948638972  0.7341644172623845  0.4647436841983037  1.0000
  H   H21       1.0  0.5334983246984776  0.7582194493580232  0.15654242810227706  1.0000
  H   H22       1.0  0.3224830648788809  0.2501847598960865  0.10055058938994682  1.0000
  H   H23       1.0  0.6823988743636065  0.24775433546325595  0.0610054010454917  1.0000
  H   H24       1.0  0.688175232527456  0.0677512812059078  0.05781623426882731  1.0000
  H   H25       1.0  0.48844244265169573  0.7524258128361155  0.0012781362561327006  1.0000
  H   H26       1.0  0.48464820880342774  0.9323173708719494  0.9979583772699672  1.0000
  H   H27       1.0  0.8862267942362576  0.2720970035773362  0.1138189152055631  1.0000
  H   H28       1.0  0.9006032117903756  0.26954070346188524  0.0464628946032732  1.0000
  H   H29       1.0  0.124566100574711  0.268963401795304  0.05438199761209011  1.0000
  H   H30       1.0  0.1104598809480777  0.2737898916125658  0.1216687374565169  1.0000
  H   H31       1.0  0.5098257843113742  0.6704759870879825  0.38435855426197213  1.0000
  H   H32       1.0  0.5359622705741953  0.7329989972503695  0.3299533798326736  1.0000
  H   H33       1.0  0.45700777571146023  0.6783073807909333  0.2094128246716735  1.0000
  H   H34       1.0  0.421782780017537  0.7243975319884796  0.268002728246735  1.0000
  H   H35       1.0  0.20461011751320504  0.33856575739200423  0.4963334678022521  1.0000
  H   H36       1.0  0.0725689956409852  0.2838203818294645  0.5135870722331292  1.0000
  H   H37       1.0  0.7847973846596188  0.3407475288996124  0.493723931822558  1.0000
  H   H38       1.0  0.915933092459795  0.2875953811896821  0.47274376958261405  1.0000
  H   H39       1.0  0.21168242364647227  0.6650612637887505  0.07691220092186062  1.0000
  H   H40       1.0  0.07845286565797238  0.7185007605776266  0.06037048632014571  1.0000
  H   H41       1.0  0.7924886222035922  0.6644533599866166  0.08583911464039323  1.0000
  H   H42       1.0  0.9242840106743626  0.7192548424943866  0.1032053261434243  1.0000
  C   C1        1.0  0.48144024869468166  0.4857012742607623  0.5993873280934069  1.0000
  C   C2        1.0  0.2586623704312458  0.5125371388089306  0.49529064725442856  1.0000
  C   C3        1.0  0.515077125271567  0.4940438212773373  0.40156400879148885  1.0000
  C   C4        1.0  0.7312567187957697  0.5136405459515531  0.5057842506550615  1.0000
  C   C5        1.0  0.4955378193611678  0.5062005116780384  0.9819006067907525  1.0000
  C   C6        1.0  0.2675823091492404  0.49238593912042455  0.08422698455950693  1.0000
  C   C7        1.0  0.5137520702919787  0.5126878112948033  0.18013026544456787  1.0000
  C   C8        1.0  0.7401165175730708  0.4907279128510353  0.0782131387579668  1.0000
  C   C9        1.0  0.477956728883882  0.2065430251322766  0.4513088479363106  1.0000
  C   C10       1.0  0.4759857971506988  0.1071106951098173  0.4482355355829597  1.0000
  C   C11       1.0  0.39102628785406063  0.7949058539514908  0.48807385389496727  1.0000
  C   C12       1.0  0.38641652980764707  0.8939867707153014  0.4841843920925443  1.0000
  C   C13       1.0  0.5939993065642141  0.7992090721059028  0.5079730664909975  1.0000
  C   C14       1.0  0.5955005553134639  0.8980024460135212  0.5049289144626385  1.0000
  C   C15       1.0  0.5094857751525694  0.20286626156143234  0.5379803074339691  1.0000
  C   C16       1.0  0.5091980430262665  0.10385072401790302  0.5375432862586892  1.0000
  C   C17       1.0  0.4909670694712886  0.05341674157439508  0.4922080899374422  1.0000
  C   C18       1.0  0.4905213223044384  0.9479336784425314  0.49272718077702393  1.0000
  C   C19       1.0  0.5204209308430237  0.5124875837104099  0.2360607758584267  1.0000
  C   C20       1.0  0.5206308064925976  0.5026766536951328  0.3458873306771367  1.0000
  C   C21       1.0  0.539842998943655  0.4273770527662818  0.2621884456774239  1.0000
  C   C22       1.0  0.5083726797591835  0.5910756528627488  0.32082501787195383  1.0000
  C   C23       1.0  0.5366987949742351  0.42232957188909376  0.31435106865211543  1.0000
  C   C24       1.0  0.5025582406270104  0.5950613355313549  0.26675916156496277  1.0000
  C   C25       1.0  0.56281571682117  0.32154265653549174  0.25490532524246134  1.0000
  C   C26       1.0  0.5570696425714415  0.31539199528106104  0.3145248088003926  1.0000
  C   C27       1.0  0.481052960665039  0.4852514170398904  0.6560432462249182  1.0000
  C   C28       1.0  0.4933078867363036  0.5010329214099016  0.9253045621699558  1.0000
  C   C29       1.0  0.5368685694438752  0.41088559709305633  0.6816900440298  1.0000
  C   C30       1.0  0.5415571622813431  0.41288616596532535  0.7343377360246779  1.0000
  C   C31       1.0  0.5512012868966991  0.5713169006130059  0.8974095996840816  1.0000
  C   C32       1.0  0.551676682037069  0.5660783126062654  0.8448059199120694  1.0000
  C   C33       1.0  0.4349662626351502  0.4262553835539861  0.9001038260869196  1.0000
  C   C34       1.0  0.4338916524146867  0.4228594535670568  0.8475656503437321  1.0000
  C   C35       1.0  0.4278313723535446  0.5603268248037239  0.6835166851175886  1.0000
  C   C36       1.0  0.43092035462018424  0.5604994639278686  0.7359777911093774  1.0000
  C   C37       1.0  0.4887576816393562  0.48767826174308476  0.762681348515436  1.0000
  C   C38       1.0  0.4923603433797297  0.49216716385099346  0.8186293493621265  1.0000
  C   C39       1.0  0.8641372516554212  0.5103281543347649  0.5028790187552091  1.0000
  C   C40       1.0  0.1256232993248076  0.5096330446473516  0.4954403870120744  1.0000
  C   C41       1.0  0.9329651427644803  0.5940429464742536  0.5028318868626798  1.0000
  C   C42       1.0  0.059294025890714884  0.42342247100006586  0.4957254179552067  1.0000
  C   C43       1.0  0.056760722719055  0.5937708402505066  0.49831758491490064  1.0000
  C   C44       1.0  0.9302604977023134  0.4238687716605368  0.4979710627999481  1.0000
  C   C45       1.0  0.9242507120840384  0.7018784034184479  0.5053756550006412  1.0000
  C   C46       1.0  0.06565137607761778  0.701557447983184  0.4996665618041548  1.0000
  C   C47       1.0  0.5200072412143938  0.7990636118098278  0.12230549020561912  1.0000
  C   C48       1.0  0.5161685016379066  0.8984037928951097  0.12383562337490163  1.0000
  C   C49       1.0  0.4014257630020167  0.20673757706739335  0.09169761041906101  1.0000
  C   C50       1.0  0.3976324864398463  0.10732927225802058  0.09132304702109911  1.0000
  C   C51       1.0  0.6032890593537558  0.20479023224827125  0.06887022737988252  1.0000
  C   C52       1.0  0.6053678858145801  0.10569888014424579  0.0673419817527616  1.0000
  C   C53       1.0  0.4961152496340731  0.7968659839040909  0.03521992644591171  1.0000
  C   C54       1.0  0.49414115792982466  0.8959840542404577  0.0338767163714166  1.0000
  C   C55       1.0  0.5030115395774287  0.9490859377773829  0.07882332743823643  1.0000
  C   C56       1.0  0.501351390697671  0.0547030004462314  0.07895731040857612  1.0000
  C   C57       1.0  0.873016276654809  0.4940856697568563  0.07968649777009772  1.0000
  C   C58       1.0  0.13453072392711357  0.4950146561411728  0.08451823080631729  1.0000
  C   C59       1.0  0.9425750015973902  0.4103947701033092  0.08112235545937102  1.0000
  C   C60       1.0  0.0673794537002479  0.5811038837365033  0.08228308908750391  1.0000
  C   C61       1.0  0.06648569621584949  0.41084197712040554  0.08466349991731902  1.0000
  C   C62       1.0  0.938386618098775  0.5807653392633298  0.0816253410385244  1.0000
  C   C63       1.0  0.9345219307548972  0.30257615924382003  0.0815104011250298  1.0000
  C   C64       1.0  0.07607590718287578  0.30307227632159334  0.0861575293078687  1.0000
  N   N1        1.0  0.4938972353189539  0.2528652766587243  0.4954389929150055  1.0000
  N   N2        1.0  0.4929329211735974  0.7491545515566643  0.4998412578276969  1.0000
  N   N3        1.0  0.5084788294341961  0.7496284746352089  0.07887972487773712  1.0000
  N   N4        1.0  0.5027927338759425  0.253694536431567  0.08084050646888842  1.0000
  N   N5        1.0  0.4934608590163662  0.6774297817470584  0.34659831767410765  1.0000
  N   N6        1.0  0.47997080590109675  0.6845519906478188  0.2466159318884351  1.0000
  N   N7        1.0  0.11347648532227339  0.3343073135260823  0.4923538720652445  1.0000
  N   N8        1.0  0.8760190908913683  0.33488934267101905  0.4970675887575383  1.0000
  N   N9        1.0  0.12094720610959084  0.6703338937005084  0.08255135424992233  1.0000
  N   N10       1.0  0.8833367468214133  0.6697887061101182  0.08080369875386852  1.0000
  Cl  Cl1       1.0  0.4588292467648499  0.0534110503058756  0.3899192179082292  1.0000
  Cl  Cl2       1.0  0.25077331868601493  0.9473197887990139  0.4712234723342804  1.0000
  Cl  Cl3       1.0  0.6183901690881227  0.32174911603777906  0.7643683789367375  1.0000
  Cl  Cl4       1.0  0.6310195266182389  0.6522272622460861  0.8120004236457419  1.0000
  Cl  Cl5       1.0  0.5286240755758485  0.9565813773591288  0.1811712327709074  1.0000
  Cl  Cl6       1.0  0.26494667415990136  0.05112694324131439  0.10594522498837483  1.0000
  O   O1        1.0  0.491767375837142  0.40573538648165913  0.5763996748312081  1.0000
  O   O2        1.0  0.4721658685105935  0.5669311097032903  0.5788232787116669  1.0000
  O   O3        1.0  0.3091050976436378  0.5939776720378094  0.49583809853736244  1.0000
  O   O4        1.0  0.3169147112697814  0.43292958462783554  0.4954293534622566  1.0000
  O   O5        1.0  0.5154948241409301  0.5707688593901779  0.4286453237477446  1.0000
  O   O6        1.0  0.5090236722350737  0.41044624583994244  0.4198993283466238  1.0000
  O   O7        1.0  0.6739086231916146  0.434402289413633  0.5022275366998485  1.0000
  O   O8        1.0  0.6800301647214794  0.5947043884583679  0.5113337775750537  1.0000
  O   O9        1.0  0.511461840459681  0.5883676453808422  0.0019830479545533014  1.0000
  O   O10       1.0  0.4819674979430174  0.42854990174214425  0.0054147417445094  1.0000
  O   O11       1.0  0.31926781875063165  0.4120046476162572  0.08994012498763482  1.0000
  O   O12       1.0  0.3242907990799893  0.5711414576884621  0.07751649140502792  1.0000
  O   O13       1.0  0.5261814627258089  0.4328363485024269  0.15719998053192097  1.0000
  O   O14       1.0  0.49523164495866445  0.5924256888616881  0.1576785654523576  1.0000
  O   O15       1.0  0.6820816751641627  0.5699447235691224  0.0830328790277477  1.0000
  O   O16       1.0  0.6895875436766019  0.40989139063563584  0.07260312428871883  1.0000
