data_image0
_chemical_formula_structural       Zn2H8C44I8N2O14
_chemical_formula_sum              "Zn2 H8 C44 I8 N2 O14"
_cell_length_a       14.98545959391227
_cell_length_b       14.783243784039566
_cell_length_c       16.04165718850928
_cell_angle_alpha    88.97106462227802
_cell_angle_beta     90.01522260712972
_cell_angle_gamma    87.53631167893023

_space_group_name_H-M_alt    "P 1"
_space_group_IT_number       1

loop_
  _space_group_symop_operation_xyz
  'x, y, z'

loop_
  _atom_site_type_symbol
  _atom_site_label
  _atom_site_symmetry_multiplicity
  _atom_site_fract_x
  _atom_site_fract_y
  _atom_site_fract_z
  _atom_site_occupancy
  Zn  Zn1       1.0  0.5075228498800614  0.39717691337795447  0.5087156113146565  1.0000
  Zn  Zn2       1.0  0.5008363844181715  0.589444890226005  0.5015618188628181  1.0000
  H   H1        1.0  0.2355742122431295  0.591856682061561  0.5810537084578657  1.0000
  H   H2        1.0  0.768798753113593  0.458879288414721  0.38594329955513035  1.0000
  H   H3        1.0  0.19261409047211936  0.35639748552518563  0.3287331489262045  1.0000
  H   H4        1.0  0.7163953044999046  0.5286016067813505  0.6626379539459606  1.0000
  H   H5        1.0  0.2647489353859739  0.5612117923091515  0.9545708403447865  1.0000
  H   H6        1.0  0.6614892831391755  0.4853834699804409  0.14810859500109075  1.0000
  H   H7        1.0  0.33761717989141715  0.4880092421582916  0.1768815679887652  1.0000
  H   H8        1.0  0.6859180841166221  0.5309706783621523  0.8944896452090989  1.0000
  C   C1        1.0  0.4786670121984145  0.4979736508874026  0.6633716432521909  1.0000
  C   C2        1.0  0.47559424454399135  0.4877903320419392  0.916867613957834  1.0000
  C   C3        1.0  0.5030447286659551  0.4835196697642344  0.18080974781015166  1.0000
  C   C4        1.0  0.4696552180423481  0.49278060929196943  0.8289512020348158  1.0000
  C   C5        1.0  0.472121445716823  0.4975191335338494  0.7531748995359282  1.0000
  C   C6        1.0  0.5139667381086568  0.48241899566269086  0.256090906160118  1.0000
  C   C7        1.0  0.588779129231547  0.034485170152358094  0.5385773075708116  1.0000
  C   C8        1.0  0.4360773123866152  0.9505257953335259  0.47380174717813633  1.0000
  C   C9        1.0  0.436486086050536  0.04525170742812891  0.4763778137108049  1.0000
  C   C10       1.0  0.5895328022771338  0.9397939347558832  0.5342078282481354  1.0000
  C   C11       1.0  0.5126142461950635  0.08589619303426589  0.5094172964512398  1.0000
  C   C12       1.0  0.5223969938408857  0.48192893535031084  0.3459345201767548  1.0000
  C   C13       1.0  0.5127854048840987  0.8993890887007439  0.5023998894113648  1.0000
  C   C14       1.0  0.512097509976357  0.18179644173436318  0.5132084748897656  1.0000
  C   C15       1.0  0.5115936896387723  0.8036024862835304  0.49942073524083974  1.0000
  C   C16       1.0  0.6747969876301311  0.4966525424755017  0.5203241646378914  1.0000
  C   C17       1.0  0.3350870641674959  0.5013889938294865  0.4767802930847368  1.0000
  C   C18       1.0  0.18464638478672407  0.47927020449964153  0.40463803504519563  1.0000
  C   C19       1.0  0.8235866412227465  0.5506676166850182  0.572577534260347  1.0000
  C   C20       1.0  0.2349414408011654  0.5136027312878113  0.46993824976136284  1.0000
  C   C21       1.0  0.7732110788917836  0.5102572689194175  0.5100088055004691  1.0000
  C   C22       1.0  0.19402500045877963  0.5636650879496797  0.5330818383425537  1.0000
  C   C23       1.0  0.9639500662897618  0.6341208193127628  0.6042802480046563  1.0000
  C   C24       1.0  0.810366729379261  0.48815332732964106  0.4332766994608195  1.0000
  C   C25       1.0  0.1011249010943303  0.5764837271351411  0.5368595105601984  1.0000
  C   C26       1.0  0.9010180950222092  0.5006555259248769  0.4171656611083138  1.0000
  C   C27       1.0  0.04831045759620881  0.5396030291263257  0.4723684660029478  1.0000
  C   C28       1.0  0.9538242066442066  0.540176003802408  0.4803509351302254  1.0000
  C   C29       1.0  0.0908604815801439  0.49790303577776723  0.40222428568228014  1.0000
  C   C30       1.0  0.912184205900168  0.5749540500938152  0.5541109638425967  1.0000
  C   C31       1.0  0.055690298154999616  0.6315664464958815  0.5985709794434939  1.0000
  C   C32       1.0  0.9436302862608343  0.4797798354364957  0.33865930329412924  1.0000
  C   C33       1.0  0.2312651521220275  0.41603243568079046  0.34612617161393194  1.0000
  C   C34       1.0  0.035173000898957696  0.4806606338779673  0.33064025895571103  1.0000
  C   C35       1.0  0.7878041042771783  0.5456814490044408  0.658757083867123  1.0000
  C   C36       1.0  0.308460072020182  0.5063382582034066  0.9279378160822918  1.0000
  C   C37       1.0  0.6596548812584475  0.47764265185961097  0.07932693635653723  1.0000
  C   C38       1.0  0.3269960963896352  0.48370037207018146  0.10854887667294123  1.0000
  C   C39       1.0  0.643308953713479  0.4712786609797205  0.8993368677137713  1.0000
  C   C40       1.0  0.4072571744462081  0.4886740142432159  0.05569752154791983  1.0000
  C   C41       1.0  0.5613421245445166  0.4806648706081233  0.9545415338700426  1.0000
  C   C42       1.0  0.3986889187070446  0.49264739356546267  0.9683151107995018  1.0000
  C   C43       1.0  0.569879305247909  0.4816046046346613  0.04143683095302461  1.0000
  C   C44       1.0  0.49303869185767724  0.48522557715281067  0.09341934981907943  1.0000
  I   I1        1.0  0.1340847337950208  0.7119532105579864  0.6741450054611422  1.0000
  I   I2        1.0  0.8623027604861446  0.45537829518421796  0.2348862598487146  1.0000
  I   I3        1.0  0.8964093431424517  0.7412147598416253  0.6673042572855437  1.0000
  I   I4        1.0  0.0979621296031752  0.47505493830612266  0.21287268345329124  1.0000
  I   I5        1.0  0.699550460752654  0.8556394965099299  0.572334015215546  1.0000
  I   I6        1.0  0.32996268121291183  0.12865412885236788  0.4332094085904644  1.0000
  I   I7        1.0  0.3267220473081309  0.882225540364203  0.43045301186408136  1.0000
  I   I8        1.0  0.6953871006410351  0.10293037623937099  0.5872483965206288  1.0000
  N   N1        1.0  0.5077826608240912  0.7255137424095893  0.49639838685925525  1.0000
  N   N2        1.0  0.5108395819743095  0.26023075614089913  0.5160922240592214  1.0000
  O   O1        1.0  0.5029797379504187  0.42228517631724577  0.6320792811077498  1.0000
  O   O2        1.0  0.832310655614478  0.5523559340081261  0.7223897717592538  1.0000
  O   O3        1.0  0.28652787298643995  0.46485647870190405  0.866684932915412  1.0000
  O   O4        1.0  0.7288559913351235  0.46734791717139496  0.03887126394842971  1.0000
  O   O5        1.0  0.25184839134698217  0.47364361198703614  0.07970168062394123  1.0000
  O   O6        1.0  0.6577466843990507  0.40329203647824835  0.8587786523466223  1.0000
  O   O7        1.0  0.53887293294882  0.5569078738435707  0.3787846570578851  1.0000
  O   O8        1.0  0.5118396055377017  0.4059838309639971  0.3819871796877338  1.0000
  O   O9        1.0  0.46112778761015255  0.5725817642672764  0.624953790216246  1.0000
  O   O10       1.0  0.6453719798221371  0.41929465531503496  0.5071411467725256  1.0000
  O   O11       1.0  0.3749701754655987  0.574720143376936  0.4637850850842258  1.0000
  O   O12       1.0  0.36924470802988907  0.42550518847263413  0.5003087254281909  1.0000
  O   O13       1.0  0.6291220920966508  0.5689057833740848  0.5369772842012069  1.0000
  O   O14       1.0  0.30943130217767834  0.4218813868575211  0.3246559018191776  1.0000
