data_image0
_chemical_formula_structural       K4Ho4H20C36N4O40
_chemical_formula_sum              "K4 Ho4 H20 C36 N4 O40"
_cell_length_a       6.570896259086625
_cell_length_b       12.503527698661044
_cell_length_c       14.057532510579318
_cell_angle_alpha    89.99896983734911
_cell_angle_beta     89.99988949925569
_cell_angle_gamma    89.99942128785479

_space_group_name_H-M_alt    "P 1"
_space_group_IT_number       1

loop_
  _space_group_symop_operation_xyz
  'x, y, z'

loop_
  _atom_site_type_symbol
  _atom_site_label
  _atom_site_symmetry_multiplicity
  _atom_site_fract_x
  _atom_site_fract_y
  _atom_site_fract_z
  _atom_site_occupancy
  K   K1        1.0  0.1022544512848711  0.6426735554942126  0.4725165971139307  1.0000
  K   K2        1.0  0.3978019466933205  0.3573034297260095  0.9725061840344866  1.0000
  K   K3        1.0  0.8977771639126502  0.1426842806429889  0.027506808045224304  1.0000
  K   K4        1.0  0.6022647348229668  0.8573406931823798  0.5275001116875233  1.0000
  Ho  Ho1       1.0  0.11291674089273579  0.35320682240527645  0.2754096225347453  1.0000
  Ho  Ho2       1.0  0.38707495748049325  0.6467957616270112  0.775409552932935  1.0000
  Ho  Ho3       1.0  0.8870773279356358  0.8532017868554931  0.2245919377518107  1.0000
  Ho  Ho4       1.0  0.6129151307701193  0.14679838852266164  0.7245901332155287  1.0000
  H   H1        1.0  0.36109542910235604  0.5636273884697616  0.2945192889158648  1.0000
  H   H2        1.0  0.138902284963784  0.4363692088612438  0.7945185426527887  1.0000
  H   H3        1.0  0.6388966224763026  0.0636198692785186  0.2054847445265935  1.0000
  H   H4        1.0  0.8610989518496835  0.9363710970219116  0.7054829386305388  1.0000
  H   H5        1.0  0.3297926971932554  0.5376623089072795  0.1852905263812872  1.0000
  H   H6        1.0  0.17020390551330425  0.4623333086627994  0.6852886249248015  1.0000
  H   H7        1.0  0.6701968119878075  0.0376628020741023  0.31471605419149995  1.0000
  H   H8        1.0  0.8297816112639254  0.9623379415526969  0.8147103091671825  1.0000
  H   H9        1.0  0.1133862526337595  0.9986846187248515  0.5940877270372341  1.0000
  H   H10       1.0  0.3866000397630884  0.0013128519242329001  0.09408743563770373  1.0000
  H   H11       1.0  0.8866289994268898  0.4986885138168518  0.905908494607786  1.0000
  H   H12       1.0  0.6134038681351656  0.501314375644803  0.4059062073558693  1.0000
  H   H13       1.0  0.6090696546325134  0.6657006220014023  0.34417500719983724  1.0000
  H   H14       1.0  0.8909269202451712  0.33430112255449257  0.8441713692673789  1.0000
  H   H15       1.0  0.3909265131937972  0.16570102014419064  0.1558281135500934  1.0000
  H   H16       1.0  0.10907476578193351  0.8342983951111407  0.6558281791485003  1.0000
  H   H17       1.0  0.407394932213201  0.7265425333040555  0.3295127318733933  1.0000
  H   H18       1.0  0.09259656289073352  0.2734549526152747  0.829509643515003  1.0000
  H   H19       1.0  0.5925970169901832  0.22654076832741046  0.17049368907252935  1.0000
  H   H20       1.0  0.9074032543687736  0.7734565073717907  0.6704880274835574  1.0000
  C   C1        1.0  0.11413066887786982  0.3622419386045975  0.50476985904497  1.0000
  C   C2        1.0  0.3858711777916498  0.6377541475188409  0.0047850515931103016  1.0000
  C   C3        1.0  0.8858583026498793  0.8622458066933875  0.9952157288994812  1.0000
  C   C4        1.0  0.6141270515048873  0.1377584672482541  0.4952320296398441  1.0000
  C   C5        1.0  0.12030757010975891  0.24252625760130542  0.4900427613189395  1.0000
  C   C6        1.0  0.37967723425159516  0.7574711657249651  0.9900437835346595  1.0000
  C   C7        1.0  0.8796749392399974  0.7425280214209663  0.009955580315399  1.0000
  C   C8        1.0  0.6203091948689947  0.2574757151548327  0.5099591212862153  1.0000
  C   C9        1.0  0.118900437441404  0.16702521752576877  0.563983792726937  1.0000
  C   C10       1.0  0.38109053366304113  0.8329736645444614  0.0639830795109617  1.0000
  C   C11       1.0  0.8810983913383482  0.6670279144602205  0.9360134374778968  1.0000
  C   C12       1.0  0.6189039258444993  0.3329735635908122  0.4360152458346604  1.0000
  C   C13       1.0  0.1132965079431258  0.059107946572069595  0.5385676755740506  1.0000
  C   C14       1.0  0.38669760242353135  0.9408890525918566  0.03856523990062041  1.0000
  C   C15       1.0  0.886716579708768  0.5591116970169452  0.9614284261346527  1.0000
  C   C16       1.0  0.6133008605714493  0.4408916639499693  0.461428523033007  1.0000
  C   C17       1.0  0.10714866449760051  0.027906538638603703  0.44308459791245997  1.0000
  C   C18       1.0  0.3928561005360934  0.9720926385377595  0.9430829039373452  1.0000
  C   C19       1.0  0.8928729922169863  0.5279056791977654  0.05691289015892662  1.0000
  C   C20       1.0  0.6071474901474617  0.47209630348037734  0.5569108953452968  1.0000
  C   C21       1.0  0.11636136868957442  0.10879159115863503  0.3738157480557831  1.0000
  C   C22       1.0  0.38363909110452704  0.8912049945924425  0.8738117932216343  1.0000
  C   C23       1.0  0.8836450292912732  0.6087909725337113  0.12618472131057962  1.0000
  C   C24       1.0  0.6163554085035444  0.3912136015762189  0.6261847156771553  1.0000
  C   C25       1.0  0.1293538961620726  0.08915097300509699  0.2681977889840752  1.0000
  C   C26       1.0  0.3706378292239236  0.9108621546878908  0.7681914002086359  1.0000
  C   C27       1.0  0.870642228192814  0.5891362804557403  0.23180441570723792  1.0000
  C   C28       1.0  0.6293486815903935  0.4108589497219058  0.7318040846793041  1.0000
  C   C29       1.0  0.11910846394275151  0.19525538960456862  0.668331183750027  1.0000
  C   C30       1.0  0.38088363686254206  0.8047453712099113  0.16832878577896793  1.0000
  C   C31       1.0  0.8808852541116893  0.6952562088898021  0.8316691541408759  1.0000
  C   C32       1.0  0.6191098459243775  0.3047425906370975  0.3316685659771253  1.0000
  C   C33       1.0  0.0927129336981594  0.9097883109827191  0.42190673335890955  1.0000
  C   C34       1.0  0.4073071296280091  0.09020329874269352  0.9219012719835435  1.0000
  C   C35       1.0  0.9073256982725512  0.4097931590171839  0.0780917925258251  1.0000
  C   C36       1.0  0.5927129668096569  0.5902123921447853  0.5780922008635232  1.0000
  N   N1        1.0  0.12260148295145261  0.21199739433243542  0.3988136212876938  1.0000
  N   N2        1.0  0.3773851861114323  0.7880010828300854  0.8988134486682926  1.0000
  N   N3        1.0  0.8773846596801818  0.7119973166525854  0.10118520607515791  1.0000
  N   N4        1.0  0.6226021753003936  0.2880069656307143  0.6011882590467084  1.0000
  O   O1        1.0  0.1212480093741846  0.41953212591951683  0.4285718168208562  1.0000
  O   O2        1.0  0.37875528833320266  0.5804665463096653  0.9285749447501601  1.0000
  O   O3        1.0  0.8787356474414167  0.9195310461606069  0.07142868820066182  1.0000
  O   O4        1.0  0.6212452119996639  0.08046584305203199  0.5714257967206039  1.0000
  O   O5        1.0  0.09824040833171918  0.39740801464831327  0.5875807062742808  1.0000
  O   O6        1.0  0.4017565615938921  0.6025855893148417  0.08758008140197403  1.0000
  O   O7        1.0  0.9017433184243375  0.8974182798285214  0.9124228175502156  1.0000
  O   O8        1.0  0.5982423468706344  0.10259087564446653  0.4124155071221055  1.0000
  O   O9        1.0  0.2863091294599442  0.21518970418830463  0.7094519577210221  1.0000
  O   O10       1.0  0.2136797730627009  0.7848134202378817  0.20944932968757263  1.0000
  O   O11       1.0  0.7136750724694068  0.7151898429244454  0.7905523311984552  1.0000
  O   O12       1.0  0.7863171383540931  0.2848097920244896  0.2905518960038337  1.0000
  O   O13       1.0  0.9501670359177369  0.19223600975654162  0.7112536953705233  1.0000
  O   O14       1.0  0.5498254729290508  0.8077628370911683  0.21125086305433174  1.0000
  O   O15       1.0  0.04981760932540881  0.6922316944801492  0.7887431337921741  1.0000
  O   O16       1.0  0.45016795157729217  0.30776102132363553  0.2887471520484866  1.0000
  O   O17       1.0  0.2393220611503963  0.8521135599700003  0.4455613425633303  1.0000
  O   O18       1.0  0.2606842164676948  0.1478839674060666  0.9455522620342052  1.0000
  O   O19       1.0  0.760710075313611  0.3521132649747045  0.054435255523912915  1.0000
  O   O20       1.0  0.7393225912344975  0.6478895676860291  0.5544431385946141  1.0000
  O   O21       1.0  0.9238389183995254  0.8753865866934374  0.3861883817799807  1.0000
  O   O22       1.0  0.5761757610274786  0.12460550664989258  0.8861862549892481  1.0000
  O   O23       1.0  0.07618972483668779  0.37539350013852857  0.11381353687585263  1.0000
  O   O24       1.0  0.42383910549684595  0.6246123671332953  0.6138123614365796  1.0000
  O   O25       1.0  0.1318395446575877  0.994487776738907  0.2376240550196087  1.0000
  O   O26       1.0  0.3681477301568634  0.0055123759580695  0.7376221136674136  1.0000
  O   O27       1.0  0.8681457084231781  0.4944866880077328  0.2623752574532787  1.0000
  O   O28       1.0  0.6318496519275598  0.5055215171442384  0.7623783975261348  1.0000
  O   O29       1.0  0.14393720034870228  0.1723583935889721  0.21490398333035193  1.0000
  O   O30       1.0  0.3560532035557529  0.8276454199151289  0.7148932418826632  1.0000
  O   O31       1.0  0.8560634045457363  0.6723530922611117  0.2851025883492611  1.0000
  O   O32       1.0  0.6439257830109639  0.327649852572101  0.7850971646687981  1.0000
  O   O33       1.0  0.297363462817991  0.5114115442880729  0.2501093812348287  1.0000
  O   O34       1.0  0.2026344181414217  0.48858595539845606  0.7501056075473118  1.0000
  O   O35       1.0  0.7026219877556984  0.011405985149330899  0.24989975112617918  1.0000
  O   O36       1.0  0.7973642884652961  0.9885880776983741  0.749890063427742  1.0000
  O   O37       1.0  0.46396005039802185  0.6644187721573828  0.3633648006117411  1.0000
  O   O38       1.0  0.03603740492174979  0.33558042526863135  0.8633607793817648  1.0000
  O   O39       1.0  0.5360391859167848  0.1644179938213526  0.1366390519027263  1.0000
  O   O40       1.0  0.9639657782453741  0.835579969694798  0.6366366145743569  1.0000
