data_image0
_chemical_formula_structural       Ag4H32C28S4N8O12F12
_chemical_formula_sum              "Ag4 H32 C28 S4 N8 O12 F12"
_cell_length_a       7.634221691677113
_cell_length_b       11.445464594012922
_cell_length_c       12.96281073352447
_cell_angle_alpha    89.99983151449428
_cell_angle_beta     101.61949182226765
_cell_angle_gamma    89.99999997225295

_space_group_name_H-M_alt    "P 1"
_space_group_IT_number       1

loop_
  _space_group_symop_operation_xyz
  'x, y, z'

loop_
  _atom_site_type_symbol
  _atom_site_label
  _atom_site_symmetry_multiplicity
  _atom_site_fract_x
  _atom_site_fract_y
  _atom_site_fract_z
  _atom_site_occupancy
  Ag  Ag1       1.0  0.790451903805369  0.21780319403448087  0.06542301001788792  1.0000
  Ag  Ag2       1.0  0.709548389578501  0.7178024214047481  0.9345792325812287  1.0000
  Ag  Ag3       1.0  0.20954802492329352  0.7821956139630686  0.9345781368793313  1.0000
  Ag  Ag4       1.0  0.29045287501298844  0.2821972603023468  0.06542130050801383  1.0000
  H   H1        1.0  0.866019062846263  0.6606885735440786  0.12156290768366775  1.0000
  H   H2        1.0  0.6339799402582925  0.1606892629173942  0.8784362454011971  1.0000
  H   H3        1.0  0.13397952715330058  0.3393111081635425  0.8784373098048948  1.0000
  H   H4        1.0  0.3660186468753962  0.8393112925013212  0.1215624288719184  1.0000
  H   H5        1.0  0.6486720164364569  0.6505858903066013  0.11660911925334724  1.0000
  H   H6        1.0  0.8513269959984484  0.15058656278216634  0.8833900611984904  1.0000
  H   H7        1.0  0.351327909426736  0.3494129176935132  0.8833904844296045  1.0000
  H   H8        1.0  0.14867159256837678  0.8494131189267407  0.11660938468293842  1.0000
  H   H9        1.0  0.8686313824909461  0.4677415357739035  0.04221040129954901  1.0000
  H   H10       1.0  0.6313673413326695  0.9677424334920345  0.9577902348370559  1.0000
  H   H11       1.0  0.13136854050637942  0.5322581459373055  0.9577876591679486  1.0000
  H   H12       1.0  0.3686325830969891  0.03225812192641799  0.042208597236388805  1.0000
  H   H13       1.0  0.6378574378715313  0.4579114442608656  0.04047213208992423  1.0000
  H   H14       1.0  0.8621439667567329  0.9579132094631717  0.9595273030604478  1.0000
  H   H15       1.0  0.3621424865589304  0.542087363740535  0.9595266999858938  1.0000
  H   H16       1.0  0.13785595767252096  0.042088219663810406  0.04047152901182472  1.0000
  H   H17       1.0  0.8609549914317824  0.18093930036355493  0.295963614337353  1.0000
  H   H18       1.0  0.6390439958359906  0.6809392948189484  0.7040370271059474  1.0000
  H   H19       1.0  0.13904493443101268  0.8190603813450893  0.7040359893444119  1.0000
  H   H20       1.0  0.36095593432541057  0.3190595131773222  0.2959648913984054  1.0000
  H   H21       1.0  0.8800767380151058  0.2930454359771204  0.463725693501388  1.0000
  H   H22       1.0  0.6199261590360975  0.7930486096928461  0.5362758892637844  1.0000
  H   H23       1.0  0.11992452514405728  0.7069533720227388  0.5362740679818998  1.0000
  H   H24       1.0  0.3800724323966024  0.20695019830496614  0.46372509983309856  1.0000
  H   H25       1.0  0.8474701476103661  0.5124887093884852  0.4523871811313002  1.0000
  H   H26       1.0  0.6525303353907006  0.012490499283970297  0.5476156176364813  1.0000
  H   H27       1.0  0.15252977825242198  0.4875109723201589  0.5476124225504649  1.0000
  H   H28       1.0  0.3474709277688675  0.9875074350073588  0.45238414384798636  1.0000
  H   H29       1.0  0.8008575012883623  0.6074462648085088  0.2770546939293014  1.0000
  H   H30       1.0  0.6991402179901769  0.1074474713323283  0.7229467604029127  1.0000
  H   H31       1.0  0.19914108871160613  0.3925525431905895  0.7229455235604477  1.0000
  H   H32       1.0  0.3008597050071486  0.8925522103788808  0.27705130006458495  1.0000
  C   C1        1.0  0.7638898632563454  0.49605137068964217  0.08359931591778755  1.0000
  C   C2        1.0  0.7361115090135613  0.9960524058958883  0.9164015591313872  1.0000
  C   C3        1.0  0.23611139847007928  0.5039474373114956  0.9163996739583669  1.0000
  C   C4        1.0  0.2638897555775301  0.0039481495197364  0.08359897395666853  1.0000
  C   C5        1.0  0.8017009530301493  0.44499777774304045  0.19338242876587233  1.0000
  C   C6        1.0  0.6982991290942165  0.9449991782410552  0.8066184267804888  1.0000
  C   C7        1.0  0.1982989728326459  0.5550019039656036  0.8066171749158999  1.0000
  C   C8        1.0  0.30170079676777556  0.055002250884641106  0.19338117689891735  1.0000
  C   C9        1.0  0.8471865227410548  0.2755968820574495  0.29598043822201003  1.0000
  C   C10       1.0  0.6528137186993774  0.7755977502471865  0.7040224194259039  1.0000
  C   C11       1.0  0.1528134045548768  0.724401925941379  0.7040199370680754  1.0000
  C   C12       1.0  0.34718754875677144  0.2244036788743955  0.29597965687524663  1.0000
  C   C13       1.0  0.8586212997801752  0.3387309061518168  0.38855452134495055  1.0000
  C   C14       1.0  0.6413775474893911  0.8387320823320153  0.6114487790868923  1.0000
  C   C15       1.0  0.14137862751574906  0.6612679018470117  0.6114458539451351  1.0000
  C   C16       1.0  0.35862104537604017  0.16126672566451117  0.3885529816171244  1.0000
  C   C17       1.0  0.8415045944119085  0.45981556074541874  0.381892085865161  1.0000
  C   C18       1.0  0.6584968141894264  0.9598158410213458  0.6181104305577352  1.0000
  C   C19       1.0  0.15849533288402282  0.5401832472534168  0.6181082894249244  1.0000
  C   C20       1.0  0.3415031131069028  0.04018209326896031  0.3818899447335298  1.0000
  C   C21       1.0  0.8151504369826768  0.5131608718425085  0.2837132950418635  1.0000
  C   C22       1.0  0.6848487081027201  0.0131603531261746  0.7162893441079065  1.0000
  C   C23       1.0  0.18484815301729177  0.48683793615658294  0.7162869224478856  1.0000
  C   C24       1.0  0.3151498833295748  0.9868393285801675  0.28371164498779683  1.0000
  C   C25       1.0  0.8276460018799056  0.9031938703235625  0.34281908336815553  1.0000
  C   C26       1.0  0.6723527786922644  0.40319267455747365  0.6571801844088443  1.0000
  C   C27       1.0  0.172353926847542  0.09680755879956142  0.657182063525518  1.0000
  C   C28       1.0  0.3276471471701256  0.5968078808596929  0.34281941927174137  1.0000
  S   S1        1.0  0.8298559103883747  0.9190676453005865  0.19944809038412362  1.0000
  S   S2        1.0  0.6701428569556993  0.41906771999763487  0.8005519059981554  1.0000
  S   S3        1.0  0.1701453542023117  0.08093378382356058  0.8005524427027525  1.0000
  S   S4        1.0  0.3298570689062856  0.580933709128061  0.1994476976812436  1.0000
  N   N1        1.0  0.8182219620721726  0.3274140726685673  0.2003726298344689  1.0000
  N   N2        1.0  0.6817768927842991  0.827413749034271  0.7996291580410714  1.0000
  N   N3        1.0  0.18177930251931673  0.6725856090385277  0.7996279032547734  1.0000
  N   N4        1.0  0.31822303451122735  0.17258593267308697  0.20037121724783458  1.0000
  N   N5        1.0  0.7501522859070279  0.6240243380382253  0.08009966972959866  1.0000
  N   N6        1.0  0.7498480897867736  0.124026636667061  0.9199005120795507  1.0000
  N   N7        1.0  0.2498476399561724  0.37597446996188927  0.919899933953353  1.0000
  N   N8        1.0  0.25015183607521146  0.875974792458635  0.08009909159985543  1.0000
  O   O1        1.0  0.9475900742181905  0.8237058852663213  0.18089565171064956  1.0000
  O   O2        1.0  0.5524074439009893  0.3237067721790297  0.8191044451936805  1.0000
  O   O3        1.0  0.0524125248025911  0.1762964175686577  0.8191034959611161  1.0000
  O   O4        1.0  0.4475911446650329  0.6762946569469291  0.18089500068538206  1.0000
  O   O5        1.0  0.9057708393634557  0.03534817695372539  0.1934158115205805  1.0000
  O   O6        1.0  0.5942322899545758  0.5353487040570712  0.8065833828903806  1.0000
  O   O7        1.0  0.09422909079632548  0.9646541258766492  0.8065861069790403  1.0000
  O   O8        1.0  0.405768971771046  0.4646518513611185  0.19341560698340746  1.0000
  O   O9        1.0  0.6434341355742036  0.906096654442493  0.14790202679795075  1.0000
  O   O10       1.0  0.8565659796133571  0.40609480988514696  0.8520973909169741  1.0000
  O   O11       1.0  0.35656712901728577  0.09390302726460216  0.8520985062912916  1.0000
  O   O12       1.0  0.14343394624943784  0.5939048718234899  0.14790221276479804  1.0000
  F   F1        1.0  0.7397662012008651  0.8045102086518982  0.36155193491730137  1.0000
  F   F2        1.0  0.7602313346474288  0.3045090750346162  0.6384482139885324  1.0000
  F   F3        1.0  0.26023105006919417  0.1954912204743238  0.638447353161425  1.0000
  F   F4        1.0  0.2397685912149612  0.6954914803825573  0.3615513896920533  1.0000
  F   F5        1.0  0.7437700725971866  0.9961616426408001  0.3771967848832959  1.0000
  F   F6        1.0  0.7562272848185005  0.4961605610795914  0.6228020732547466  1.0000
  F   F7        1.0  0.25623119199268984  0.0038415339003990013  0.6228037482012141  1.0000
  F   F8        1.0  0.24377264104388982  0.5038399943375822  0.377197530425839  1.0000
  F   F9        1.0  0.9955945930501142  0.8977339665090581  0.40238144033772033  1.0000
  F   F10       1.0  0.5044041911309235  0.39773471663213666  0.5976170706197267  1.0000
  F   F11       1.0  0.004403995517122901  0.1022648414913263  0.597618005544888  1.0000
  F   F12       1.0  0.49559573329873524  0.602265838786316  0.40238176145372523  1.0000
