data_image0
_chemical_formula_structural       AlH18C21N7O6
_chemical_formula_sum              "Al1 H18 C21 N7 O6"
_cell_length_a       4.171583093037551
_cell_length_b       13.504365469371017
_cell_length_c       13.504440524017658
_cell_angle_alpha    119.99974359394173
_cell_angle_beta     90.00038490293456
_cell_angle_gamma    90.00004602972746

_space_group_name_H-M_alt    "P 1"
_space_group_IT_number       1

loop_
  _space_group_symop_operation_xyz
  'x, y, z'

loop_
  _atom_site_type_symbol
  _atom_site_label
  _atom_site_symmetry_multiplicity
  _atom_site_fract_x
  _atom_site_fract_y
  _atom_site_fract_z
  _atom_site_occupancy
  Al  Al1       1.0  0.9999955940813406  0.4999987030597667  0.499996622928272  1.0000
  H   H1        1.0  0.20039625187433066  0.03122218886126409  0.8950648261526482  1.0000
  H   H2        1.0  0.7995952928918654  0.03122404100945188  0.6361557334956771  1.0000
  H   H3        1.0  0.799625270574083  0.10493547829576512  0.9687739432230842  1.0000
  H   H4        1.0  0.2003902659210723  0.36383612417076716  0.9687730486795728  1.0000
  H   H5        1.0  0.7996631786767024  0.3638284473360187  0.8950557852483882  1.0000
  H   H6        1.0  0.2003360790843161  0.10494515802538723  0.6361722240072111  1.0000
  H   H7        1.0  0.9600206219190852  0.7349470894407871  0.4960102833763784  1.0000
  H   H8        1.0  0.0010514973780004998  0.8567416204257938  0.49513423997928635  1.0000
  H   H9        1.0  0.03995761282217101  0.7349452141660109  0.738937330171652  1.0000
  H   H10       1.0  0.9989403225560027  0.8567386384273449  0.861604770522824  1.0000
  H   H11       1.0  0.9600559284366099  0.26106176740661624  0.2650527964152261  1.0000
  H   H12       1.0  0.0010876098309893  0.13839575369870968  0.14325793584579566  1.0000
  H   H13       1.0  0.039961898356814594  0.5039790839108065  0.2650485416520425  1.0000
  H   H14       1.0  0.9989274871079485  0.5048561513063349  0.1432558311861883  1.0000
  H   H15       1.0  0.9601043957257644  0.5039664662113169  0.7389161884210863  1.0000
  H   H16       1.0  0.0011532014989298997  0.5048380693016272  0.8615845523823681  1.0000
  H   H17       1.0  0.0398921119261004  0.26108208882170925  0.4960312784583607  1.0000
  H   H18       1.0  0.9988468338619254  0.1384145533639655  0.4951604550336981  1.0000
  C   C1        1.0  0.4999987701516488  0.41125537747042523  0.32251747911760725  1.0000
  C   C2        1.0  0.49999918569027085  0.4112588638772437  0.5887387259848467  1.0000
  C   C3        1.0  0.4999947329404577  0.6774781826263236  0.5887367326971996  1.0000
  C   C4        1.0  0.32478267514985487  0.8652539587726694  0.7552037480377648  1.0000
  C   C5        1.0  0.33341568110196806  0.9848987780479918  0.8155843104601672  1.0000
  C   C6        1.0  0.5000054533537437  0.04527733084822919  0.7726380343154631  1.0000
  C   C7        1.0  0.6665730274464888  0.9848997206272826  0.6693147298182821  1.0000
  C   C8        1.0  0.6752068594346524  0.865256492729344  0.6100507605120598  1.0000
  C   C9        1.0  0.4999955683968194  0.8047150096706802  0.652358752664867  1.0000
  C   C10       1.0  0.6665986486568085  0.1844111993789213  0.015097341680700488  1.0000
  C   C11       1.0  0.6752226160248469  0.24479207348658602  0.13474267149235433  1.0000
  C   C12       1.0  0.5000045357262266  0.347633044507333  0.19528019119926657  1.0000
  C   C13       1.0  0.3247803041919751  0.38994199739641994  0.13474037157971713  1.0000
  C   C14       1.0  0.3334207672473255  0.3306772863054732  0.015097075628062815  1.0000
  C   C15       1.0  0.4999980220471869  0.2273583177890188  0.9547183466038119  1.0000
  C   C16       1.0  0.666607293654998  0.33067707274077673  0.8155776037725531  1.0000
  C   C17       1.0  0.6752485349554505  0.3899412432579795  0.7551989312939682  1.0000
  C   C18       1.0  0.4999973790499012  0.34763923943590663  0.6523591242499975  1.0000
  C   C19       1.0  0.324749182252873  0.24480158604817595  0.6100587368553859  1.0000
  C   C20       1.0  0.3333819453853549  0.1844199050757779  0.6693216239679883  1.0000
  C   C21       1.0  0.5000008926880496  0.22736092527384935  0.7726405444346084  1.0000
  N   N1        1.0  0.5000014560248544  0.1666643566089475  0.8333319954819131  1.0000
  N   N2        1.0  0.8438754798998501  0.8064475071796978  0.5075017919824988  1.0000
  N   N3        1.0  0.1561084880963648  0.8064453012326425  0.7989452943585107  1.0000
  N   N4        1.0  0.8439097407977556  0.2010511618874062  0.19354955446414826  1.0000
  N   N5        1.0  0.15610648338688546  0.4924879951482524  0.19354985207927206  1.0000
  N   N6        1.0  0.843957262689173  0.4924805923118143  0.7989290762548861  1.0000
  N   N7        1.0  0.15603751144976027  0.20106821329741115  0.5075173452972662  1.0000
  O   O1        1.0  0.736437434949792  0.6256866603132494  0.6036073000987585  1.0000
  O   O2        1.0  0.7364420142387403  0.47791927830492403  0.3743084654659157  1.0000
  O   O3        1.0  0.7364386764884115  0.39638881894249783  0.5220765307145285  1.0000
  O   O4        1.0  0.26355135082482667  0.6256882613260899  0.522074894113203  1.0000
  O   O5        1.0  0.26355441978901695  0.477920592945388  0.603606850824505  1.0000
  O   O6        1.0  0.2635542897501537  0.3963873053759103  0.37431020812606874  1.0000
