data_image0
_chemical_formula_structural       Cu6H20C24N4Cl4O12
_chemical_formula_sum              "Cu6 H20 C24 N4 Cl4 O12"
_cell_length_a       6.944755165446213
_cell_length_b       10.021419082623071
_cell_length_c       12.992963052370769
_cell_angle_alpha    89.99846087975838
_cell_angle_beta     90.00344843421468
_cell_angle_gamma    109.72877072394263

_space_group_name_H-M_alt    "P 1"
_space_group_IT_number       1

loop_
  _space_group_symop_operation_xyz
  'x, y, z'

loop_
  _atom_site_type_symbol
  _atom_site_label
  _atom_site_symmetry_multiplicity
  _atom_site_fract_x
  _atom_site_fract_y
  _atom_site_fract_z
  _atom_site_occupancy
  Cu  Cu1       1.0  0.7397300625323168  0.80957468805547  0.3232588275607213  1.0000
  Cu  Cu2       1.0  0.7602470323587838  0.1904287568058791  0.8232693347585852  1.0000
  Cu  Cu3       1.0  0.26027109811585797  0.19042963335414953  0.6767769036038092  1.0000
  Cu  Cu4       1.0  0.2397295237547681  0.8095548969519939  0.17671559943484283  1.0000
  Cu  Cu5       1.0  0.00010898367531100001  7.734026112900002e-06  0.5000252830151624  1.0000
  Cu  Cu6       1.0  0.4999901167603368  0.9999672484615942  0.9999979608583872  1.0000
  H   H1        1.0  0.7119990618882497  0.016025784499028407  0.40473368379591085  1.0000
  H   H2        1.0  0.787925529105024  0.9839410626582036  0.9046803410024254  1.0000
  H   H3        1.0  0.2880870246497977  0.9839918692060011  0.5953066666937304  1.0000
  H   H4        1.0  0.21202033703108472  0.016027977360295202  0.09529843559244713  1.0000
  H   H5        1.0  0.6552262499800534  0.20766892707725762  0.6035998363005746  1.0000
  H   H6        1.0  0.8447902060310354  0.792346971223047  0.10358358447848563  1.0000
  H   H7        1.0  0.34474202041390356  0.7923530585380406  0.3963981813484311  1.0000
  H   H8        1.0  0.15514817781699722  0.20765207895239263  0.8964098149676192  1.0000
  H   H9        1.0  0.6777960151802135  0.40306305787603963  0.47834967087918306  1.0000
  H   H10       1.0  0.8222558193337833  0.5969496416193322  0.9783371520874413  1.0000
  H   H11       1.0  0.3222961567328467  0.5969485419276593  0.5216445009431538  1.0000
  H   H12       1.0  0.1777197899354306  0.403059026983712  0.0216616354829071  1.0000
  H   H13       1.0  0.007170643931580418  0.702317041367472  0.7093322321802307  1.0000
  H   H14       1.0  0.4927832642275832  0.297648633155383  0.20934709453521091  1.0000
  H   H15       1.0  0.9929218166720232  0.2976611718437212  0.2906734847030422  1.0000
  H   H16       1.0  0.5072108179658841  0.7023491854851754  0.7906401487798222  1.0000
  H   H17       1.0  0.9556575577895857  0.49523593660781273  0.8285834641656751  1.0000
  H   H18       1.0  0.5442086603261769  0.5047427623910818  0.3285935375317592  1.0000
  H   H19       1.0  0.04428479274545787  0.504748637701276  0.17143687316205816  1.0000
  H   H20       1.0  0.4557646153546172  0.4952501721968332  0.6713944750943741  1.0000
  C   C1        1.0  0.7280507746381062  0.31874339077843666  0.6242735409914318  1.0000
  C   C2        1.0  0.7719367887900006  0.6812711638787476  0.12428458324955473  1.0000
  C   C3        1.0  0.2719382355618406  0.6812594729176736  0.37573294336177554  1.0000
  C   C4        1.0  0.22802377180742886  0.3187223806459158  0.8757165131394375  1.0000
  C   C5        1.0  0.7439194327010696  0.42768962428575447  0.554842820312395  1.0000
  C   C6        1.0  0.7560820662362528  0.5723119978194832  0.054822428744373  1.0000
  C   C7        1.0  0.25609154294201636  0.572300421125327  0.4451690521131654  1.0000
  C   C8        1.0  0.24388255232896944  0.42767751060013376  0.9451717409352868  1.0000
  C   C9        1.0  0.8445925023047138  0.567978426033548  0.5848340920947025  1.0000
  C   C10       1.0  0.6554233399413719  0.43202316565525944  0.0848059295054213  1.0000
  C   C11       1.0  0.15548162997420426  0.43199394380255274  0.41519471392972923  1.0000
  C   C12       1.0  0.3445573415248049  0.5679804578591785  0.9151782349110464  1.0000
  C   C13       1.0  0.9270051884779775  0.5941047518667302  0.683975942330136  1.0000
  C   C14       1.0  0.5729440178244545  0.40588763159875196  0.18396449585892335  1.0000
  C   C15       1.0  0.07305459504255653  0.40589843788129804  0.3160367005142319  1.0000
  C   C16       1.0  0.427033408427306  0.594111706430489  0.8160127417148575  1.0000
  C   C17       1.0  0.9007001825302438  0.4802472011853709  0.7496821960715111  1.0000
  C   C18       1.0  0.5992273538491659  0.5197474793156616  0.24969554307418926  1.0000
  C   C19       1.0  0.09928283333812965  0.5197721562119426  0.25033121482636744  1.0000
  C   C20       1.0  0.40076057416035826  0.480232387596068  0.7502993967856993  1.0000
  C   C21       1.0  0.8633091585430321  0.6910889477407807  0.5144858583745775  1.0000
  C   C22       1.0  0.6366866881962636  0.3088912644642291  0.014464160859908806  1.0000
  C   C23       1.0  0.13677551610042124  0.30890152340815297  0.4855414083640781  1.0000
  C   C24       1.0  0.36325443544706104  0.691087006414584  0.9855307781465046  1.0000
  N   N1        1.0  0.8023646809982949  0.3452134895416493  0.7208161379331701  1.0000
  N   N2        1.0  0.697573661344549  0.6548029322311067  0.2208318903269557  1.0000
  N   N3        1.0  0.19758386425963442  0.6548266089376327  0.2791757219830657  1.0000
  N   N4        1.0  0.3023789266283856  0.3451819913754974  0.7791653577659832  1.0000
  Cl  Cl1       1.0  0.6352553271077354  0.9482157170292353  0.2100757275389853  1.0000
  Cl  Cl2       1.0  0.8647684571407054  0.051814240763889095  0.7100899044308521  1.0000
  Cl  Cl3       1.0  0.36468412249116977  0.05175519135583781  0.789914593628062  1.0000
  Cl  Cl4       1.0  0.1352584774444308  0.9482441855044353  0.2898819459211738  1.0000
  O   O1        1.0  0.9828137026383102  0.8102131244130107  0.5462825218912216  1.0000
  O   O2        1.0  0.5171192383225787  0.1898259658030028  0.046321182330388004  1.0000
  O   O3        1.0  0.017208539924624216  0.18982740007966475  0.45368624996895335  1.0000
  O   O4        1.0  0.4828725120117312  0.8101561185413787  0.9536945380569651  1.0000
  O   O5        1.0  0.7597173781405644  0.6650490857746972  0.4320518886143034  1.0000
  O   O6        1.0  0.7403189797164204  0.3349816299071051  0.9320348090606032  1.0000
  O   O7        1.0  0.2404209969633797  0.33504444933069527  0.5679615244050924  1.0000
  O   O8        1.0  0.25962032599495893  0.6650059716998199  0.06796012981564561  1.0000
  O   O9        1.0  0.7312381142043238  0.9327336935166602  0.4361138719377139  1.0000
  O   O10       1.0  0.7687323857461905  0.06726652795565971  0.9360872171810971  1.0000
  O   O11       1.0  0.26878045131154243  0.0672879200955663  0.5638610572285074  1.0000
  O   O12       1.0  0.2311871789321387  0.932688047852338  0.0638992555481295  1.0000
