data_image0
_chemical_formula_structural       Zr6H40C54O32
_chemical_formula_sum              "Zr6 H40 C54 O32"
_cell_length_a       14.803969374543744
_cell_length_b       14.798622158068632
_cell_length_c       14.80607988429642
_cell_angle_alpha    60.01741357038585
_cell_angle_beta     59.9978837518613
_cell_angle_gamma    59.986947617614646

_space_group_name_H-M_alt    "P 1"
_space_group_IT_number       1

loop_
  _space_group_symop_operation_xyz
  'x, y, z'

loop_
  _atom_site_type_symbol
  _atom_site_label
  _atom_site_symmetry_multiplicity
  _atom_site_fract_x
  _atom_site_fract_y
  _atom_site_fract_z
  _atom_site_occupancy
  Zr  Zr1       1.0  0.8782104677199456  0.8783601734316163  0.6217032378810784  1.0000
  Zr  Zr2       1.0  0.11674728174872233  0.11677082469384459  0.3831063222854212  1.0000
  Zr  Zr3       1.0  0.11634867136979199  0.8782351169326005  0.6219744297245668  1.0000
  Zr  Zr4       1.0  0.8780603894540988  0.11645648386918592  0.38320676816901056  1.0000
  Zr  Zr5       1.0  0.11722535568570422  0.8795509850262062  0.3817731229109496  1.0000
  Zr  Zr6       1.0  0.8784333832400294  0.11843521940684804  0.62018255883185  1.0000
  H   H1        1.0  0.09208577461123484  0.7158786688775789  0.5961211943870666  1.0000
  H   H2        1.0  0.09207936217304541  0.09191281738435458  0.2201674972004  1.0000
  H   H3        1.0  0.09168808499479297  0.09194349471709977  0.5957102025116541  1.0000
  H   H4        1.0  0.7155512962325049  0.09216390996459718  0.5959544558327821  1.0000
  H   H5        1.0  0.8487840632772858  0.5828321737174207  0.64250156218894  1.0000
  H   H6        1.0  0.14079324513510738  0.5910483309516507  0.35619543788462954  1.0000
  H   H7        1.0  0.8574933464756641  0.41334348588010517  0.6338949416193103  1.0000
  H   H8        1.0  0.5832069430675377  0.8481673756961567  0.9265340475033524  1.0000
  H   H9        1.0  0.5917209143917648  0.14023783046198462  0.9123837591529808  1.0000
  H   H10       1.0  0.4139397940282096  0.8569028222782504  0.09600557961417161  1.0000
  H   H11       1.0  0.1403361345168291  0.8497579854072228  0.08455753395372058  1.0000
  H   H12       1.0  0.8539299900919632  0.1419007977299813  0.09343731353240498  1.0000
  H   H13       1.0  0.13139419242991582  0.858685100414881  0.9152258707991832  1.0000
  H   H14       1.0  0.5839360214263181  0.42449486243670254  0.6409624882094036  1.0000
  H   H15       1.0  0.594076502114966  0.4109217011006763  0.35357190043757214  1.0000
  H   H16       1.0  0.41427316089772154  0.5936661853524042  0.6321942169771119  1.0000
  H   H17       1.0  0.1391087892614846  0.5823702971270064  0.9269704951805268  1.0000
  H   H18       1.0  0.8517684655512101  0.5922710126981483  0.9133881853513374  1.0000
  H   H19       1.0  0.13041599157609338  0.41274026557105964  0.09589922938459947  1.0000
  H   H20       1.0  0.5822428507300188  0.13866817209855506  0.3518932835727285  1.0000
  H   H21       1.0  0.5911314060038396  0.8520636250047743  0.6435127903394788  1.0000
  H   H22       1.0  0.41266719909589983  0.13010147310493642  0.3609414895935217  1.0000
  H   H23       1.0  0.2603151114310762  0.40827013451367805  0.3204852313144642  1.0000
  H   H24       1.0  0.19108285167471442  0.3408762343277089  0.31700221046203586  1.0000
  H   H25       1.0  0.17576824591730403  0.48237412707620536  0.23687686942417946  1.0000
  H   H26       1.0  0.40712348385769576  0.25989608375161316  0.012227862624904271  1.0000
  H   H27       1.0  0.34318907961161943  0.18926988847819357  0.15301696929766706  1.0000
  H   H28       1.0  0.4845905783264541  0.17625280128190468  0.10321599865443426  1.0000
  H   H29       1.0  0.8179636702907518  0.26175559514831526  0.91242403746282  1.0000
  H   H30       1.0  0.8163803446554355  0.1945038110976469  0.8416950907669403  1.0000
  H   H31       1.0  0.7346120496947324  0.17737957650719943  0.9830481633688849  1.0000
  H   H32       1.0  0.40581501119353913  0.5122068259237976  0.3201947256078199  1.0000
  H   H33       1.0  0.3481672609593219  0.6540913850835891  0.30934875407005064  1.0000
  H   H34       1.0  0.48934132210106895  0.5973452003764876  0.23416998045868806  1.0000
  H   H35       1.0  0.8183482882394845  0.4064270564354258  0.011963682597759373  1.0000
  H   H36       1.0  0.8111802346586002  0.34307830136843626  0.15303331658042638  1.0000
  H   H37       1.0  0.7327707840158836  0.48447678315543635  0.10243997227311734  1.0000
  H   H38       1.0  0.4072964776917304  0.8177139116754047  0.7634792917107517  1.0000
  H   H39       1.0  0.3411916838962982  0.812535430685699  0.6941830349755947  1.0000
  H   H40       1.0  0.48269800099954824  0.7329762859420864  0.6798350698987575  1.0000
  C   C1        1.0  0.9935332060753198  0.6978932538362059  0.4999208790240531  1.0000
  C   C2        1.0  0.30601715086085335  0.9990656669468758  0.20044522016647887  1.0000
  C   C3        1.0  0.998903776499418  0.30596580604160556  0.494534698294224  1.0000
  C   C4        1.0  0.6975319488051217  0.9938294693621683  0.80838722416609  1.0000
  C   C5        1.0  0.9960661393979042  0.6980229683901126  0.8095923923491101  1.0000
  C   C6        1.0  0.6973539349689942  0.9959960693928378  0.49699370380128005  1.0000
  C   C7        1.0  0.9912428436306869  0.30519097141157653  0.20050435841429953  1.0000
  C   C8        1.0  0.305004986281681  0.9909448003475629  0.5029608228162061  1.0000
  C   C9        1.0  0.3060085073515139  0.6974587487893372  0.49400887287929857  1.0000
  C   C10       1.0  0.9913270328206641  0.9998784813182906  0.8086454002255296  1.0000
  C   C11       1.0  0.6983335124095619  0.3058951060013796  0.49927625769527134  1.0000
  C   C12       1.0  0.9968992689807266  0.993665167792521  0.20072470956186056  1.0000
  C   C13       1.0  0.0035368587599152747  0.40707245913128526  0.4903876476690385  1.0000
  C   C14       1.0  0.9947531181985739  0.5970977309333634  0.4984756103520738  1.0000
  C   C15       1.0  0.0863573762000271  0.4562325067942722  0.4100389034308662  1.0000
  C   C16       1.0  0.9139950550396635  0.5473190144004931  0.5782581170719964  1.0000
  C   C17       1.0  0.07871188741277274  0.5510154379676847  0.4168813236969696  1.0000
  C   C18       1.0  0.9191975267801668  0.45368709723641126  0.5732226621192212  1.0000
  C   C19       1.0  0.4077138763946948  0.0030882725214383317  0.0995054986100357  1.0000
  C   C20       1.0  0.5974528688346653  0.9943535763692349  0.9100330672640949  1.0000
  C   C21       1.0  0.4570952091141863  0.0857180695499267  0.048021575509778744  1.0000
  C   C22       1.0  0.5478541909649125  0.9133691070551181  0.9610764385192212  1.0000
  C   C23       1.0  0.551700968179823  0.07810509029066978  0.9539534830054636  1.0000
  C   C24       1.0  0.45434183667202904  0.9185730185711805  0.05459558806151684  1.0000
  C   C25       1.0  0.9878274331710274  0.004748998681080111  0.9093109301017249  1.0000
  C   C26       1.0  0.9959805993142155  0.9954907984755151  0.09944215751865218  1.0000
  C   C27       1.0  0.9077763599242131  0.08777675573096397  0.958400672124043  1.0000
  C   C28       1.0  0.07592158733591946  0.9149722555362132  0.04931592487675121  1.0000
  C   C29       1.0  0.914529416057164  0.0797900866187219  0.053324855122966204  1.0000
  C   C30       1.0  0.0707757311544839  0.92035781524838  0.9556934829761516  1.0000
  C   C31       1.0  0.4086175397277857  0.5972667403620875  0.4884817185111316  1.0000
  C   C32       1.0  0.5987233461408298  0.40800817012549095  0.49683366311170835  1.0000
  C   C33       1.0  0.45889781383188916  0.5462875585663198  0.40733992541154856  1.0000
  C   C34       1.0  0.5488080489299706  0.45900576556846295  0.5764677534088205  1.0000
  C   C35       1.0  0.5535682589864949  0.452270644168621  0.4144423318600303  1.0000
  C   C36       1.0  0.45509626711699286  0.5523903275715654  0.5713246824064271  1.0000
  C   C37       1.0  0.9866456172988408  0.40701414156922056  0.099603361053731  1.0000
  C   C38       1.0  0.9945971393307715  0.5974976651952488  0.9107948140216918  1.0000
  C   C39       1.0  0.9059300340246494  0.45682457025663575  0.04826693793182805  1.0000
  C   C40       1.0  0.07456053310107082  0.547293531430121  0.9614596589541619  1.0000
  C   C41       1.0  0.9126563872947601  0.5518343132989828  0.9546578331329557  1.0000
  C   C42       1.0  0.0695273794109853  0.45349942572050134  0.054685150650271824  1.0000
  C   C43       1.0  0.40655770372913486  0.9865269445741802  0.5069518954250256  1.0000
  C   C44       1.0  0.5968369999014983  0.9944832285164293  0.4977718008630135  1.0000
  C   C45       1.0  0.45601978361447243  0.9060690748286077  0.5894828821231924  1.0000
  C   C46       1.0  0.5469140203220278  0.07430549323947834  0.41708851352409937  1.0000
  C   C47       1.0  0.5509452698242187  0.9127975844674197  0.5815801335063568  1.0000
  C   C48       1.0  0.45318599038782986  0.0693189616369736  0.4224816443893005  1.0000
  C   C49       1.0  0.183514377735996  0.4181014384480547  0.3164583632855765  1.0000
  C   C50       1.0  0.4192031824009064  0.18287600186260278  0.08251856180248746  1.0000
  C   C51       1.0  0.8146053410604993  0.18553981244493636  0.9200324515447988  1.0000
  C   C52       1.0  0.4218372706622022  0.5810296614516232  0.31295519825445695  1.0000
  C   C53       1.0  0.8123531408088666  0.41890493054879835  0.0823618613337729  1.0000
  C   C54       1.0  0.41795987075955315  0.8126587036187513  0.6868767314073168  1.0000
  O   O1        1.0  0.9176235849997171  0.7354993015616953  0.578315515758355  1.0000
  O   O2        1.0  0.26218048167562813  0.07371775119757734  0.24427031918613554  1.0000
  O   O3        1.0  0.07346069222308668  0.2621701816848443  0.4199224434425375  1.0000
  O   O4        1.0  0.7354968493274042  0.9175152653526977  0.7686451853485041  1.0000
  O   O5        1.0  0.07412466288941019  0.7362051447244436  0.7694699019292415  1.0000
  O   O6        1.0  0.7351359752124439  0.0742388327475396  0.42106083050161663  1.0000
  O   O7        1.0  0.9169243953581088  0.26132799835463066  0.2435969465106567  1.0000
  O   O8        1.0  0.26143593649406  0.9161596407882368  0.5775072792075733  1.0000
  O   O9        1.0  0.2621616651051397  0.7407696248335824  0.41957749970281105  1.0000
  O   O10       1.0  0.9167785621889596  0.07478302709650815  0.7650066235840074  1.0000
  O   O11       1.0  0.7367390428478375  0.26621239855166595  0.5770110574575967  1.0000
  O   O12       1.0  0.07526169952387823  0.9178076165660511  0.2384051091551952  1.0000
  O   O13       1.0  0.06896059133188717  0.9219145950760959  0.7712431902719032  1.0000
  O   O14       1.0  0.7369718494938271  0.26436900592848644  0.42433946597593325  1.0000
  O   O15       1.0  0.9197225643733304  0.0693287687835565  0.24172313781215843  1.0000
  O   O16       1.0  0.2670060310232286  0.733330828064453  0.5732787218620956  1.0000
  O   O17       1.0  0.9199408181842088  0.7378307346509058  0.7692357606045092  1.0000
  O   O18       1.0  0.2666731468387836  0.0696083752125602  0.42617008330213935  1.0000
  O   O19       1.0  0.0697259604843126  0.26692410129744093  0.2372441469088642  1.0000
  O   O20       1.0  0.7374538945571987  0.9197376974379735  0.5734977478040194  1.0000
  O   O21       1.0  0.7369922367620205  0.07094813568320286  0.7674921739290498  1.0000
  O   O22       1.0  0.06970129882413542  0.7383357915233119  0.4233255258854882  1.0000
  O   O23       1.0  0.26768598439490177  0.9223005819673699  0.23677691352892072  1.0000
  O   O24       1.0  0.9216178182550011  0.2681000905900318  0.5727942832073936  1.0000
  O   O25       1.0  0.7957577620820758  0.06533545608319005  0.5692095538901472  1.0000
  O   O26       1.0  0.06481093928992014  0.06523703324716483  0.5690907215538202  1.0000
  O   O27       1.0  0.06522784970835717  0.06484482492838585  0.30032738510052337  1.0000
  O   O28       1.0  0.06494979262939886  0.796105635803421  0.5696275538060432  1.0000
  O   O29       1.0  0.1461131688078937  0.9481460541641054  0.4529494497511377  1.0000
  O   O30       1.0  0.9483468706872816  0.9478800371447987  0.45271881100154593  1.0000
  O   O31       1.0  0.9480538862343055  0.14671061669584864  0.45215115832456865  1.0000
  O   O32       1.0  0.9479060957001765  0.9488107853015179  0.6505109989013251  1.0000
