data_image0
_chemical_formula_structural       K4V4P4H12C4O28
_chemical_formula_sum              "K4 V4 P4 H12 C4 O28"
_cell_length_a       6.384351591944664
_cell_length_b       9.364154117070772
_cell_length_c       13.007921760893666
_cell_angle_alpha    71.41726872912244
_cell_angle_beta     75.78578139801135
_cell_angle_gamma    70.0343840297252

_space_group_name_H-M_alt    "P 1"
_space_group_IT_number       1

loop_
  _space_group_symop_operation_xyz
  'x, y, z'

loop_
  _atom_site_type_symbol
  _atom_site_label
  _atom_site_symmetry_multiplicity
  _atom_site_fract_x
  _atom_site_fract_y
  _atom_site_fract_z
  _atom_site_occupancy
  K   K1        1.0  0.6920801105779688  0.1051868151385094  0.05801073514782471  1.0000
  K   K2        1.0  0.8552751447423647  0.3949159085709865  0.4419187272995586  1.0000
  K   K3        1.0  0.30791927099703986  0.8948169303713912  0.9419877060630809  1.0000
  K   K4        1.0  0.14473331689735144  0.6050795294864244  0.5580835801318784  1.0000
  V   V1        1.0  0.5681527386454094  0.44831356254270815  0.20681183305158163  1.0000
  V   V2        1.0  0.22365287488039334  0.05203745261504621  0.2932219187173076  1.0000
  V   V3        1.0  0.4318458064758417  0.5516972011406622  0.7931865926760509  1.0000
  V   V4        1.0  0.7763335232912708  0.9479830193676124  0.7067651096687868  1.0000
  P   P1        1.0  0.12044946697208297  0.41807980412118445  0.1698334034320936  1.0000
  P   P2        1.0  0.7085752197895586  0.08231647783540548  0.3301010037428894  1.0000
  P   P3        1.0  0.879556913578867  0.5819192438423497  0.8301656153262442  1.0000
  P   P4        1.0  0.2914286280568276  0.917679274451082  0.6698910738108523  1.0000
  H   H1        1.0  0.16847941991505874  0.49987999730090854  0.05969620402191107  1.0000
  H   H2        1.0  0.7286921614690486  0.0004200857473648973  0.4402237348742872  1.0000
  H   H3        1.0  0.8315205478839541  0.5001246516111308  0.9403109264603629  1.0000
  H   H4        1.0  0.2713134113285489  0.9995672301181671  0.5597764730009658  1.0000
  H   H5        1.0  0.8707842328420906  0.797248722338189  0.9561138211625675  1.0000
  H   H6        1.0  0.6243892685396447  0.7028964712745704  0.543618629021573  1.0000
  H   H7        1.0  0.1292011672835188  0.20275732332461868  0.0438859933860698  1.0000
  H   H8        1.0  0.37561731698611583  0.2970966277325147  0.4563836876939504  1.0000
  H   H9        1.0  0.8630670041231384  0.7212709460527478  0.0809847533217223  1.0000
  H   H10       1.0  0.6661164246232191  0.7790407043981916  0.4187764058209352  1.0000
  H   H11       1.0  0.136926921079798  0.27873402322944685  0.9190119568334509  1.0000
  H   H12       1.0  0.3338948946219843  0.22095472137706915  0.5812262825093271  1.0000
  C   C1        1.0  0.3851300062916891  0.7173447752180451  0.3119093136988411  1.0000
  C   C2        1.0  0.41416510319321304  0.7830233948992457  0.1883079330928155  1.0000
  C   C3        1.0  0.6148631650740415  0.2826794827227345  0.6880686135799081  1.0000
  C   C4        1.0  0.5858461223941378  0.21697150004612106  0.8116738944873205  1.0000
  O   O1        1.0  0.45025511780011845  0.5701895665744702  0.3492324509589935  1.0000
  O   O2        1.0  0.3699587193386477  0.9301605178987203  0.15100720185952812  1.0000
  O   O3        1.0  0.5497308771586658  0.4298265032740645  0.6507837573910039  1.0000
  O   O4        1.0  0.6300175432693963  0.06986746316736973  0.8490020420462584  1.0000
  O   O5        1.0  0.2960890260944852  0.8176041261249624  0.3693759774581905  1.0000
  O   O6        1.0  0.48242617974111823  0.6828014834319374  0.1308351630413966  1.0000
  O   O7        1.0  0.703926479724075  0.18236076917476396  0.6306306405534627  1.0000
  O   O8        1.0  0.5175804014280132  0.3171631825911944  0.8691790061871884  1.0000
  O   O9        1.0  0.8656450572757352  0.47674538106893044  0.2098131996636283  1.0000
  O   O10       1.0  0.5527757523036102  0.023349298634549598  0.290183952650807  1.0000
  O   O11       1.0  0.13436614816833262  0.5232535123393446  0.7901908326243614  1.0000
  O   O12       1.0  0.44721250112290567  0.9766521743543137  0.7098123905316598  1.0000
  O   O13       1.0  0.2412628525880296  0.45829730518126865  0.24105438683684352  1.0000
  O   O14       1.0  0.9409377881504994  0.042446546153179616  0.25881797570419  1.0000
  O   O15       1.0  0.758734269803412  0.541695700681281  0.7589510389142049  1.0000
  O   O16       1.0  0.059073046473912434  0.9575561639185751  0.7411760032293842  1.0000
  O   O17       1.0  0.20621573302537394  0.24298280347353798  0.1667237448079248  1.0000
  O   O18       1.0  0.615239837031801  0.25738030848302157  0.3333162103515335  1.0000
  O   O19       1.0  0.7937786559912822  0.7570174160602008  0.833275294046338  1.0000
  O   O20       1.0  0.38476321597497803  0.7426173928808453  0.6666886131141111  1.0000
  O   O21       1.0  0.6360631947051801  0.37991163408943146  0.10059380411422583  1.0000
  O   O22       1.0  0.1169343230682003  0.12035025076443868  0.39949337502995524  1.0000
  O   O23       1.0  0.3639454988413889  0.6200814290937515  0.8994096676667596  1.0000
  O   O24       1.0  0.8830668599495938  0.8796512201793759  0.6005029434145541  1.0000
  O   O25       1.0  0.9021221482061536  0.8086783539163206  0.023158850143452984  1.0000
  O   O26       1.0  0.7343657694241016  0.6913873728583937  0.47661680899605585  1.0000
  O   O27       1.0  0.09786742022195923  0.19132658056447838  0.9768390274461539  1.0000
  O   O28       1.0  0.2656393872989112  0.30860573228977023  0.5233853172700549  1.0000
