data_image0
_chemical_formula_structural       Zn8H64C104N16O36
_chemical_formula_sum              "Zn8 H64 C104 N16 O36"
_cell_length_a       14.030058479590112
_cell_length_b       16.34048802848077
_cell_length_c       19.13935961878875
_cell_angle_alpha    113.18041469874908
_cell_angle_beta     90.01220134635462
_cell_angle_gamma    115.40608377953576

_space_group_name_H-M_alt    "P 1"
_space_group_IT_number       1

loop_
  _space_group_symop_operation_xyz
  'x, y, z'

loop_
  _atom_site_type_symbol
  _atom_site_label
  _atom_site_symmetry_multiplicity
  _atom_site_fract_x
  _atom_site_fract_y
  _atom_site_fract_z
  _atom_site_occupancy
  Zn  Zn1       1.0  0.39101877435837196  0.46166746607170944  0.8913448514342474  1.0000
  Zn  Zn2       1.0  0.929531623211183  0.5384140979109233  0.6087733526514967  1.0000
  Zn  Zn3       1.0  0.6089789609456348  0.5383381994037323  0.10865809734121967  1.0000
  Zn  Zn4       1.0  0.07046947437681443  0.46158403528347247  0.39122756093018296  1.0000
  Zn  Zn5       1.0  0.8625946695039843  0.4428253604060117  0.16798449182034858  1.0000
  Zn  Zn6       1.0  0.4196887245718345  0.5571552692196563  0.3319505023233517  1.0000
  Zn  Zn7       1.0  0.1374040025249101  0.5571750504645294  0.8320145826146754  1.0000
  Zn  Zn8       1.0  0.5803130893632016  0.44284287146344775  0.668049368877355  1.0000
  H   H1        1.0  0.2840396911723317  0.7746207179428026  0.7251324937225686  1.0000
  H   H2        1.0  0.5094927276293362  0.2255202933088043  0.7750533971195279  1.0000
  H   H3        1.0  0.7159653535403765  0.2253781827164545  0.2748665908375684  1.0000
  H   H4        1.0  0.4905085912282772  0.7744854133997592  0.2249438185480343  1.0000
  H   H5        1.0  0.48433036907019317  0.8420132029752028  0.742801813359918  1.0000
  H   H6        1.0  0.6425335248053089  0.1582460959856746  0.7576259417595492  1.0000
  H   H7        1.0  0.5156735250369451  0.15798197169571182  0.25719078087035996  1.0000
  H   H8        1.0  0.35746335277681845  0.8417535774652762  0.242370792147966  1.0000
  H   H9        1.0  0.5612297153783459  0.7215919238634001  0.7131397633580291  1.0000
  H   H10       1.0  0.8397736085677322  0.2787917382837719  0.7873099219685356  1.0000
  H   H11       1.0  0.4387726717104741  0.2784002359830636  0.28685232941587196  1.0000
  H   H12       1.0  0.16022506527957603  0.7212086763763353  0.2126886312634113  1.0000
  H   H13       1.0  0.11074494916745439  0.252715952916617  0.6947415754751913  1.0000
  H   H14       1.0  0.8581280593582931  0.7475275792770688  0.8053126210495517  1.0000
  H   H15       1.0  0.8892533374694126  0.7472836862473571  0.3052598493103317  1.0000
  H   H16       1.0  0.1418713634521467  0.252474333321338  0.19468748591826568  1.0000
  H   H17       1.0  0.9998963695942891  0.16010910736866182  0.5598464489583179  1.0000
  H   H18       1.0  0.8398509197000763  0.8401867615168327  0.9401590058830745  1.0000
  H   H19       1.0  0.00010082985079414746  0.8398897829165862  0.4401541989340884  1.0000
  H   H20       1.0  0.16014167616550878  0.15981290110796917  0.05983929148259647  1.0000
  H   H21       1.0  0.0278696380950478  0.2522750330053896  0.47742746514781226  1.0000
  H   H22       1.0  0.7755057818952906  0.7480411298995406  0.022584445595548112  1.0000
  H   H23       1.0  0.9721333065583267  0.7477253697434493  0.5225726518444131  1.0000
  H   H24       1.0  0.22449113012133642  0.2519600377905675  0.9774143632257334  1.0000
  H   H25       1.0  0.4527125496202872  0.6402369309424714  0.045883888676094366  1.0000
  H   H26       1.0  0.8128516103865805  0.35991450790130125  0.4542034166377887  1.0000
  H   H27       1.0  0.5472900912389491  0.3597657151051123  0.954119080072651  1.0000
  H   H28       1.0  0.18715134506196307  0.6400873398223154  0.5458055509081347  1.0000
  H   H29       1.0  0.5407165325158303  0.8280692276984283  0.09491530264572377  1.0000
  H   H30       1.0  0.7128788538684532  0.17208470232980494  0.4051416057408374  1.0000
  H   H31       1.0  0.4592875301270212  0.1719334105891619  0.9050887085595175  1.0000
  H   H32       1.0  0.2871237361905798  0.8279164153724992  0.5948639789218004  1.0000
  H   H33       1.0  0.5918499302546465  0.7855227170884761  0.8630887350592429  1.0000
  H   H34       1.0  0.8061520607797235  0.2144790544958042  0.6370021749707744  1.0000
  H   H35       1.0  0.4081410234494811  0.21448221538992843  0.13691135180941666  1.0000
  H   H36       1.0  0.19384106277939145  0.785514532553137  0.3630013740448915  1.0000
  H   H37       1.0  0.5102440987074247  0.600470312285829  0.8245728430001334  1.0000
  H   H38       1.0  0.9097009816818514  0.3995289921908238  0.6755790361818653  1.0000
  H   H39       1.0  0.48974786422742517  0.3995323616451357  0.17542647694946104  1.0000
  H   H40       1.0  0.09029325622990572  0.6004668228177366  0.3244294494529639  1.0000
  H   H41       1.0  0.9460671006077563  0.30721934382401617  0.18202221420089154  1.0000
  H   H42       1.0  0.6388091872160757  0.692767819372669  0.3179721651332057  1.0000
  H   H43       1.0  0.05393232038426972  0.6927825649848242  0.817978413970003  1.0000
  H   H44       1.0  0.3611916320355207  0.3072326101744308  0.6820243033619844  1.0000
  H   H45       1.0  0.8743627762167208  0.12241443844673937  0.14499873730198226  1.0000
  H   H46       1.0  0.7519646566509977  0.8776071885751477  0.35513860624720184  1.0000
  H   H47       1.0  0.12563806837732738  0.877587466391674  0.8550024121223386  1.0000
  H   H48       1.0  0.24803188633929807  0.1223932415145157  0.644857862096927  1.0000
  H   H49       1.0  0.5690098604580456  0.0740746543207109  0.04243873925607029  1.0000
  H   H50       1.0  0.4946487517056751  0.9259262581418781  0.4571646685668681  1.0000
  H   H51       1.0  0.4309927224426389  0.925925025985954  0.9575569524467151  1.0000
  H   H52       1.0  0.5053472336047662  0.0740673512827712  0.5428357533310759  1.0000
  H   H53       1.0  0.6526490774313914  0.2611347686940135  0.08523708449938278  1.0000
  H   H54       1.0  0.39133232012471814  0.7388943115827402  0.41436389631650156  1.0000
  H   H55       1.0  0.3473520855040917  0.7388649231622111  0.9147570435438296  1.0000
  H   H56       1.0  0.6086680321369686  0.2611023312524949  0.5856344211231599  1.0000
  H   H57       1.0  0.8842842923999046  0.403442640113589  0.026836934649310286  1.0000
  H   H58       1.0  0.4808248353616023  0.5964367512278557  0.4730205371759053  1.0000
  H   H59       1.0  0.1157150923392081  0.5965577706665215  0.9731621398108883  1.0000
  H   H60       1.0  0.5191763075713639  0.40356289894311465  0.5269793241011056  1.0000
  H   H61       1.0  0.7947468708869251  0.43912351078019896  0.026799170278586346  1.0000
  H   H62       1.0  0.35564024438139086  0.5608824451675786  0.4730912381385009  1.0000
  H   H63       1.0  0.20525142302358296  0.5608761435420463  0.9732001696946423  1.0000
  H   H64       1.0  0.6443608604802478  0.4391157031850952  0.5269075906308912  1.0000
  C   C1        1.0  0.13336104223926534  0.5825840178280473  0.6788754489521762  1.0000
  C   C2        1.0  0.5506237368773341  0.4174643971329247  0.8211110469879015  1.0000
  C   C3        1.0  0.8666397570098142  0.4174163700337984  0.3211267527768128  1.0000
  C   C4        1.0  0.4493746331758288  0.5825382608259275  0.17889035800057224  1.0000
  C   C5        1.0  0.2528269012808124  0.6214431416620982  0.6884337936110396  1.0000
  C   C6        1.0  0.6312934172728434  0.3786841416942721  0.8116474279998227  1.0000
  C   C7        1.0  0.7471738218256191  0.37855424256314757  0.31156634310269726  1.0000
  C   C8        1.0  0.36870210375786167  0.6213185204158548  0.18835345568486855  1.0000
  C   C9        1.0  0.32009133186393524  0.7243346896081633  0.7130407519627224  1.0000
  C   C10       1.0  0.5957904975191469  0.2758376010939543  0.7871475903636095  1.0000
  C   C11       1.0  0.6799130092306029  0.27566423008936164  0.2869557265568757  1.0000
  C   C12       1.0  0.4042075053260845  0.724164323054019  0.2128509529446417  1.0000
  C   C13       1.0  0.431500387027647  0.7616355479191484  0.7228268917220362  1.0000
  C   C14       1.0  0.6699779634140128  0.2386037310074798  0.7774750363002025  1.0000
  C   C15       1.0  0.5684984800366453  0.2383581255664566  0.2771646698243798  1.0000
  C   C16       1.0  0.3300222192700204  0.7613997022666511  0.22252349718505118  1.0000
  C   C17       1.0  0.4745618611087679  0.695160228147344  0.7065942330342733  1.0000
  C   C18       1.0  0.7794544212532842  0.3051298218229093  0.7937212228930831  1.0000
  C   C19       1.0  0.5254398169066549  0.3048319393686826  0.2933968173082988  1.0000
  C   C20       1.0  0.22054647050415344  0.6948736037816514  0.20627835302349223  1.0000
  C   C21       1.0  0.40770391011549373  0.5914184834840981  0.6796540775149749  1.0000
  C   C22       1.0  0.8162222728905276  0.4088436692039608  0.820559154319376  1.0000
  C   C23       1.0  0.592296451238248  0.40857817829897414  0.3203416339093295  1.0000
  C   C24       1.0  0.1837778608117162  0.5911582395144565  0.17944147387668605  1.0000
  C   C25       1.0  0.2950314119625191  0.5530885468452099  0.670162073601645  1.0000
  C   C26       1.0  0.741817172921067  0.4471038246264243  0.8299323279863768  1.0000
  C   C27       1.0  0.7049671766500863  0.4469088452304534  0.32983702063042125  1.0000
  C   C28       1.0  0.25818220636281813  0.5528965747849809  0.17006831008303885  1.0000
  C   C29       1.0  0.45906376611250727  0.5235476393132572  0.6601836568730517  1.0000
  C   C30       1.0  0.9353991380678083  0.4767872256507601  0.8401371312867806  1.0000
  C   C31       1.0  0.540935131749471  0.47644752083237313  0.33981102199327035  1.0000
  C   C32       1.0  0.06459960828532733  0.5232161850668079  0.15986452936655834  1.0000
  C   C33       1.0  0.2566579549301267  0.44246008631120054  0.7680517005042871  1.0000
  C   C34       1.0  0.8142536995274767  0.5576634038732493  0.7319969005762628  1.0000
  C   C35       1.0  0.7433385318047385  0.5575388040644712  0.23194894736293742  1.0000
  C   C36       1.0  0.18574748329523064  0.4423377519055903  0.26800347200529717  1.0000
  C   C37       1.0  0.1978248865530929  0.39168853144669663  0.6858293393580934  1.0000
  C   C38       1.0  0.80603831874582  0.608507175154088  0.8141732175755079  1.0000
  C   C39       1.0  0.802173441791922  0.6083126171147127  0.31417207552890847  1.0000
  C   C40       1.0  0.19396115122799523  0.39149625821046635  0.18582531588457118  1.0000
  C   C41       1.0  0.12214983512534161  0.2899488071295551  0.6567740972823514  1.0000
  C   C42       1.0  0.8321714184310592  0.7102659374690389  0.8432373100958868  1.0000
  C   C43       1.0  0.8778502949400818  0.7100530940097229  0.34322757331985787  1.0000
  C   C44       1.0  0.1678222664447233  0.2897344778240551  0.15676124295983124  1.0000
  C   C45       1.0  0.0605325244669643  0.2387925365833468  0.5818428416437056  1.0000
  C   C46       1.0  0.8216999050177093  0.761457801235544  0.9181614157198721  1.0000
  C   C47       1.0  0.9394679420087045  0.7612086117067847  0.41815857331882705  1.0000
  C   C48       1.0  0.1782919382479307  0.23854035587181238  0.08183637031607555  1.0000
  C   C49       1.0  0.07612262530853539  0.2895997914774  0.5357785706375963  1.0000
  C   C50       1.0  0.7863924937063019  0.7106598119159315  0.96422885468543  1.0000
  C   C51       1.0  0.9238806920079982  0.7104013564510224  0.4642228444256346  1.0000
  C   C52       1.0  0.21359867128362006  0.2893398395210199  0.03577100623910918  1.0000
  C   C53       1.0  0.1544753370549685  0.39049838991394387  0.5630817481722443  1.0000
  C   C54       1.0  0.7637995780089498  0.6097359994471958  0.9369314140877589  1.0000
  C   C55       1.0  0.8455272675513541  0.6095027581049022  0.4369196668658118  1.0000
  C   C56       1.0  0.23619732855244996  0.3902651568742073  0.06306895834273968  1.0000
  C   C57       1.0  0.21708929600440294  0.44330890155816144  0.6390315153159419  1.0000
  C   C58       1.0  0.7735789608659901  0.5568959428244895  0.8609819924750537  1.0000
  C   C59       1.0  0.782912179701988  0.5566899881845231  0.36096913272751846  1.0000
  C   C60       1.0  0.22641978912396615  0.44310747547221757  0.13901862577213814  1.0000
  C   C61       1.0  0.16827718514819878  0.4391235801422297  0.5087905958470527  1.0000
  C   C62       1.0  0.7289914099433049  0.5610751836459187  0.9911947136498395  1.0000
  C   C63       1.0  0.8317285323849858  0.5608738148187342  0.49120797743370287  1.0000
  C   C64       1.0  0.271009767424168  0.43892596076421597  0.008807222540937677  1.0000
  C   C65       1.0  0.48494286054984315  0.6755137613906471  0.00754428621569754  1.0000
  C   C66       1.0  0.809667234883527  0.3246143130911747  0.49255199189299487  1.0000
  C   C67       1.0  0.515057271333994  0.324488143538197  0.9924568631834415  1.0000
  C   C68       1.0  0.19033568249369637  0.6753860328141388  0.5074559431453095  1.0000
  C   C69       1.0  0.5344548749965624  0.7794658387532533  0.03471282467649656  1.0000
  C   C70       1.0  0.7551568152620333  0.22065398403896813  0.4653598821223567  1.0000
  C   C71       1.0  0.46554600766882004  0.22053756790346313  0.9652893572554433  1.0000
  C   C72       1.0  0.24484325854795944  0.7793463773863252  0.5346459680029554  1.0000
  C   C73       1.0  0.5730729237520792  0.8200813095777806  0.9822247982543357  1.0000
  C   C74       1.0  0.7530112004234227  0.17998865055106708  0.5178360826137334  1.0000
  C   C75       1.0  0.4269233462417574  0.17992285047064632  0.017777639166226294  1.0000
  C   C76       1.0  0.24698849526818387  0.8200109543259373  0.4821700330497903  1.0000
  C   C77       1.0  0.5626828403717357  0.7558085075027849  0.9050099782144511  1.0000
  C   C78       1.0  0.8068124438717063  0.24422024826373703  0.5950836803895853  1.0000
  C   C79       1.0  0.43730911892629354  0.24419415884904078  0.09499038414129048  1.0000
  C   C80       1.0  0.19318469568112545  0.7557770947283939  0.40492218943207076  1.0000
  C   C81       1.0  0.5158082151466629  0.653118673568926  0.8831315502067694  1.0000
  C   C82       1.0  0.8626863646356497  0.3469087395289421  0.6169900500636486  1.0000
  C   C83       1.0  0.48418408056160434  0.34688323993376013  0.1168685565092815  1.0000
  C   C84       1.0  0.13731257300077007  0.6530893484619187  0.38301711787936193  1.0000
  C   C85       1.0  0.8632913878928434  0.25287703201374967  0.15102873452146062  1.0000
  C   C86       1.0  0.6103544790969763  0.747135914912171  0.3489134300573865  1.0000
  C   C87       1.0  0.1367098003850913  0.7471241351337952  0.8489700744508822  1.0000
  C   C88       1.0  0.38964596385464734  0.25286376187620613  0.6510827827729456  1.0000
  C   C89       1.0  0.8234885779839731  0.1508324501150113  0.13058216446795967  1.0000
  C   C90       1.0  0.6726186337945139  0.849195305025525  0.3694232191344112  1.0000
  C   C91       1.0  0.17651260847555506  0.8491687132429602  0.8694171657074531  1.0000
  C   C92       1.0  0.32738004187120145  0.1508051134241484  0.6305748128944728  1.0000
  C   C93       1.0  0.7173831790197838  0.08485357354126682  0.08914943116213438  1.0000
  C   C94       1.0  0.6324540930850163  0.9151933463506481  0.4107673929520742  1.0000
  C   C95       1.0  0.2826194002440801  0.9151460991862663  0.9108473029467913  1.0000
  C   C96       1.0  0.36754566431724817  0.08480780960904609  0.5892329795791297  1.0000
  C   C97       1.0  0.6530016667518623  0.12326421237943212  0.07215164557120349  1.0000
  C   C98       1.0  0.5295542513785136  0.8767660592108228  0.42757085119289656  1.0000
  C   C99       1.0  0.3470012942672155  0.8767362244755218  0.9278437805933702  1.0000
  C   C100      1.0  0.4704432409502531  0.123230565038277  0.572430072161424  1.0000
  C   C101      1.0  0.6984807889571556  0.22644974603973372  0.09635357463622539  1.0000
  C   C102      1.0  0.47187648644536756  0.7735837153311138  0.40335023920098906  1.0000
  C   C103      1.0  0.3015217975803567  0.7735499418460707  0.9036410746604132  1.0000
  C   C104      1.0  0.5281235294060735  0.22641368035326795  0.5966483338783561  1.0000
  N   N1        1.0  0.47593496119166195  0.6137287166656406  0.933152194653395  1.0000
  N   N2        1.0  0.8623569427291431  0.38635061905548446  0.5669635089323319  1.0000
  N   N3        1.0  0.5240612743676679  0.38627394914362173  0.06684816785340787  1.0000
  N   N4        1.0  0.1376426659093468  0.6136459594475171  0.43304366893438123  1.0000
  N   N5        1.0  0.6177921969529265  0.9241848535817853  0.002249029414656399  1.0000
  N   N6        1.0  0.6935088882557566  0.07586561546494151  0.4977469642431274  1.0000
  N   N7        1.0  0.38220437319823464  0.07581705558876449  0.9977515986555329  1.0000
  N   N8        1.0  0.3064893095095868  0.9241309935354562  0.5022560439486552  1.0000
  N   N9        1.0  0.6791118488796001  0.9811136734439996  0.06824407595447457  1.0000
  N   N10       1.0  0.6980374713583615  0.018954546613727502  0.4317965485982143  1.0000
  N   N11       1.0  0.320887910341078  0.018887486305260395  0.9317557753736593  1.0000
  N   N12       1.0  0.3019586336212895  0.981043579634523  0.5682054072133765  1.0000
  N   N13       1.0  0.8013156288264159  0.28959677225915215  0.13446584025938785  1.0000
  N   N14       1.0  0.5116250977021937  0.7104229812933697  0.3653667614338403  1.0000
  N   N15       1.0  0.19868664664330987  0.7104051437671188  0.8655337456060719  1.0000
  N   N16       1.0  0.48837563449628624  0.2895744218797134  0.6346307692645394  1.0000
  O   O1        1.0  0.09018659796344514  0.5989396089976327  0.6301579507375478  1.0000
  O   O2        1.0  0.4911053493599554  0.4010993421478659  0.8698047391553627  1.0000
  O   O3        1.0  0.9098152522245044  0.4010600297142093  0.36984347417385516  1.0000
  O   O4        1.0  0.5088978346318527  0.5989100942481755  0.13019844566415623  1.0000
  O   O5        1.0  0.08111942370345561  0.536280419973707  0.7168853771703708  1.0000
  O   O6        1.0  0.5446767612097503  0.46374242866460236  0.7830638392439722  1.0000
  O   O7        1.0  0.9188803246067611  0.46372071703814305  0.2831176013761905  1.0000
  O   O8        1.0  0.4553150494397896  0.5362542379931625  0.2169313506751393  1.0000
  O   O9        1.0  0.2620319892013257  0.5255032637354234  0.8161430512316696  1.0000
  O   O10       1.0  0.7366586510546754  0.4746138157120541  0.6838653153637748  1.0000
  O   O11       1.0  0.73796780809068  0.47449939783214024  0.18385783260408312  1.0000
  O   O12       1.0  0.2633429153416457  0.5253881079837796  0.3161332280703632  1.0000
  O   O13       1.0  0.2998480370563996  0.39707226885097674  0.7864972689818328  1.0000
  O   O14       1.0  0.9028968400965739  0.602992419496431  0.7136341812267444  1.0000
  O   O15       1.0  0.700147053237302  0.6029281045760086  0.21350701735803299  1.0000
  O   O16       1.0  0.09710295537701805  0.39701023828156684  0.28636722381208557  1.0000
  O   O17       1.0  0.5603534747423212  0.565671322607571  0.69114429884511  1.0000
  O   O18       1.0  0.9945818214370024  0.43472875074690626  0.80903827274048  1.0000
  O   O19       1.0  0.43964467415652564  0.43432233959975974  0.3088488262853487  1.0000
  O   O20       1.0  0.005416210387508588  0.5652746562715194  0.19096390909075464  1.0000
  O   O21       1.0  0.4048689719936078  0.4306841439746307  0.617178148755606  1.0000
  O   O22       1.0  0.9739671794651344  0.5695659235551034  0.8833487825793183  1.0000
  O   O23       1.0  0.5951255988068669  0.5693094883682761  0.3828191458735474  1.0000
  O   O24       1.0  0.02602758714720469  0.4304352292480118  0.11665211097871965  1.0000
  O   O25       1.0  0.2580376208816659  0.5079535986142857  0.5132460103175231  1.0000
  O   O26       1.0  0.749956544188194  0.4922602979073431  0.9867776775193204  1.0000
  O   O27       1.0  0.7419680132352227  0.49204077755180714  0.4867525827602817  1.0000
  O   O28       1.0  0.2500402517960509  0.5077363605382955  0.013218554982174138  1.0000
  O   O29       1.0  0.08066985307372224  0.4035165910671239  0.46013355113213805  1.0000
  O   O30       1.0  0.6769603511572626  0.596648712552053  0.03983451340054237  1.0000
  O   O31       1.0  0.9193373642041394  0.5964838035600195  0.5398676084172889  1.0000
  O   O32       1.0  0.3230509110935884  0.4033569208887329  0.9601726054778579  1.0000
  O   O33       1.0  0.8181576970803377  0.39961160130756207  0.044747401411697744  1.0000
  O   O34       1.0  0.4185428011179724  0.6002677213338217  0.4550722862772857  1.0000
  O   O35       1.0  0.18184168947718152  0.6003888132621213  0.9552511518454309  1.0000
  O   O36       1.0  0.5814583037436661  0.3997304270188522  0.5449265424921065  1.0000
