data_image0
_chemical_formula_structural       Ca2Cd4H36C48O30
_chemical_formula_sum              "Ca2 Cd4 H36 C48 O30"
_cell_length_a       13.111701485860758
_cell_length_b       14.184987992614028
_cell_length_c       14.789363759064031
_cell_angle_alpha    86.96640190110438
_cell_angle_beta     63.664570095476435
_cell_angle_gamma    62.48757312453349

_space_group_name_H-M_alt    "P 1"
_space_group_IT_number       1

loop_
  _space_group_symop_operation_xyz
  'x, y, z'

loop_
  _atom_site_type_symbol
  _atom_site_label
  _atom_site_symmetry_multiplicity
  _atom_site_fract_x
  _atom_site_fract_y
  _atom_site_fract_z
  _atom_site_occupancy
  Ca  Ca1       1.0  0.537537113533915  0.75007840637965  0.7499953762923754  1.0000
  Ca  Ca2       1.0  0.4624630233741911  0.24992169975411124  0.2500039462692173  1.0000
  Cd  Cd1       1.0  0.40956442745644456  0.9621478935337465  0.6163061232877284  1.0000
  Cd  Cd2       1.0  0.48800245687494476  0.537796971278631  0.8836792215687623  1.0000
  Cd  Cd3       1.0  0.5904360804719387  0.0378530234490739  0.3836930089825614  1.0000
  Cd  Cd4       1.0  0.5119985303947131  0.4622031359001823  0.11631976168198588  1.0000
  H   H1        1.0  0.8133638534136269  0.5871235188705342  0.508460912332815  1.0000
  H   H2        1.0  0.4095560515836567  0.9127928429204316  0.9914552220885399  1.0000
  H   H3        1.0  0.18663496097295262  0.41287739411518487  0.4915395719741439  1.0000
  H   H4        1.0  0.5904410764424171  0.0872080641611817  0.008547287670090482  1.0000
  H   H5        1.0  0.05416226934624998  0.4655497580973602  0.4032200725256488  1.0000
  H   H6        1.0  0.42355743991824824  0.0342925609433564  0.09676732633074177  1.0000
  H   H7        1.0  0.9458358029997812  0.5344495331902409  0.5967807923639086  1.0000
  H   H8        1.0  0.5764410178106515  0.9657075373793023  0.9032346950975169  1.0000
  H   H9        1.0  0.08248307470059017  0.7127931853399264  0.2295015941393218  1.0000
  H   H10       1.0  0.5245353034557424  0.7871161879230472  0.27067376184939473  1.0000
  H   H11       1.0  0.9175171777098184  0.2872052982337721  0.7704984431090269  1.0000
  H   H12       1.0  0.47546967292240083  0.21288149297890166  0.7293237564102244  1.0000
  H   H13       1.0  0.8439625169456734  0.8334492749641598  0.3318313300164987  1.0000
  H   H14       1.0  0.5089883544680731  0.6665143560395991  0.16828239583475835  1.0000
  H   H15       1.0  0.1560390436236716  0.1665484055715822  0.6681661986564791  1.0000
  H   H16       1.0  0.4910135914841476  0.33348413153120043  0.8317162893769209  1.0000
  H   H17       1.0  0.21206849302658518  0.8293909064009172  0.9415681634462629  1.0000
  H   H18       1.0  0.48272711161273907  0.670778580252133  0.5584499076943106  1.0000
  H   H19       1.0  0.7879316295189299  0.17060920354684583  0.058429812285332526  1.0000
  H   H20       1.0  0.5172747260184779  0.3292215279717325  0.4415487362456077  1.0000
  H   H21       1.0  0.9819235233452587  0.13604458989136964  0.8866307304495253  1.0000
  H   H22       1.0  0.5050323612651724  0.3638243849686732  0.6132630289825515  1.0000
  H   H23       1.0  0.018077078541530473  0.8639547102523791  0.11336709626252887  1.0000
  H   H24       1.0  0.49496996288861783  0.6361749115441881  0.3867361393528201  1.0000
  H   H25       1.0  0.37250489293035827  0.8388902201109688  0.49163154007005977  1.0000
  H   H26       1.0  0.20301114552864855  0.6609830400569552  0.008468474590785072  1.0000
  H   H27       1.0  0.6274934492962457  0.161111500771753  0.508369766671436  1.0000
  H   H28       1.0  0.7969902271238922  0.339017874156923  0.9915316651986573  1.0000
  H   H29       1.0  0.41182993569906046  0.9223350157674942  0.43021633443365914  1.0000
  H   H30       1.0  0.2643659875133437  0.5776130007074798  0.06988015265300626  1.0000
  H   H31       1.0  0.5881692425264974  0.07766670997428092  0.5697832861670022  1.0000
  H   H32       1.0  0.7356349997563216  0.42238710647133354  0.930118830597742  1.0000
  H   H33       1.0  0.7304376049867897  0.8139169661914566  0.7654477393637723  1.0000
  H   H34       1.0  0.809382201659531  0.6864579532889934  0.7346465992881406  1.0000
  H   H35       1.0  0.269554813434148  0.1860847397479048  0.23455863621357756  1.0000
  H   H36       1.0  0.1906145912527605  0.3135421334085606  0.26535946783678105  1.0000
  C   C1        1.0  0.8134356690215229  0.7183944103577389  0.4274774952588276  1.0000
  C   C2        1.0  0.45954352066338083  0.7815462945554899  0.07251188732252706  1.0000
  C   C3        1.0  0.18656446070529129  0.2816056976830269  0.5725211538877633  1.0000
  C   C4        1.0  0.5404571027672986  0.21845299986726732  0.9274879596345188  1.0000
  C   C5        1.0  0.8725951066674541  0.6135674527915285  0.4462191889157339  1.0000
  C   C6        1.0  0.43290471224813115  0.8863175019023828  0.05370169663331851  1.0000
  C   C7        1.0  0.12740418706040652  0.3864326503901837  0.5537811463716906  1.0000
  C   C8        1.0  0.5670928879379176  0.1136825972822209  0.9462999906907826  1.0000
  C   C9        1.0  0.006395204741657659  0.5457280003033207  0.3872329297986213  1.0000
  C   C10       1.0  0.4398620972536304  0.9541135031052125  0.11271480857427468  1.0000
  C   C11       1.0  0.9936054258703209  0.45427129221243934  0.6127675905734267  1.0000
  C   C12       1.0  0.5601376901780953  0.0458857864584914  0.8872867245236051  1.0000
  C   C13       1.0  0.08293118070314866  0.5811144161463987  0.3091824747533425  1.0000
  C   C14       1.0  0.47348894573213596  0.9187110432445351  0.19082322895687304  1.0000
  C   C15       1.0  0.9170702063119835  0.4188864942534778  0.6908190118660968  1.0000
  C   C16       1.0  0.5265130145826759  0.08128744051226991  0.809176803084796  1.0000
  C   C17       1.0  0.022759984885901335  0.6847723596167867  0.28918719501933776  1.0000
  C   C18       1.0  0.4967152302772319  0.8151010869654627  0.21089916546469584  1.0000
  C   C19       1.0  0.9772406385447853  0.3152269348059704  0.710812651937708  1.0000
  C   C20       1.0  0.503288059740406  0.1848965880323874  0.7891003782465943  1.0000
  C   C21       1.0  0.8890571338067231  0.7528922337535137  0.34758112219057585  1.0000
  C   C22       1.0  0.4895119166353723  0.7470262650230239  0.1524801440088694  1.0000
  C   C23       1.0  0.11094225387953562  0.24710625258913413  0.6524179075386131  1.0000
  C   C24       1.0  0.5104892004991869  0.25297221578172474  0.8475209007586315  1.0000
  C   C25       1.0  0.6720001737993185  0.7946018491248951  0.4947739891520798  1.0000
  C   C26       1.0  0.46146855745904236  0.7054888393412926  0.005194052001058918  1.0000
  C   C27       1.0  0.3279979057280116  0.2053974402557017  0.5052275491524796  1.0000
  C   C28       1.0  0.538532444173221  0.2945112640235195  0.9948062780796789  1.0000
  C   C29       1.0  0.2284126702711616  0.5104602092351201  0.2518864708298025  1.0000
  C   C30       1.0  0.49094011372856977  0.9893901500411533  0.2481453833812069  1.0000
  C   C31       1.0  0.7715848359564887  0.4895415067885551  0.7481165220525272  1.0000
  C   C32       1.0  0.5090614755659645  0.0106075228665858  0.7518548389517647  1.0000
  C   C33       1.0  0.22088555721148853  0.960709438540249  0.8031706002117006  1.0000
  C   C34       1.0  0.4848091612910609  0.5393358845719192  0.6967223453316153  1.0000
  C   C35       1.0  0.7791137149724747  0.03929067036246182  0.19682771483073228  1.0000
  C   C36       1.0  0.515191346637323  0.46066503241090107  0.3032767869386746  1.0000
  C   C37       1.0  0.10697521564109257  0.980808040521815  0.9048310102817612  1.0000
  C   C38       1.0  0.4926762923949043  0.5192218929784289  0.5950883553176213  1.0000
  C   C39       1.0  0.8930253790643974  0.0191912615289382  0.09516614301529817  1.0000
  C   C40       1.0  0.5073221437900983  0.4807782110652282  0.4049116458656384  1.0000
  C   C41       1.0  0.11834580429261608  0.9033398611615056  0.9679962613768824  1.0000
  C   C42       1.0  0.48952359251030925  0.5967652330545691  0.5319917657007666  1.0000
  C   C43       1.0  0.8816539400513222  0.09665943984420267  0.032001231231014206  1.0000
  C   C44       1.0  0.5104760650565294  0.40323568288319933  0.4680077058803534  1.0000
  C   C45       1.0  0.9881144625138275  0.0774359924261105  0.9374374590926708  1.0000
  C   C46       1.0  0.5032553416953293  0.42247625016789675  0.5624957850223141  1.0000
  C   C47       1.0  0.011885281830110646  0.9225633085795906  0.06256003351522574  1.0000
  C   C48       1.0  0.4967443230528018  0.5775246638628745  0.4375043599738079  1.0000
  O   O1        1.0  0.6072213664317161  0.768951386523881  0.575910873198808  1.0000
  O   O2        1.0  0.45223976877231553  0.7312338448184974  0.9240878164853824  1.0000
  O   O3        1.0  0.39277865497409425  0.23105034216995082  0.42408773467602157  1.0000
  O   O4        1.0  0.5477617122012147  0.2687654487423146  0.0759123645758209  1.0000
  O   O5        1.0  0.3564526297120023  0.9128100668986363  0.4992886438586695  1.0000
  O   O6        1.0  0.26850185539947086  0.5870672001142623  0.0008312225719891062  1.0000
  O   O7        1.0  0.6435465556948543  0.08719165693613463  0.5007116501569941  1.0000
  O   O8        1.0  0.7314978093486674  0.4129337139165089  0.9991689224241328  1.0000
  O   O9        1.0  0.6171755188066328  0.8858723568684042  0.47066584378844584  1.0000
  O   O10       1.0  0.4735820712942456  0.6142385031804806  0.029276217626403422  1.0000
  O   O11       1.0  0.3828245097804767  0.1141293699184232  0.5293334375013787  1.0000
  O   O12       1.0  0.5264202528595446  0.38576079333238067  0.9707229507089681  1.0000
  O   O13       1.0  0.7268918671050953  0.7502803380202394  0.7496583961441844  1.0000
  O   O14       1.0  0.27310823389652233  0.2497197776485152  0.25033755934241253  1.0000
  O   O15       1.0  0.2915703115329009  0.5390979878111108  0.17103642011264236  1.0000
  O   O16       1.0  0.501493877309798  0.960928565685755  0.3291433280782814  1.0000
  O   O17       1.0  0.7084298684629999  0.46090210688065275  0.8289669429389263  1.0000
  O   O18       1.0  0.4985067533021875  0.0390707268299977  0.6708571922937666  1.0000
  O   O19       1.0  0.28140380077280003  0.42904114421678236  0.2864647909013129  1.0000
  O   O20       1.0  0.49739802266262967  0.07068930833001731  0.21343350459577698  1.0000
  O   O21       1.0  0.7185972804552704  0.5709573461229668  0.7135328867912066  1.0000
  O   O22       1.0  0.5026029789696266  0.9293107950348015  0.7865668254849681  1.0000
  O   O23       1.0  0.20836448009808348  0.0374426764457425  0.7520774818857063  1.0000
  O   O24       1.0  0.4980635002250437  0.46254641305927185  0.7477604571375238  1.0000
  O   O25       1.0  0.7916347849045806  0.9625574343639657  0.24792015974173146  1.0000
  O   O26       1.0  0.5019353141615427  0.5374544999264401  0.2522400271694354  1.0000
  O   O27       1.0  0.325157678536385  0.8697935330060461  0.770183412825901  1.0000
  O   O28       1.0  0.46508551830229544  0.6302737178486667  0.7297734977258729  1.0000
  O   O29       1.0  0.6748428293919987  0.13020738397677428  0.22981571944438173  1.0000
  O   O30       1.0  0.5349146257871099  0.36972638637809746  0.27022649825070744  1.0000
