data_image0
_chemical_formula_structural       Co2H22C18S4N6O4
_chemical_formula_sum              "Co2 H22 C18 S4 N6 O4"
_cell_length_a       8.204092048809411
_cell_length_b       8.911792280702986
_cell_length_c       9.1732207646555
_cell_angle_alpha    110.14015781411925
_cell_angle_beta     103.28278840575784
_cell_angle_gamma    89.97333819666534

_space_group_name_H-M_alt    "P 1"
_space_group_IT_number       1

loop_
  _space_group_symop_operation_xyz
  'x, y, z'

loop_
  _atom_site_type_symbol
  _atom_site_label
  _atom_site_symmetry_multiplicity
  _atom_site_fract_x
  _atom_site_fract_y
  _atom_site_fract_z
  _atom_site_occupancy
  Co  Co1       1.0  0.6792925402900494  0.8926360573588425  0.523748709183721  1.0000
  Co  Co2       1.0  0.3207069624251844  0.10736554009653079  0.4762482320223498  1.0000
  H   H1        1.0  0.980122029803816  0.4839534046715173  0.6316100085600809  1.0000
  H   H2        1.0  0.019875375872970807  0.5160532345197808  0.36837959166682305  1.0000
  H   H3        1.0  0.7247561193213556  0.5816604426125663  0.01296482288773856  1.0000
  H   H4        1.0  0.2752548664678827  0.41834196140108293  0.9870400371277626  1.0000
  H   H5        1.0  0.8049469741680395  0.21883929717066045  0.49603845874127467  1.0000
  H   H6        1.0  0.19504582074690552  0.7811589033590423  0.5039538270149748  1.0000
  H   H7        1.0  0.5637144801164097  0.31124107883677965  0.8638376017340121  1.0000
  H   H8        1.0  0.4362911886740762  0.6887577364463128  0.13617043278006952  1.0000
  H   H9        1.0  0.7778852304021341  0.049579614780455486  0.8933434593705555  1.0000
  H   H10       1.0  0.22211616886698243  0.9504144509028974  0.1066642669388784  1.0000
  H   H11       1.0  0.6805423636803456  0.9256561252350366  0.9723048684107809  1.0000
  H   H12       1.0  0.31945381779046034  0.0743369567345908  0.02769715714232029  1.0000
  H   H13       1.0  0.559187294932947  0.0589082381017931  0.8922733972044413  1.0000
  H   H14       1.0  0.44081180681317267  0.9410883792813821  0.10773043225001541  1.0000
  H   H15       1.0  0.9314319218427086  0.7833455425574414  0.028405209008646248  1.0000
  H   H16       1.0  0.06856042809035048  0.21665992895096048  0.9715873802710817  1.0000
  H   H17       1.0  0.9331857395642801  0.7899177504804625  0.8360974132084492  1.0000
  H   H18       1.0  0.0668171273663205  0.21008147140854308  0.16389387518268708  1.0000
  H   H19       1.0  0.09679046212223602  0.7046544143086136  0.9335190109405858  1.0000
  H   H20       1.0  0.9032088603652613  0.2953446701145168  0.06648246061582347  1.0000
  H   H21       1.0  0.5323847874678903  0.7818177397006777  0.7138296889591729  1.0000
  H   H22       1.0  0.46761592477930236  0.2181825129163428  0.2861724593528194  1.0000
  C   C1        1.0  0.0581320109473467  0.021081747246718404  0.6781795602629472  1.0000
  C   C2        1.0  0.9418505114673935  0.9789129418875716  0.3218171669826189  1.0000
  C   C3        1.0  0.8887106322156627  0.4516121504718811  0.6874295299968766  1.0000
  C   C4        1.0  0.11126639334623431  0.5483683118373364  0.3125578547917627  1.0000
  C   C5        1.0  0.6706069452622574  0.5218501545373683  0.3427697195245187  1.0000
  C   C6        1.0  0.32939272092302474  0.4781417738877848  0.6572260173776884  1.0000
  C   C7        1.0  0.7470187455779324  0.5060018932541651  0.8986238578722661  1.0000
  C   C8        1.0  0.25297725462331044  0.4939900356819963  0.10137554483834783  1.0000
  C   C9        1.0  0.8649634737331053  0.5576938620145596  0.8333035439629057  1.0000
  C   C10       1.0  0.13504372348933202  0.4423100404857365  0.16669131131131817  1.0000
  C   C11       1.0  0.7961889897891864  0.3047789116015735  0.610740261167649  1.0000
  C   C12       1.0  0.2038198353601999  0.6952475732585411  0.3892737874163075  1.0000
  C   C13       1.0  0.656718893329554  0.3578994829062552  0.8195668897419494  1.0000
  C   C14       1.0  0.34329293803704536  0.6421087552631661  0.18044782580753346  1.0000
  C   C15       1.0  0.6619220163405828  0.9799089083729343  0.8794329329221426  1.0000
  C   C16       1.0  0.3380768038936992  0.020085310958720005  0.1205699957519286  1.0000
  C   C17       1.0  0.9613461869146462  0.7182852751915048  0.913922240945979  1.0000
  C   C18       1.0  0.038652087053634404  0.28171633009958436  0.08607556012084666  1.0000
  S   S1        1.0  0.2560288607523021  0.0851260308307431  0.7251259040947957  1.0000
  S   S2        1.0  0.743973361753689  0.9148766120020823  0.274876285136834  1.0000
  S   S3        1.0  0.6608777553471796  0.3344771096560494  0.22978931233016917  1.0000
  S   S4        1.0  0.33911902861913024  0.6655220824230951  0.7702095340431754  1.0000
  N   N1        1.0  0.9143252277578283  0.9745329627102992  0.6442966161406148  1.0000
  N   N2        1.0  0.0856894645290822  0.025469394800055105  0.3557067505187703  1.0000
  N   N3        1.0  0.6813498395042216  0.2611448203793785  0.6772424396675518  1.0000
  N   N4        1.0  0.3186523641604211  0.7388483603885445  0.32274876922490126  1.0000
  N   N5        1.0  0.6811929936672813  0.6591084892454405  0.4244393236842187  1.0000
  N   N6        1.0  0.3188067510879761  0.34089419225496437  0.5755634990427652  1.0000
  O   O1        1.0  0.5867179672445316  0.11990469319621155  0.5989857002471907  1.0000
  O   O2        1.0  0.4132817369970851  0.8800980342964805  0.401014950027509  1.0000
  O   O3        1.0  0.6265877318110425  0.8579286007561889  0.7233704923694332  1.0000
  O   O4        1.0  0.37341392767126536  0.1420692459736017  0.2766298953014186  1.0000
