data_image0
_chemical_formula_structural       Co2H32C20N12O12
_chemical_formula_sum              "Co2 H32 C20 N12 O12"
_cell_length_a       7.477866300492741
_cell_length_b       7.9988377160363004
_cell_length_c       13.688593319011868
_cell_angle_alpha    90.01418294078496
_cell_angle_beta     89.98590891032185
_cell_angle_gamma    111.6445683631359

_space_group_name_H-M_alt    "P 1"
_space_group_IT_number       1

loop_
  _space_group_symop_operation_xyz
  'x, y, z'

loop_
  _atom_site_type_symbol
  _atom_site_label
  _atom_site_symmetry_multiplicity
  _atom_site_fract_x
  _atom_site_fract_y
  _atom_site_fract_z
  _atom_site_occupancy
  Co  Co1       1.0  1.1890483385552761e-05  0.5000000380326313  0.5000008230216721  1.0000
  Co  Co2       1.0  0.49998736179193065  0.5000013736782307  0.9999942235912299  1.0000
  H   H1        1.0  0.524106829458468  0.663563494935488  0.2417132679540046  1.0000
  H   H2        1.0  0.975933738724258  0.3364387661863616  0.7416868661523778  1.0000
  H   H3        1.0  0.47587763959595014  0.3364541166138508  0.7582885607906746  1.0000
  H   H4        1.0  0.02408979928375738  0.6635694144065167  0.2583134981884143  1.0000
  H   H5        1.0  0.4973844985934832  0.16801132794548573  0.1262880648812441  1.0000
  H   H6        1.0  0.002562736210585211  0.8320252052392475  0.6263716061762492  1.0000
  H   H7        1.0  0.5026024628117155  0.8319753419000476  0.8737079171617238  1.0000
  H   H8        1.0  0.9974439694528171  0.16797760041288254  0.3736272978436119  1.0000
  H   H9        1.0  0.6398157761805409  0.1730608063620238  0.3895425038753046  1.0000
  H   H10       1.0  0.8600852602526673  0.8269414912671847  0.8895476313500978  1.0000
  H   H11       1.0  0.360187431210676  0.8269500716154708  0.6104549398982684  1.0000
  H   H12       1.0  0.13990464915816156  0.17304248798206598  0.1104541945794892  1.0000
  H   H13       1.0  0.5555629773666341  0.026767863032134204  0.2884271079230984  1.0000
  H   H14       1.0  0.9444481739748128  0.973185634671239  0.7884267480476977  1.0000
  H   H15       1.0  0.44445253787954186  0.9732403207112055  0.7115747180320752  1.0000
  H   H16       1.0  0.05552915126353499  0.026803730806768997  0.21158019287324237  1.0000
  H   H17       1.0  0.2153143573295893  0.0205244165836334  0.32816014514395414  1.0000
  H   H18       1.0  0.28466569348434934  0.9794373104682987  0.828153855241446  1.0000
  H   H19       1.0  0.7846859740032103  0.9794622492918705  0.6718416802748662  1.0000
  H   H20       1.0  0.7153124209433982  0.020557433991243098  0.1718428585236182  1.0000
  H   H21       1.0  0.30721991449464536  0.11912335326271517  0.4419032384429612  1.0000
  H   H22       1.0  0.19269777708833408  0.8809004814450176  0.9419242895368143  1.0000
  H   H23       1.0  0.6927817532151153  0.8808633128034202  0.5581029700968898  1.0000
  H   H24       1.0  0.8072976648651604  0.11911443432346398  0.05806877184509319  1.0000
  H   H25       1.0  0.34557559425640255  0.5791913625521801  0.4620661960212188  1.0000
  H   H26       1.0  0.1544760660966206  0.42089650079024205  0.9620722633069503  1.0000
  H   H27       1.0  0.6544570103032257  0.42082623111144807  0.5379334378546616  1.0000
  H   H28       1.0  0.8455058217366018  0.5790874804794016  0.037923718884236686  1.0000
  H   H29       1.0  0.3386211212725883  0.4950282296463725  0.5680940857799682  1.0000
  H   H30       1.0  0.16140563304038122  0.5050117934945888  0.0681306784462663  1.0000
  H   H31       1.0  0.6613991920570186  0.5049853338764123  0.4319121234529817  1.0000
  H   H32       1.0  0.8385842771994092  0.4949721849636077  0.9318660337363767  1.0000
  C   C1        1.0  0.524879824623092  0.5288243060694171  0.2348473410656098  1.0000
  C   C2        1.0  0.9752192646294588  0.4712269190508565  0.734760286886498  1.0000
  C   C3        1.0  0.4751054691206349  0.4711852335643485  0.7651522954302479  1.0000
  C   C4        1.0  0.02479998698277806  0.528783953868782  0.265242269546377  1.0000
  C   C5        1.0  0.5098753264104303  0.2776801937669191  0.1757422056793203  1.0000
  C   C6        1.0  0.9900689067551056  0.7223218826193755  0.6757437215736173  1.0000
  C   C7        1.0  0.49011163333684493  0.7223064776607089  0.82426400385755  1.0000
  C   C8        1.0  0.009942066073833215  0.2776849575671392  0.32425810459162113  1.0000
  C   C9        1.0  0.5250099228066886  0.12454010647204677  0.33494143454439745  1.0000
  C   C10       1.0  0.9749848586689039  0.8755058107431849  0.8349804300580813  1.0000
  C   C11       1.0  0.47499436494002373  0.8754667358124877  0.665058200468195  1.0000
  C   C12       1.0  0.025003164216819605  0.12448354993150448  0.1650206658555291  1.0000
  C   C13       1.0  0.3285522489845363  0.03585388910408941  0.38262083519138196  1.0000
  C   C14       1.0  0.17141222992727737  0.9641435221687046  0.882633509286684  1.0000
  C   C15       1.0  0.6714549872414965  0.9641502621321367  0.6173817215667228  1.0000
  C   C16       1.0  0.8285735952080344  0.0358673622581094  0.1173646662004586  1.0000
  C   C17       1.0  0.2937470277555008  0.8471702414443242  0.4208336831869133  1.0000
  C   C18       1.0  0.2062601246816271  0.15284973003442562  0.920822229368305  1.0000
  C   C19       1.0  0.7062936171382858  0.15284062378979263  0.579169602331028  1.0000
  C   C20       1.0  0.7937054416656721  0.8471369491917284  0.07918398161876888  1.0000
  N   N1        1.0  0.5327955098549921  0.2754000358380538  0.27312522038738507  1.0000
  N   N2        1.0  0.9671969364065874  0.7245971648646119  0.7731301705722301  1.0000
  N   N3        1.0  0.4671975489711856  0.7246054663437461  0.7268809901059753  1.0000
  N   N4        1.0  0.03280095896350592  0.27540026337435813  0.2268701947239933  1.0000
  N   N5        1.0  0.5421689296003648  0.43519373291513824  0.3121073428982796  1.0000
  N   N6        1.0  0.9578656715754688  0.5648289511997074  0.8120537884911484  1.0000
  N   N7        1.0  0.4578342585606095  0.564823871923494  0.6878952151127533  1.0000
  N   N8        1.0  0.042113523089355544  0.4351617576798787  0.1879458470482192  1.0000
  N   N9        1.0  0.5044496786340815  0.43653422279257365  0.1491502258958803  1.0000
  N   N10       1.0  0.9955611028442489  0.5635012961156176  0.6490811397357419  1.0000
  N   N11       1.0  0.4955412930862266  0.5634524464947858  0.8508516001574051  1.0000
  N   N12       1.0  0.004451206835341368  0.4365055438095027  0.35092214740941324  1.0000
  O   O1        1.0  0.13597393035703936  0.7738604222362753  0.46800458955141977  1.0000
  O   O2        1.0  0.36402346259320956  0.22610687902831467  0.9679846077077272  1.0000
  O   O3        1.0  0.8640635466016916  0.2261356462483874  0.531995042428548  1.0000
  O   O4        1.0  0.6359556970453895  0.77389728029636  0.0320040707834792  1.0000
  O   O5        1.0  0.4161267643147398  0.7765139261338518  0.4024794327019875  1.0000
  O   O6        1.0  0.0839575737322562  0.223562217074516  0.9024444351898708  1.0000
  O   O7        1.0  0.5839050709962804  0.22349156100906234  0.5975209308806413  1.0000
  O   O8        1.0  0.9160112188329491  0.7764190777526423  0.09754643394641958  1.0000
  O   O9        1.0  0.2703441112967156  0.47349027490334095  0.5044215005456252  1.0000
  O   O10       1.0  0.22972834303806172  0.5265596342365981  0.004454893324101799  1.0000
  O   O11       1.0  0.7296895738552607  0.5265232828413176  0.49557886349872854  1.0000
  O   O12       1.0  0.770254607341492  0.47342703684514476  0.9955396279202231  1.0000
