data_image0
_chemical_formula_structural       Gd4Ni3H42C30N6O42
_chemical_formula_sum              "Gd4 Ni3 H42 C30 N6 O42"
_cell_length_a       7.137751901138025
_cell_length_b       12.640821686368865
_cell_length_c       14.615878012496237
_cell_angle_alpha    74.77403012609751
_cell_angle_beta     89.87916506202927
_cell_angle_gamma    87.82651704425288

_space_group_name_H-M_alt    "P 1"
_space_group_IT_number       1

loop_
  _space_group_symop_operation_xyz
  'x, y, z'

loop_
  _atom_site_type_symbol
  _atom_site_label
  _atom_site_symmetry_multiplicity
  _atom_site_fract_x
  _atom_site_fract_y
  _atom_site_fract_z
  _atom_site_occupancy
  Gd  Gd1       1.0  0.2537579566406478  0.1264930793503112  0.32586769441142854  1.0000
  Gd  Gd2       1.0  0.746239645266307  0.8735054618806117  0.6741332265683369  1.0000
  Gd  Gd3       1.0  0.6805419976897937  0.5403209791074062  0.2552870027066376  1.0000
  Gd  Gd4       1.0  0.31946101972246055  0.4596800424727903  0.7447133480090287  1.0000
  Ni  Ni1       1.0  2.9206878978088676e-06  0.49999956108668897  0.9999990991547775  1.0000
  Ni  Ni2       1.0  0.9655832531478835  0.8267418917126219  0.300161266096346  1.0000
  Ni  Ni3       1.0  0.0344115965242153  0.17325582686832763  0.6998364249112754  1.0000
  H   H1        1.0  0.5366527740541116  0.9502073595169449  0.1722718929820175  1.0000
  H   H2        1.0  0.46334730662523776  0.0497952993586068  0.8277253570600395  1.0000
  H   H3        1.0  0.6761096031721295  0.06273779071555911  0.1696452972755793  1.0000
  H   H4        1.0  0.323889337014819  0.9372615757196384  0.830355434870235  1.0000
  H   H5        1.0  0.790770951737798  0.8537117371609851  0.1435583955635664  1.0000
  H   H6        1.0  0.2092290041709006  0.14629256265020976  0.8564384843350723  1.0000
  H   H7        1.0  0.9198173729808873  0.05242422145887098  0.0702028238303427  1.0000
  H   H8        1.0  0.08018831301764351  0.9475784549043453  0.9297950956764184  1.0000
  H   H9        1.0  0.06522970107081962  0.9312039136313714  0.08840398394330147  1.0000
  H   H10       1.0  0.9347703849243415  0.06879874232787128  0.9115946351260931  1.0000
  H   H11       1.0  0.3061968477371408  0.686239920213474  0.08367735020695471  1.0000
  H   H12       1.0  0.6938033577128521  0.3137610977264345  0.9163202699785202  1.0000
  H   H13       1.0  0.42546342951659705  0.6516235051920488  0.9889846535878348  1.0000
  H   H14       1.0  0.5745395148787156  0.34837834268858353  0.011012774001450487  1.0000
  H   H15       1.0  0.15957687553335387  0.6800629917193531  0.9083741181278527  1.0000
  H   H16       1.0  0.8404232051459956  0.3199396671561913  0.0916231319142113  1.0000
  H   H17       1.0  0.9016583764485662  0.7662494179363646  0.9438497398736985  1.0000
  H   H18       1.0  0.0983418290014271  0.23375160000353648  0.056147880311776505  1.0000
  H   H19       1.0  0.054794123782770036  0.7877289658365497  0.03229826203607191  1.0000
  H   H20       1.0  0.9452046186165858  0.21227286783472718  0.9676991768399363  1.0000
  H   H21       1.0  0.2705719965384361  0.5949763014667296  0.42094867887636417  1.0000
  H   H22       1.0  0.7294284770581996  0.40502142439481753  0.5790544731916327  1.0000
  H   H23       1.0  0.3986981979378541  0.710771653566418  0.42322836377055495  1.0000
  H   H24       1.0  0.601302262369245  0.28922607958589447  0.5767713657291011  1.0000
  H   H25       1.0  0.14033600348793843  0.7874161757811747  0.46261099205118944  1.0000
  H   H26       1.0  0.8596659225277108  0.2125807401816147  0.5373896032716063  1.0000
  H   H27       1.0  0.8777859040107643  0.7035795393370915  0.5148942536185146  1.0000
  H   H28       1.0  0.12221865478489488  0.2964198372950051  0.4851105705603516  1.0000
  H   H29       1.0  0.02874962943072031  0.5881084232928656  0.5206004287153903  1.0000
  H   H30       1.0  0.9712478556793015  0.41189175449923715  0.479402175661967  1.0000
  H   H31       1.0  0.5549938895963108  0.11479876287110355  0.47634453888741046  1.0000
  H   H32       1.0  0.44500358753999336  0.8852014192954555  0.523656011948944  1.0000
  H   H33       1.0  0.3633377632645817  0.13890081747624086  0.5205858300267394  1.0000
  H   H34       1.0  0.6366598466160839  0.8610977193802184  0.4794171444940433  1.0000
  H   H35       1.0  0.5624441105544946  0.2806374497162523  0.2217717634609429  1.0000
  H   H36       1.0  0.43755622763986696  0.719361922913549  0.7782282804089675  1.0000
  H   H37       1.0  0.3693754099003357  0.3084999153634981  0.16876261586804023  1.0000
  H   H38       1.0  0.6306250477488575  0.6914978192469688  0.8312364291179508  1.0000
  H   H39       1.0  0.3802062323002673  0.38302211930613334  0.3563144810154668  1.0000
  H   H40       1.0  0.6197967851119943  0.6169789022740629  0.6436858697001996  1.0000
  H   H41       1.0  0.4718660079033938  0.440431419500399  0.42938527601148024  1.0000
  H   H42       1.0  0.5281398705669246  0.5595687925430397  0.570614567737742  1.0000
  C   C1        1.0  0.6665500845012178  0.9738932818075339  0.20068283177486282  1.0000
  C   C2        1.0  0.333448665871849  0.02610854748927949  0.7993166606421556  1.0000
  C   C3        1.0  0.639124148209696  0.9560834885126325  0.307051429737257  1.0000
  C   C4        1.0  0.3608705249380648  0.043916685639175085  0.6929484441099092  1.0000
  C   C5        1.0  0.9767390024554388  0.980512275519622  0.12428940969773096  1.0000
  C   C6        1.0  0.0232596828744036  0.019490375703170998  0.8757092131339022  1.0000
  C   C7        1.0  0.1041612816006179  0.020735291834050405  0.1903687152575984  1.0000
  C   C8        1.0  0.8958415353661381  0.9792681984403869  0.8096276576745964  1.0000
  C   C9        1.0  0.3033458904496982  0.6323030630801725  0.03558075018769808  1.0000
  C   C10       1.0  0.6966569942181948  0.3676996038101307  0.964417176843547  1.0000
  C   C11       1.0  0.33568376951328827  0.5151434842993367  0.09587507333876029  1.0000
  C   C12       1.0  0.6643206432484803  0.48485754493362515  0.9041239045873299  1.0000
  C   C13       1.0  0.9885718125286903  0.7241615760263893  0.0056926927844501525  1.0000
  C   C14       1.0  0.0114269298706589  0.27584025764488734  0.9943047460915652  1.0000
  C   C15       1.0  0.8616275308360599  0.6629691967902854  0.08292071270027183  1.0000
  C   C16       1.0  0.13837706908167038  0.33702937103921454  0.9170788204409492  1.0000
  C   C17       1.0  0.27350037013346207  0.6844662067916331  0.3928216275779945  1.0000
  C   C18       1.0  0.7264972941588113  0.31553151397146445  0.6071794784734905  1.0000
  C   C19       1.0  0.30023380209406275  0.7100750823638932  0.28581811708587423  1.0000
  C   C20       1.0  0.6997612453656358  0.2899201689809772  0.7141828671915534  1.0000
  C   C21       1.0  0.9637606926634276  0.6615574574299573  0.47190080549925983  1.0000
  C   C22       1.0  0.036238195769818994  0.3384427236404477  0.5281024796295242  1.0000
  C   C23       1.0  0.8349488046147541  0.6267775914805327  0.4044601657392946  1.0000
  C   C24       1.0  0.16504734487318024  0.3732217596491408  0.5955433119856793  1.0000
  C   C25       1.0  0.049100257360152  0.371215852528394  0.3013161689893096  1.0000
  C   C26       1.0  0.9509029445501724  0.6287827091064953  0.6986840524278223  1.0000
  C   C27       1.0  0.9150771167000115  0.3088446155730722  0.2539474470217655  1.0000
  C   C28       1.0  0.08491762680679221  0.6911547337364539  0.7460546654381162  1.0000
  C   C29       1.0  0.06700266990838341  0.9488988783193121  0.511491426134306  1.0000
  C   C30       1.0  0.9329990769250145  0.05110049467248249  0.4885106675143618  1.0000
  N   N1        1.0  0.8301038791600063  0.9123173106203238  0.17655237241397265  1.0000
  N   N2        1.0  0.16989474378451064  0.08768616107028747  0.8234460653459551  1.0000
  N   N3        1.0  0.1289475498330006  0.650183148997705  0.9785120834792452  1.0000
  N   N4        1.0  0.8710511899084495  0.3498186861317193  0.021484670883097606  1.0000
  N   N5        1.0  0.10331982092375114  0.7377152797785766  0.4211596299161969  1.0000
  N   N6        1.0  0.8966779057538475  0.26228162051669557  0.578841661207001  1.0000
  O   O1        1.0  0.5138517112241845  0.014036228026341694  0.3338259613534973  1.0000
  O   O2        1.0  0.486147228962757  0.9859631384088486  0.6661747707923169  1.0000
  O   O3        1.0  0.7396358159028154  0.882848652254822  0.3651280234354956  1.0000
  O   O4        1.0  0.2603643948629895  0.11715236276877757  0.6348709657773244  1.0000
  O   O5        1.0  0.2249730814822897  0.090271624235875  0.15895373151247583  1.0000
  O   O6        1.0  0.7750198710998147  0.9097326518930445  0.8410431671973768  1.0000
  O   O7        1.0  0.08100582262192549  0.9814457719865859  0.28068579438264857  1.0000
  O   O8        1.0  0.919004499411919  0.018551176769385298  0.7193127248256843  1.0000
  O   O9        1.0  0.22820101239766896  0.43992846550733583  0.08699124875543868  1.0000
  O   O10       1.0  0.7718021948284672  0.5600700932112516  0.9130103416890307  1.0000
  O   O11       1.0  0.474384228826203  0.4962985042345593  0.15198217320767782  1.0000
  O   O12       1.0  0.5256197419224833  0.5037082711894668  0.8480141401891004  1.0000
  O   O13       1.0  0.7480589572620743  0.7137153014823384  0.12401655005905349  1.0000
  O   O14       1.0  0.25195852476389285  0.28628001252242535  0.8759905346455099  1.0000
  O   O15       1.0  0.8734888327154593  0.5572401884698904  0.10677960417618244  1.0000
  O   O16       1.0  0.12650434814469244  0.4427608174529709  0.8932125587111558  1.0000
  O   O17       1.0  0.4396011276240586  0.6641190444697145  0.2564467255141736  1.0000
  O   O18       1.0  0.5603935402078833  0.33588113259839486  0.7435517793056547  1.0000
  O   O19       1.0  0.18539858702138187  0.7764498434321822  0.2308507532003006  1.0000
  O   O20       1.0  0.8145909825476779  0.22354374803122568  0.7691506162695134  1.0000
  O   O21       1.0  0.8427616933478035  0.6775659931634618  0.31580486076007475  1.0000
  O   O22       1.0  0.15723190435078044  0.3224300666220116  0.6841993647762338  1.0000
  O   O23       1.0  0.7246420930166835  0.5492924407937848  0.4330369934571365  1.0000
  O   O24       1.0  0.2753568737493239  0.45070691105988187  0.5669705838253734  1.0000
  O   O25       1.0  0.9959986898756555  0.46477204632602553  0.30865320061817414  1.0000
  O   O26       1.0  0.0040028565122370045  0.5352297953600028  0.6913449152470221  1.0000
  O   O27       1.0  0.2037635035513787  0.3202101589717684  0.3308643848524042  1.0000
  O   O28       1.0  0.7962382353083016  0.6797892183944896  0.6691356552552605  1.0000
  O   O29       1.0  0.7502851430359101  0.3511663425790488  0.2373662070520552  1.0000
  O   O30       1.0  0.24970943192026598  0.6488354579268716  0.7626401417883744  1.0000
  O   O31       1.0  0.9784418109288495  0.22359702007381088  0.233107151663333  1.0000
  O   O32       1.0  0.021548600495528113  0.7764039588783048  0.7668932329125155  1.0000
  O   O33       1.0  0.2210509553350448  0.95629683846839  0.4675448897365371  1.0000
  O   O34       1.0  0.7789509136110909  0.043700895045915886  0.5324568895418835  1.0000
  O   O35       1.0  0.01086629190505312  0.8645222996875997  0.5715384145793082  1.0000
  O   O36       1.0  0.9891382589168884  0.1354770813189532  0.4284643560585479  1.0000
  O   O37       1.0  0.4320956013186503  0.15404328982279478  0.4593058754057325  1.0000
  O   O38       1.0  0.5678979207050858  0.8459535977212623  0.5406947424905155  1.0000
  O   O39       1.0  0.4461402033344655  0.2461594083339733  0.2073464325539405  1.0000
  O   O40       1.0  0.5538573415029758  0.7538399504484586  0.7926556723814572  1.0000
  O   O41       1.0  0.4934137646387955  0.42187666710444915  0.369548561590193  1.0000
  O   O42       1.0  0.5065864487849226  0.5781243464609958  0.6304511121362923  1.0000
