data_image0
_chemical_formula_structural       Zn2H28C42N4O12
_chemical_formula_sum              "Zn2 H28 C42 N4 O12"
_cell_length_a       7.593440791615104
_cell_length_b       9.986911159036792
_cell_length_c       11.461206761828274
_cell_angle_alpha    100.78407506460188
_cell_angle_beta     96.93821033654974
_cell_angle_gamma    90.39969257856376

_space_group_name_H-M_alt    "P 1"
_space_group_IT_number       1

loop_
  _space_group_symop_operation_xyz
  'x, y, z'

loop_
  _atom_site_type_symbol
  _atom_site_label
  _atom_site_symmetry_multiplicity
  _atom_site_fract_x
  _atom_site_fract_y
  _atom_site_fract_z
  _atom_site_occupancy
  Zn  Zn1       1.0  0.32425933769155085  0.5073913963094724  0.6155523215182299  1.0000
  Zn  Zn2       1.0  0.6757403949911519  0.4926083711000755  0.3844458154008307  1.0000
  H   H1        1.0  0.24299679720371614  0.2289974370577497  0.4765191463400953  1.0000
  H   H2        1.0  0.7570043102975318  0.7710033438093404  0.523479268823813  1.0000
  H   H3        1.0  0.4975580294258678  0.2104918508014961  0.8752106903007684  1.0000
  H   H4        1.0  0.5024430780753804  0.7895089300655939  0.12478772486314679  1.0000
  H   H5        1.0  0.7485573084657561  0.29740840948380753  0.03418078860153878  1.0000
  H   H6        1.0  0.251442514626909  0.7025933918172739  0.9658203079043232  1.0000
  H   H7        1.0  0.025142494881166  0.3870321700995021  0.9737853490156425  1.0000
  H   H8        1.0  0.9748587008645018  0.6129706427826987  0.026216897761742068  1.0000
  H   H9        1.0  0.409517251383356  0.8094546775129742  0.6479356353297447  1.0000
  H   H10       1.0  0.590485178152072  0.1905460932984155  0.3520646303789476  1.0000
  H   H11       1.0  0.5797134419798269  0.9855753655112879  0.8016414338920652  1.0000
  H   H12       1.0  0.4202875621182259  0.014423370205733496  0.19835925384502665  1.0000
  H   H13       1.0  0.7057921213990853  0.6681572801450669  0.009474920427912528  1.0000
  H   H14       1.0  0.29420480886216893  0.3318394368361409  0.9905242323013537  1.0000
  H   H15       1.0  0.5257292620941243  0.5097752809894159  0.8493612202424712  1.0000
  H   H16       1.0  0.4742690451512104  0.49022245132576336  0.15063733870498905  1.0000
  H   H17       1.0  0.7794370896093527  0.04641549200630379  0.9929551358273939  1.0000
  H   H18       1.0  0.22056253533908432  0.9535822265003232  0.0070470177181718024  1.0000
  H   H19       1.0  0.8089334206014699  0.817953884286311  0.1423558638073317  1.0000
  H   H20       1.0  0.19106630558462004  0.18204587749396944  0.8576448891917181  1.0000
  H   H21       1.0  0.20903620899208872  0.9980892930857762  0.4784908644364876  1.0000
  H   H22       1.0  0.790963517193994  0.001910468694497101  0.5215098885625621  1.0000
  H   H23       1.0  0.0029013787327159023  0.8490129184851157  0.31743401296007784  1.0000
  H   H24       1.0  0.9970983915755839  0.1509878593027167  0.6825686558456994  1.0000
  H   H25       1.0  0.8940934079220784  0.2039632338139228  0.1568863585298033  1.0000
  H   H26       1.0  0.10590755421930712  0.796034487771962  0.8431115413738863  1.0000
  H   H27       1.0  0.08938783478954801  0.340472795308024  0.33150325951822873  1.0000
  H   H28       1.0  0.9106131295173726  0.6595249281542833  0.6684937683588004  1.0000
  C   C1        1.0  0.9143421879733539  0.37960454291343376  0.791544727718218  1.0000
  C   C2        1.0  0.08565896148456181  0.6203972520847927  0.20845647527909247  1.0000
  C   C3        1.0  0.7638864851275429  0.34583048828955026  0.7054268317613718  1.0000
  C   C4        1.0  0.23611206221868744  0.654172340951213  0.29457345797978  1.0000
  C   C5        1.0  0.6163354508858633  0.2801990237222611  0.736710475770792  1.0000
  C   C6        1.0  0.38366442066008943  0.7198037973392245  0.2632907924884761  1.0000
  C   C7        1.0  0.6145111850307574  0.2597723159751837  0.853891853574481  1.0000
  C   C8        1.0  0.38549001721153076  0.7402305025362922  0.1461077771229142  1.0000
  C   C9        1.0  0.7564881727602569  0.30475307552814707  0.9413717421595819  1.0000
  C   C10       1.0  0.24351169878570292  0.6952497455333384  0.05862952609968624  1.0000
  C   C11       1.0  0.9080054443201533  0.359407651942  0.9087331438554569  1.0000
  C   C12       1.0  0.0919943787725117  0.6405941493590815  0.09126795265039785  1.0000
  C   C13       1.0  0.08950898107102029  0.4259401784377773  0.7607247109319528  1.0000
  C   C14       1.0  0.9104894736997197  0.5740606150350301  0.23927349124905814  1.0000
  C   C15       1.0  0.760989961641208  0.36361105323041437  0.5771796120780407  1.0000
  C   C16       1.0  0.2390099648546453  0.6363927932207433  0.4228192118546444  1.0000
  C   C17       1.0  0.4580309583189361  0.22621661315746883  0.647980296335696  1.0000
  C   C18       1.0  0.5419716650296421  0.7737882366955303  0.3520206563866211  1.0000
  C   C19       1.0  0.4788846095197457  0.7834796204908301  0.7293801034826471  1.0000
  C   C20       1.0  0.5211151166663371  0.21652014128945038  0.2706206495163954  1.0000
  C   C21       1.0  0.5746398115473141  0.8811945753021251  0.8169210629228514  1.0000
  C   C22       1.0  0.42535858827351813  0.1188051927810108  0.18307958358474954  1.0000
  C   C23       1.0  0.6611840282192247  0.8444331166698616  0.9215564127829481  1.0000
  C   C24       1.0  0.3388169252600052  0.1555645974103328  0.07844497522740569  1.0000
  C   C25       1.0  0.6453029001981038  0.7063554645211879  0.9312597365235573  1.0000
  C   C26       1.0  0.3546967312469461  0.2936422596147139  0.06873980094201218  1.0000
  C   C27       1.0  0.5457969004832819  0.6153135831302591  0.8412985778216251  1.0000
  C   C28       1.0  0.45420145521534033  0.3846851689453174  0.15870015287923414  1.0000
  C   C29       1.0  0.7610647331725034  0.9458018578850229  0.015041628489683502  1.0000
  C   C30       1.0  0.23893361819504827  0.054196890437708596  0.9849588462645043  1.0000
  C   C31       1.0  0.8291197005114627  0.9197315216386669  0.12302708508019579  1.0000
  C   C32       1.0  0.1708785959061814  0.08026620129439269  0.8769758340005821  1.0000
  C   C33       1.0  0.13372971203871492  0.03615154637452629  0.404975596971809  1.0000
  C   C34       1.0  0.8662713405126325  0.9638482091028919  0.5950252625186889  1.0000
  C   C35       1.0  0.021475309789522595  0.9561240813055603  0.314662176309774  1.0000
  C   C36       1.0  0.9785231384846041  0.0438767065379722  0.6853386419512331  1.0000
  C   C37       1.0  0.9353317654285719  0.012161888946216896  0.21976481218123203  1.0000
  C   C38       1.0  0.064667960757518  0.9878378728340566  0.7802359408178174  1.0000
  C   C39       1.0  0.9601775185547227  0.1532132302239617  0.22534688273759676  1.0000
  C   C40       1.0  0.039820832812822  0.8467855180987698  0.7746535920165982  1.0000
  C   C41       1.0  0.06858980920951302  0.2304659066380026  0.3200969258129334  1.0000
  C   C42       1.0  0.9314112476729124  0.7695338525922679  0.6799021896242435  1.0000
  N   N1        1.0  0.46397178905409225  0.6518042607524207  0.7410051967133668  1.0000
  N   N2        1.0  0.5360278908442454  0.3481944831438781  0.258994512505609  1.0000
  N   N3        1.0  0.15450603894388593  0.17010282102042137  0.40522546367574824  1.0000
  N   N4        1.0  0.8454923189202717  0.8298959329315777  0.5947723949984576  1.0000
  O   O1        1.0  0.22916121681808482  0.40772994135949864  0.8259921189406825  1.0000
  O   O2        1.0  0.7708410167386505  0.5922667485338593  0.17400833178104586  1.0000
  O   O3        1.0  0.08455329291526681  0.4792046992707669  0.6660191392880961  1.0000
  O   O4        1.0  0.915446483889653  0.5207960841463403  0.33398091343769204  1.0000
  O   O5        1.0  0.7036728404578271  0.4791613308509639  0.5549492923790709  1.0000
  O   O6        1.0  0.2963270332536681  0.5208414920869443  0.4450511038535295  1.0000
  O   O7        1.0  0.8029039692225839  0.26567775965121143  0.5020278624262744  1.0000
  O   O8        1.0  0.19709462657694127  0.7343260893499561  0.49797259906828356  1.0000
  O   O9        1.0  0.38785386410425104  0.3079034499548641  0.5793557485544907  1.0000
  O   O10       1.0  0.6121471464904217  0.6920952913914247  0.420642323102605  1.0000
  O   O11       1.0  0.402288331782458  0.10762904850611932  0.6428504566993211  1.0000
  O   O12       1.0  0.597709876390759  0.8923666424118295  0.3571486307679874  1.0000
