data_image0
_chemical_formula_structural       Ho2H14C16S2O18
_chemical_formula_sum              "Ho2 H14 C16 S2 O18"
_cell_length_a       6.349400447462752
_cell_length_b       8.560942860338363
_cell_length_c       10.588581828486426
_cell_angle_alpha    90.3764033247293
_cell_angle_beta     100.00866959662144
_cell_angle_gamma    107.68093948932899

_space_group_name_H-M_alt    "P 1"
_space_group_IT_number       1

loop_
  _space_group_symop_operation_xyz
  'x, y, z'

loop_
  _atom_site_type_symbol
  _atom_site_label
  _atom_site_symmetry_multiplicity
  _atom_site_fract_x
  _atom_site_fract_y
  _atom_site_fract_z
  _atom_site_occupancy
  Ho  Ho1       1.0  0.15346110752241057  0.2485408571884022  0.6165555837164192  1.0000
  Ho  Ho2       1.0  0.8465398349182535  0.7514599774638954  0.3834446951567613  1.0000
  H   H1        1.0  0.6176801974001691  0.41125498497861923  0.14390043505003544  1.0000
  H   H2        1.0  0.3823191415166534  0.5887458501880045  0.85609873493415  1.0000
  H   H3        1.0  0.6568613821089428  0.3647560212028155  0.9188251497381187  1.0000
  H   H4        1.0  0.34313744216332503  0.6352435829324462  0.081174902503605  1.0000
  H   H5        1.0  0.1829971029508002  0.15358729804933094  0.05636966526597579  1.0000
  H   H6        1.0  0.8170011999330241  0.8464110801867265  0.9436293797421269  1.0000
  H   H7        1.0  0.5258917361688873  0.0855653048530627  0.6772838931955788  1.0000
  H   H8        1.0  0.47410972428827597  0.9144367582645219  0.3227164481656501  1.0000
  H   H9        1.0  0.2979272687083992  0.955678432955452  0.6077242166386085  1.0000
  H   H10       1.0  0.7020752738841692  0.04432240374859481  0.3922762263779872  1.0000
  H   H11       1.0  0.6536365913809447  0.3568637643603124  0.709382354372991  1.0000
  H   H12       1.0  0.34636595121163083  0.6431370723437412  0.29061808864360467  1.0000
  H   H13       1.0  0.5820841810098614  0.5077235901563456  0.6483137287528534  1.0000
  H   H14       1.0  0.4179162434143038  0.4922760160306654  0.35168648763229265  1.0000
  C   C1        1.0  0.023133533725598492  0.2243841681160745  0.20090040640771886  1.0000
  C   C2        1.0  0.9768674019711837  0.775616671668388  0.7990979829742955  1.0000
  C   C3        1.0  0.8686204509647268  0.3030218729335772  0.22748629445783305  1.0000
  C   C4        1.0  0.13138048810400005  0.696978964284803  0.7725130396697606  1.0000
  C   C5        1.0  0.7376039514536714  0.35103315601563173  0.12360572951512688  1.0000
  C   C6        1.0  0.26239435143015294  0.6489652222204256  0.8763933154929687  1.0000
  C   C7        1.0  0.760622765587371  0.32551935510006313  0.997387409946178  1.0000
  C   C8        1.0  0.23937341912805013  0.6744777926189586  0.002611408430468009  1.0000
  C   C9        1.0  0.924360881090628  0.25639495809463864  0.9732090091527464  1.0000
  C   C10       1.0  0.07563530699674464  0.7436021870583005  0.0267907539694789  1.0000
  C   C11       1.0  0.053604756659950716  0.20486657035718994  0.07540124923645658  1.0000
  C   C12       1.0  0.9463935462238737  0.7951318078788676  0.924597795771639  1.0000
  C   C13       1.0  0.8462358488664135  0.3461445759150551  0.36163311826566497  1.0000
  C   C14       1.0  0.153765096946195  0.65385625617116  0.638368105353109  1.0000
  C   C15       1.0  0.9832841694809104  0.24788511867879492  0.8436241438614259  1.0000
  C   C16       1.0  0.016714651419413074  0.7521144880225422  0.1563749636347112  1.0000
  S   S1        1.0  0.2110403157533582  0.16302739550857845  0.3217182321558595  1.0000
  S   S2        1.0  0.7889590197915196  0.8369734422241282  0.6782799930827322  1.0000
  O   O1        1.0  0.0824709772116847  0.021680559127084102  0.38534828468987564  1.0000
  O   O2        1.0  0.9175304832454783  0.9783215039905003  0.6146520566713463  1.0000
  O   O3        1.0  0.3067526024690607  0.3048136080063344  0.4193034303570755  1.0000
  O   O4        1.0  0.693246221803207  0.6951859961289275  0.5806966218846553  1.0000
  O   O5        1.0  0.3751322904083025  0.12649283683481372  0.2572747195444762  1.0000
  O   O6        1.0  0.6248681272719807  0.8735067744843621  0.7427236073494965  1.0000
  O   O7        1.0  0.8565893900143349  0.24375521863343866  0.4482041210671212  1.0000
  O   O8        1.0  0.14341103440983735  0.7562443875535723  0.551796095318025  1.0000
  O   O9        1.0  0.8191485774389661  0.48317664112614983  0.38200432306955173  1.0000
  O   O10       1.0  0.18085345725293692  0.5168229594143768  0.6179988916957695  1.0000
  O   O11       1.0  0.1707506346815251  0.225244220980116  0.8366429615424096  1.0000
  O   O12       1.0  0.8292476682022993  0.7747541572559413  0.16335608346568617  1.0000
  O   O13       1.0  0.854984018455248  0.2664208162796059  0.7405400459014828  1.0000
  O   O14       1.0  0.14501532046157456  0.7335800188870182  0.25945912408270283  1.0000
  O   O15       1.0  0.3720381611100265  0.0739351104791126  0.6346648141004747  1.0000
  O   O16       1.0  0.6279627813306448  0.9260657241731852  0.36533546477270556  1.0000
  O   O17       1.0  0.5285004293705953  0.40628585348339646  0.6932223023051164  1.0000
  O   O18       1.0  0.4715005198139579  0.5937149760367433  0.30677986605923724  1.0000
