data_image0
_chemical_formula_structural       Ca2P4H56C24O12
_chemical_formula_sum              "Ca2 P4 H56 C24 O12"
_cell_length_a       5.568236696901798
_cell_length_b       7.273133781567816
_cell_length_c       20.760537983981184
_cell_angle_alpha    96.76699341560445
_cell_angle_beta     95.12771740761795
_cell_angle_gamma    90.38481879521937

_space_group_name_H-M_alt    "P 1"
_space_group_IT_number       1

loop_
  _space_group_symop_operation_xyz
  'x, y, z'

loop_
  _atom_site_type_symbol
  _atom_site_label
  _atom_site_symmetry_multiplicity
  _atom_site_fract_x
  _atom_site_fract_y
  _atom_site_fract_z
  _atom_site_occupancy
  Ca  Ca1       1.0  0.13164626729700052  0.7511206564482436  0.9999453256395014  1.0000
  Ca  Ca2       1.0  0.868362628180151  0.24888108648632112  5.402435798629678e-05  1.0000
  P   P1        1.0  0.2906975289163469  0.10930245341926792  0.9019882683277488  1.0000
  P   P2        1.0  0.7093114360094503  0.8907006803968116  0.09801066130656717  1.0000
  P   P3        1.0  0.6432787245410907  0.6074495607931212  0.9032891598338041  1.0000
  P   P4        1.0  0.35672292665572064  0.3925535665611407  0.09671100252293739  1.0000
  H   H1        1.0  0.2661026131257672  0.42569629668012254  0.9045745051606459  1.0000
  H   H2        1.0  0.7338954317380484  0.574305457978163  0.09542501210859909  1.0000
  H   H3        1.0  0.6696191656074433  0.9223682576435054  0.904865851428191  1.0000
  H   H4        1.0  0.3303806828671513  0.07763487268454133  0.09513425872089698  1.0000
  H   H5        1.0  0.3949337387069037  0.9790725486354361  0.7983195778747001  1.0000
  H   H6        1.0  0.6050790417864107  0.020937509164724605  0.2016792764297932  1.0000
  H   H7        1.0  0.23006871543221052  0.8218201199001529  0.8368124320049118  1.0000
  H   H8        1.0  0.7699475271653924  0.17818025697165754  0.16318466408027624  1.0000
  H   H9        1.0  0.8480485249367007  0.9994319873574612  0.809468087600706  1.0000
  H   H10       1.0  0.1519621372054871  0.0005669891972317001  0.1905307137777257  1.0000
  H   H11       1.0  0.01808162342491221  0.14342908358020176  0.7672276088902733  1.0000
  H   H12       1.0  0.981925537001537  0.8565712959225636  0.2327701871920098  1.0000
  H   H13       1.0  0.1372514205168542  0.8610011894420424  0.6948402737791566  1.0000
  H   H14       1.0  0.8627502605171671  0.13899505081345606  0.30515670469895173  1.0000
  H   H15       1.0  0.9652901835282962  0.7202498849860319  0.7373161062317592  1.0000
  H   H16       1.0  0.03471143072276561  0.27974910031859684  0.2626829146260903  1.0000
  H   H17       1.0  0.5890591589800495  0.8809433045340427  0.7008459644109094  1.0000
  H   H18       1.0  0.41094256255397715  0.1190625923452799  0.2991543182548497  1.0000
  H   H19       1.0  0.7588893853155483  0.0260710638335269  0.6593268479539205  1.0000
  H   H20       1.0  0.2411141723321677  0.9739334575474529  0.3406724657296252  1.0000
  H   H21       1.0  0.8944731102236005  0.7480678166924123  0.5890464379329359  1.0000
  H   H22       1.0  0.105523061580783  0.2519311714145829  0.410952906819638  1.0000
  H   H23       1.0  0.7291499534417129  0.6021079336933116  0.6311440857824094  1.0000
  H   H24       1.0  0.2708337390930353  0.39789523563675294  0.36885459346245136  1.0000
  H   H25       1.0  0.3421435509832521  0.7544573647873065  0.5926173020421358  1.0000
  H   H26       1.0  0.657851274402269  0.24555824956284772  0.4073822318392287  1.0000
  H   H27       1.0  0.5105808906810978  0.8970323107830044  0.5489103477150792  1.0000
  H   H28       1.0  0.48941927164528204  0.102979146477189  0.45108868180803086  1.0000
  H   H29       1.0  0.4962807395801079  0.653704643134148  0.5265066272895353  1.0000
  H   H30       1.0  0.503710339686542  0.3463054381134469  0.47349256155848  1.0000
  H   H31       1.0  0.8433057782340185  0.4819668272084384  0.8126341400393428  1.0000
  H   H32       1.0  0.1566939304547077  0.5180321427130253  0.1873662701638992  1.0000
  H   H33       1.0  0.6527791972491953  0.3173781990515324  0.8387412642771039  1.0000
  H   H34       1.0  0.34721510505001874  0.6826235370783778  0.1612600706475575  1.0000
  H   H35       1.0  0.48737678957670766  0.6362117953783581  0.7603096754232225  1.0000
  H   H36       1.0  0.5126229551691992  0.3637899379491856  0.23969133560671443  1.0000
  H   H37       1.0  0.2883632938024762  0.4929122814726483  0.7940927127041915  1.0000
  H   H38       1.0  0.7116347194470053  0.5070936029972941  0.20590890709930676  1.0000
  H   H39       1.0  0.4548114332012929  0.21324766542780083  0.7288384513491124  1.0000
  H   H40       1.0  0.545195384424737  0.7867526528851274  0.2711641499099642  1.0000
  H   H41       1.0  0.6259784638763151  0.3638637212371165  0.689782653822931  1.0000
  H   H42       1.0  0.37401424493521074  0.6361435691546762  0.3102179084767656  1.0000
  H   H43       1.0  0.0747996173285586  0.3667532982325597  0.6911860704667205  1.0000
  H   H44       1.0  0.9251941249386135  0.6332304176274804  0.3088159240023458  1.0000
  H   H45       1.0  0.24165644321963248  0.5180488727631316  0.6514338707262652  1.0000
  H   H46       1.0  0.7583230882814789  0.48194317546236937  0.3485680670086424  1.0000
  H   H47       1.0  0.3844589909836813  0.24736740753677117  0.5789946203970897  1.0000
  H   H48       1.0  0.6155422092411841  0.7526273684094066  0.42100854465635246  1.0000
  H   H49       1.0  0.22250268154938618  0.09494720516805441  0.6196268351793037  1.0000
  H   H50       1.0  0.7774967836247838  0.9050462073463239  0.3803747759589342  1.0000
  H   H51       1.0  0.9865435979272166  0.15703170188072593  0.5156502386009976  1.0000
  H   H52       1.0  0.013459401465596009  0.8429575565174763  0.48435081597133217  1.0000
  H   H53       1.0  0.9951075571359242  0.3980360327289035  0.5426011426002191  1.0000
  H   H54       1.0  0.004891733083766802  0.6019518346163653  0.4574007084376602  1.0000
  H   H55       1.0  0.8321515298606174  0.24460191032696346  0.5835238131774573  1.0000
  H   H56       1.0  0.16784966680997834  0.7553873510450233  0.41647718918722626  1.0000
  C   C1        1.0  0.23427875804690507  0.9649960279533049  0.8248429324621894  1.0000
  C   C2        1.0  0.7657302763275382  0.035008496744289616  0.1751555768089545  1.0000
  C   C3        1.0  0.006714853198751301  0.0032154956098367046  0.7817506650882534  1.0000
  C   C4        1.0  0.9932922026104406  0.9967821082488797  0.21824749120268183  1.0000
  C   C5        1.0  0.974459662735356  0.8595442965825697  0.7215414595076197  1.0000
  C   C6        1.0  0.025543753349360508  0.1404533071047283  0.2784570728856933  1.0000
  C   C7        1.0  0.7531321673174177  0.8864217146324833  0.6748924782551313  1.0000
  C   C8        1.0  0.24686955243947753  0.11358142495974732  0.3251067230662484  1.0000
  C   C9        1.0  0.731037748724134  0.7411344366913254  0.615053140553556  1.0000
  C   C10       1.0  0.2689567610324701  0.2588700934395831  0.38494639260940733  1.0000
  C   C11       1.0  0.50862531552675  0.7626122761804839  0.568186407526575  1.0000
  C   C12       1.0  0.4913657628513377  0.2373964264235582  0.43181224064925056  1.0000
  C   C13       1.0  0.661239623683926  0.4610249403419573  0.8274490689546211  1.0000
  C   C14       1.0  0.33875644616890105  0.5389754080516411  0.17255225802318816  1.0000
  C   C15       1.0  0.4648994808346388  0.4961323494622435  0.7742316642424498  1.0000
  C   C16       1.0  0.5351001944626149  0.5038679929837856  0.22576976715065908  1.0000
  C   C17       1.0  0.4583167054512458  0.3536973292766774  0.7138693707905331  1.0000
  C   C18       1.0  0.5416793995701853  0.6463044038794551  0.2861320163417814  1.0000
  C   C19       1.0  0.23967559467366337  0.37687879236465704  0.6658122979176753  1.0000
  C   C20       1.0  0.7603166253316047  0.6231146259258722  0.3341895849076265  1.0000
  C   C21       1.0  0.22178332374247137  0.23572373137371727  0.6049812192512363  1.0000
  C   C22       1.0  0.7782160016458237  0.764265520734085  0.3950206919411485  1.0000
  C   C23       1.0  0.9973483930512543  0.2597571467101787  0.5590833129502427  1.0000
  C   C24       1.0  0.0026510017856936066  0.7402334962791387  0.44091817787897  1.0000
  O   O1        1.0  0.5649248512225215  0.12205709729876449  0.9200027716894396  1.0000
  O   O2        1.0  0.4350733334271624  0.8779488177660968  0.0799964455256585  1.0000
  O   O3        1.0  0.17908595501184268  0.30198600933014325  0.888310394886041  1.0000
  O   O4        1.0  0.8209139277427939  0.6980171271168915  0.11168923474536996  1.0000
  O   O5        1.0  0.1524045679162569  0.0370619580948528  0.9543829037096572  1.0000
  O   O6        1.0  0.8475952436125951  0.9629370301835608  0.04561606494054619  1.0000
  O   O7        1.0  0.37946556935331444  0.6222442018357626  0.9194702279781025  1.0000
  O   O8        1.0  0.6205341753925852  0.3777575314917813  0.08053078305184157  1.0000
  O   O9        1.0  0.7476576411429362  0.8004711244209377  0.8891580245433912  1.0000
  O   O10       1.0  0.2523404028323101  0.19952925159379478  0.11084095205366398  1.0000
  O   O11       1.0  0.8121733378118636  0.5378378953530573  0.9568013260870171  1.0000
  O   O12       1.0  0.1878283142735171  0.4621666106447507  0.04319937694191369  1.0000
