data_image0
_chemical_formula_structural       Al2H36C48N6O12
_chemical_formula_sum              "Al2 H36 C48 N6 O12"
_cell_length_a       3.9778161840237116
_cell_length_b       28.49152589822968
_cell_length_c       28.491731654904964
_cell_angle_alpha    119.99971049809268
_cell_angle_beta     89.99975449768309
_cell_angle_gamma    90.00037739584485

_space_group_name_H-M_alt    "P 1"
_space_group_IT_number       1

loop_
  _space_group_symop_operation_xyz
  'x, y, z'

loop_
  _atom_site_type_symbol
  _atom_site_label
  _atom_site_symmetry_multiplicity
  _atom_site_fract_x
  _atom_site_fract_y
  _atom_site_fract_z
  _atom_site_occupancy
  Al  Al1       1.0  0.9900448777964498  0.5000034911389408  0.5000005639723072  1.0000
  Al  Al2       1.0  0.9899921744991357  0.16666448682406104  0.833331243664418  1.0000
  H   H1        1.0  0.16563016550661297  0.1891501686093592  0.7053639343771965  1.0000
  H   H2        1.0  0.12574335067363762  0.24234727166522432  0.6580408229849725  1.0000
  H   H3        1.0  0.689483371050251  0.37096393930083593  0.7879931779773772  1.0000
  H   H4        1.0  0.6894851829819472  0.29570557965104177  0.5453425128019945  1.0000
  H   H5        1.0  0.1257447485923393  0.42431916630216926  0.6752919738814074  1.0000
  H   H6        1.0  0.16561526423286918  0.47751539841549845  0.6279683549262459  1.0000
  H   H7        1.0  0.417418355650774  0.38717671853670077  0.7206124258393916  1.0000
  H   H8        1.0  0.41739232379939034  0.27949190856274003  0.6127246853544436  1.0000
  H   H9        1.0  0.1656246729914486  0.016212625285078434  0.8108462649274416  1.0000
  H   H10       1.0  0.1257447349073999  0.9156945223648523  0.7576540043931178  1.0000
  H   H11       1.0  0.6894730391152634  0.9170270878952211  0.6290359017204852  1.0000
  H   H12       1.0  0.6894681137293261  0.7496400782727907  0.7042941508437865  1.0000
  H   H13       1.0  0.1257235050139442  0.7509743679340704  0.5756795804534252  1.0000
  H   H14       1.0  0.1656458962804095  0.6504534304598268  0.5224792180991644  1.0000
  H   H15       1.0  0.41737231406280967  0.8334366455135014  0.61282285747334  1.0000
  H   H16       1.0  0.41736319929605503  0.8332301281007733  0.7205095201035409  1.0000
  H   H17       1.0  0.16566623336133549  0.29463947952381647  0.983787969962883  1.0000
  H   H18       1.0  0.1257967217300688  0.3419579710452184  0.08430481341038397  1.0000
  H   H19       1.0  0.6894849736912859  0.21200938266935057  0.08297396490186067  1.0000
  H   H20       1.0  0.6894679758296361  0.45466012918354465  0.2503595998783795  1.0000
  H   H21       1.0  0.1257436494356483  0.3247071499716797  0.24902576340620908  1.0000
  H   H22       1.0  0.16563953107692697  0.37203001716696366  0.3495446014652047  1.0000
  H   H23       1.0  0.4174113884820371  0.27938968667227476  0.16656556235341213  1.0000
  H   H24       1.0  0.4174163677218913  0.387276639387956  0.16676469723450546  1.0000
  H   H25       1.0  0.8659116322168997  0.2945436528463433  0.8545057621700495  1.0000
  H   H26       1.0  0.9570308247988418  0.3513254225521225  0.8505074526561958  1.0000
  H   H27       1.0  0.865931447676054  0.37212080462300184  0.4788238712114251  1.0000
  H   H28       1.0  0.9570428978711474  0.31534491556710265  0.48283039727055416  1.0000
  H   H29       1.0  0.8659008943864349  0.05996599976426617  0.7054560046672692  1.0000
  H   H30       1.0  0.9570234460753255  0.9991825470744404  0.6486732401783615  1.0000
  H   H31       1.0  0.865947213570692  0.6067051700111037  0.6278718301737385  1.0000
  H   H32       1.0  0.9570505288577207  0.667484468762588  0.6846515175972673  1.0000
  H   H33       1.0  0.8659497137658788  0.14549335900714075  0.9400356316509929  1.0000
  H   H34       1.0  0.9570687485583774  0.14949542785235082  0.0008168121324629922  1.0000
  H   H35       1.0  0.8659285613384213  0.5211735553342154  0.39329645857217355  1.0000
  H   H36       1.0  0.9570446763289054  0.5171713536581067  0.33251333588970783  1.0000
  C   C1        1.0  0.48304594310592097  0.46232893062156694  0.4160892384466735  1.0000
  C   C2        1.0  0.4830490045477021  0.4537678355493641  0.537672272495641  1.0000
  C   C3        1.0  0.4830669408433295  0.5839063173204695  0.5462295373759576  1.0000
  C   C4        1.0  0.48306990434193137  0.2128983106296262  0.7956582360381576  1.0000
  C   C5        1.0  0.4830469402091637  0.08276054537945775  0.7870988507407974  1.0000
  C   C6        1.0  0.48306039613103735  0.2043406856108804  0.9172427137467879  1.0000
  C   C7        1.0  0.4653351946905673  0.24765915480024597  0.7711176137343899  1.0000
  C   C8        1.0  0.28802461308796257  0.22850892269576678  0.7220630068683749  1.0000
  C   C9        1.0  0.26784625769536763  0.25794585387446045  0.6956076864242818  1.0000
  C   C10       1.0  0.412124761688588  0.31026327041480783  0.719652264637567  1.0000
  C   C11       1.0  0.5755156632307884  0.33069713540633244  0.7694912045801275  1.0000
  C   C12       1.0  0.6187744999957727  0.2998058087320745  0.7951750157117845  1.0000
  C   C13       1.0  0.4013787911761212  0.3432557002409952  0.6937205454760688  1.0000
  C   C14       1.0  0.40135147171795876  0.3234128987568925  0.6396193914073012  1.0000
  C   C15       1.0  0.5755363763227591  0.33597224762936423  0.5638424436382865  1.0000
  C   C16       1.0  0.4121047350915176  0.3564089308803205  0.6136847788030196  1.0000
  C   C17       1.0  0.26786311980968236  0.40872723886901263  0.6377283736536514  1.0000
  C   C18       1.0  0.2880335368446722  0.43815958460267296  0.6112664202052616  1.0000
  C   C19       1.0  0.4652943920849779  0.4190089882418632  0.5622136944673812  1.0000
  C   C20       1.0  0.6187546374852105  0.36685953281655526  0.5381577878213123  1.0000
  C   C21       1.0  0.46533033896734105  0.023458481630946413  0.7523398306133657  1.0000
  C   C22       1.0  0.28805899335437596  0.993557320221065  0.7714919385599687  1.0000
  C   C23       1.0  0.26783599211660203  0.9376617913085854  0.7420580182740936  1.0000
  C   C24       1.0  0.41210873662199515  0.9093922079198794  0.6897409945265668  1.0000
  C   C25       1.0  0.5755058946898117  0.938794750633804  0.6693007552404499  1.0000
  C   C26       1.0  0.6187741984410803  0.9953689938186874  0.7001927215956275  1.0000
  C   C27       1.0  0.40134819627265017  0.850460852929672  0.656745208597613  1.0000
  C   C28       1.0  0.4013395818640362  0.8162076223215069  0.6765868610608764  1.0000
  C   C29       1.0  0.575491090333436  0.7278755867619683  0.6640309671821573  1.0000
  C   C30       1.0  0.4121084425869909  0.7572774776945937  0.643592679455438  1.0000
  C   C31       1.0  0.2678359283468125  0.7290072189220995  0.5912755371943207  1.0000
  C   C32       1.0  0.28805722936152717  0.673108211844735  0.5618352805752952  1.0000
  C   C33       1.0  0.4653168454509284  0.6432103779416496  0.5809893571690098  1.0000
  C   C34       1.0  0.6187954143473604  0.6712971140538857  0.6331355363958056  1.0000
  C   C35       1.0  0.46532423175796106  0.22888284164462655  0.9765421047416895  1.0000
  C   C36       1.0  0.2880487350143993  0.27793506661227246  0.006439094331575701  1.0000
  C   C37       1.0  0.2678590564858752  0.3043979154427206  0.06233950767444447  1.0000
  C   C38       1.0  0.4121508355259492  0.28034981992967545  0.09061024761981433  1.0000
  C   C39       1.0  0.5755236857532322  0.23051180986932718  0.06121049765861397  1.0000
  C   C40       1.0  0.6187788116430397  0.2048220225721593  0.004628997066085125  1.0000
  C   C41       1.0  0.40138838413223965  0.30628535545590563  0.14953762225553655  1.0000
  C   C42       1.0  0.4013790671017148  0.36038250933277993  0.18379459817336408  1.0000
  C   C43       1.0  0.5755152631909793  0.4361584018030343  0.27212510250489436  1.0000
  C   C44       1.0  0.41212087729051916  0.3863160818314741  0.2427232407074485  1.0000
  C   C45       1.0  0.2678372303503096  0.3622716855801898  0.2709958051191208  1.0000
  C   C46       1.0  0.2880466031267943  0.38873466006081986  0.32689470178054597  1.0000
  C   C47       1.0  0.4653304944682616  0.4377866112882459  0.35678929750110205  1.0000
  C   C48       1.0  0.6187850002116803  0.4618446760799061  0.32870101825361087  1.0000
  N   N1        1.0  0.7883447286867447  0.3219070147835694  0.8437053383382533  1.0000
  N   N2        1.0  0.7883478939525047  0.3447651928027754  0.4896333424630159  1.0000
  N   N3        1.0  0.7883553582986165  0.02179536487882667  0.6780910827224319  1.0000
  N   N4        1.0  0.7883724596354185  0.644874429556829  0.6552366741097302  1.0000
  N   N5        1.0  0.7883465230780614  0.1562977908248799  0.9782051482749453  1.0000
  N   N6        1.0  0.7883460995821991  0.5103719744681783  0.355128253307612  1.0000
  O   O1        1.0  0.7243242480732874  0.5582922252629603  0.5539603962294067  1.0000
  O   O2        1.0  0.7243219362213364  0.4956716310545064  0.4417082927723684  1.0000
  O   O3        1.0  0.724299777325477  0.44604146101578135  0.5043294814978411  1.0000
  O   O4        1.0  0.25745821472565206  0.5601628944010387  0.5096544751369836  1.0000
  O   O5        1.0  0.2574761341002301  0.49034378456002525  0.5505029997288987  1.0000
  O   O6        1.0  0.2574566996670171  0.449493701818284  0.4398332526855385  1.0000
  O   O7        1.0  0.7243029284575327  0.17099415055448472  0.8916248399176682  1.0000
  O   O8        1.0  0.7243326292681473  0.22062995083378226  0.8290064444645184  1.0000
  O   O9        1.0  0.7243182142774883  0.10837423313934394  0.7793685499205554  1.0000
  O   O10       1.0  0.2574699175582822  0.21717156656572464  0.8934937781588134  1.0000
  O   O11       1.0  0.2574608606823645  0.10650562683436265  0.8236770243772825  1.0000
  O   O12       1.0  0.2574806503749513  0.17632106399219805  0.7828272587605059  1.0000
