data_image0
_chemical_formula_structural       Zn2H16C24S8N8
_chemical_formula_sum              "Zn2 H16 C24 S8 N8"
_cell_length_a       8.94736631916611
_cell_length_b       8.947281053107943
_cell_length_c       11.163209876105913
_cell_angle_alpha    81.29377598290456
_cell_angle_beta     81.29373346282314
_cell_angle_gamma    64.11516754307439

_space_group_name_H-M_alt    "P 1"
_space_group_IT_number       1

loop_
  _space_group_symop_operation_xyz
  'x, y, z'

loop_
  _atom_site_type_symbol
  _atom_site_label
  _atom_site_symmetry_multiplicity
  _atom_site_fract_x
  _atom_site_fract_y
  _atom_site_fract_z
  _atom_site_occupancy
  Zn  Zn1       1.0  0.05730631613681682  0.9427033626007528  0.24999445955779015  1.0000
  Zn  Zn2       1.0  0.9426976303685849  0.057295247966621304  0.7500060187866638  1.0000
  H   H1        1.0  0.027515183180163678  0.7761116310778818  0.05775248858748939  1.0000
  H   H2        1.0  0.22389527752687136  0.972491367711335  0.4422388532972051  1.0000
  H   H3        1.0  0.9724799155052112  0.2238944541998578  0.9422436895725358  1.0000
  H   H4        1.0  0.7761078708689838  0.027517188601684898  0.5577586392509988  1.0000
  H   H5        1.0  0.2023274996605194  0.617877391231879  0.8844662855048071  1.0000
  H   H6        1.0  0.3821186014536408  0.7976761729878136  0.6155336106018936  1.0000
  H   H7        1.0  0.797670318264714  0.38212496194630324  0.11553181662893766  1.0000
  H   H8        1.0  0.6178723185906135  0.20232372103757973  0.3844648170142264  1.0000
  H   H9        1.0  0.5867451380176689  0.7619837124351747  0.9464908130745828  1.0000
  H   H10       1.0  0.2379984372968167  0.41324292610455876  0.5535037245333285  1.0000
  H   H11       1.0  0.41324437800317787  0.2380063136288086  0.053517148820993996  1.0000
  H   H12       1.0  0.7620037464789746  0.586754431167293  0.44649535572093413  1.0000
  H   H13       1.0  0.39676246658531517  0.909450576120662  0.1209372684698664  1.0000
  H   H14       1.0  0.09054206345665963  0.6032458403930009  0.3790527796154919  1.0000
  H   H15       1.0  0.6032379121790753  0.0905430846073827  0.8790652175503197  1.0000
  H   H16       1.0  0.9094627776981027  0.39676149827199947  0.6209482344541968  1.0000
  C   C1        1.0  0.15264130040199567  0.7687369508136046  0.03024678311007985  1.0000
  C   C2        1.0  0.23126055479347216  0.8473563609128905  0.4697548749563012  1.0000
  C   C3        1.0  0.8473476615933819  0.2312566926387092  0.9697491324288239  1.0000
  C   C4        1.0  0.7687367498912892  0.15264724949105363  0.5302440259513262  1.0000
  C   C5        1.0  0.2500342258355914  0.6824304855898474  0.9328798236514332  1.0000
  C   C6        1.0  0.3175558930284268  0.749979271318047  0.5671111032496868  1.0000
  C   C7        1.0  0.7499725744878701  0.3175669284437461  0.0671267095600143  1.0000
  C   C8        1.0  0.6824437483674828  0.25002679686744506  0.432885380068008  1.0000
  C   C9        1.0  0.4089901592347402  0.6780157605802656  0.9008523801635208  1.0000
  C   C10       1.0  0.3219730710139784  0.5909991532063759  0.5991358422117727  1.0000
  C   C11       1.0  0.5909958090011643  0.321974137518751  0.0991417273709914  1.0000
  C   C12       1.0  0.6780295191130036  0.408994438969188  0.40086098880015447  1.0000
  C   C13       1.0  0.46359808218242177  0.7623780891573446  0.9682088064310861  1.0000
  C   C14       1.0  0.23761655861611788  0.5364085942886732  0.5317862751925447  1.0000
  C   C15       1.0  0.5364062219093739  0.2376280819486141  0.0317995972184804  1.0000
  C   C16       1.0  0.7623786231360368  0.46359757407479674  0.46821794424192126  1.0000
  C   C17       1.0  0.3580653533004395  0.8449287389404888  0.06487265441683117  1.0000
  C   C18       1.0  0.15507397543522936  0.6419329186754155  0.43512004990479625  1.0000
  C   C19       1.0  0.641925851612889  0.1550624665650275  0.9351295577694289  1.0000
  C   C20       1.0  0.8449262345790063  0.3580719476747944  0.5648809954886431  1.0000
  C   C21       1.0  0.7148045853264904  0.9389971102677565  0.26815055373310775  1.0000
  C   C22       1.0  0.06100749228411933  0.28521883629846195  0.23183566710364548  1.0000
  C   C23       1.0  0.2852012215681583  0.0610052522339117  0.731851879695057  1.0000
  C   C24       1.0  0.9389908165558724  0.7147846382800151  0.7681505780755346  1.0000
  S   S1        1.0  0.5484404758573048  0.5703189575777545  0.7810559526048736  1.0000
  S   S2        1.0  0.4296720711946378  0.45156057229631597  0.7189382632267681  1.0000
  S   S3        1.0  0.4515627990069218  0.4296759498648015  0.21894778442619162  1.0000
  S   S4        1.0  0.5703279527299756  0.5484393060080778  0.28106256165457927  1.0000
  S   S5        1.0  0.528638199735127  0.958139286017449  0.3115062605491872  1.0000
  S   S6        1.0  0.041866224358209046  0.47138011250358874  0.188488780068532  1.0000
  S   S7        1.0  0.4713665014782294  0.041863110760466817  0.6884990003831037  1.0000
  S   S8        1.0  0.9581488843526528  0.5286158597610184  0.8115025226897502  1.0000
  N   N1        1.0  0.20496826143500613  0.8476245286303908  0.09655322708808  1.0000
  N   N2        1.0  0.15238023110850915  0.7950260378868564  0.4034434704722827  1.0000
  N   N3        1.0  0.7950287015060552  0.15238291149208996  0.9034541773864504  1.0000
  N   N4        1.0  0.8476228473166432  0.2049800474826213  0.596556145507215  1.0000
  N   N5        1.0  0.8517531290277062  0.9286455967908368  0.23565047201464753  1.0000
  N   N6        1.0  0.071361854125243  0.14825165642747612  0.2643358682941681  1.0000
  N   N7        1.0  0.14824964182569283  0.0713505771092429  0.7643549572652334  1.0000
  N   N8        1.0  0.9286425317834955  0.8517456230601469  0.7356566634768953  1.0000
