data_image0
_chemical_formula_structural       Zn8H96C148N24O36
_chemical_formula_sum              "Zn8 H96 C148 N24 O36"
_cell_length_a       11.4422562253516
_cell_length_b       20.13317300000703
_cell_length_c       29.510346063248093
_cell_angle_alpha    90.00005145747028
_cell_angle_beta     98.88268012224384
_cell_angle_gamma    90.00007190215874

_space_group_name_H-M_alt    "P 1"
_space_group_IT_number       1

loop_
  _space_group_symop_operation_xyz
  'x, y, z'

loop_
  _atom_site_type_symbol
  _atom_site_label
  _atom_site_symmetry_multiplicity
  _atom_site_fract_x
  _atom_site_fract_y
  _atom_site_fract_z
  _atom_site_occupancy
  Zn  Zn1       1.0  0.5481576444418154  0.9229395275083405  0.5458866030428807  1.0000
  Zn  Zn2       1.0  0.5354293462307922  0.5782560907473597  0.4575899379798684  1.0000
  Zn  Zn3       1.0  0.45184100773784047  0.4229380981890857  0.9541137852582151  1.0000
  Zn  Zn4       1.0  0.46456843941646747  0.07825561811124972  0.04240945020961107  1.0000
  Zn  Zn5       1.0  0.451842783890953  0.07706133887278811  0.4541132467545309  1.0000
  Zn  Zn6       1.0  0.46456931394963863  0.42174427894059363  0.542410145564844  1.0000
  Zn  Zn7       1.0  0.5481576553569454  0.5770607814214446  0.045887315052532095  1.0000
  Zn  Zn8       1.0  0.535430217846482  0.9217437581906368  0.9575896165681141  1.0000
  H   H1        1.0  0.39578995528156474  0.607019679857146  0.7077497358612489  1.0000
  H   H2        1.0  0.3816702844987034  0.6079649257066964  0.7755710262966315  1.0000
  H   H3        1.0  0.5586309906323593  0.6979874077773118  0.5444956439459503  1.0000
  H   H4        1.0  0.4525465359920986  0.5655930043453596  0.6449972325960616  1.0000
  H   H5        1.0  0.47154697139642116  0.7774861062211756  0.6707186058397452  1.0000
  H   H6        1.0  0.42321862127284504  0.5656110070844634  0.8457516001249771  1.0000
  H   H7        1.0  0.5222603586112912  0.6961474225920983  0.9607391185273926  1.0000
  H   H8        1.0  0.45021585153678245  0.7775641805347251  0.8242769388507226  1.0000
  H   H9        1.0  0.31494344235828464  0.8907785460312572  0.47579589196914895  1.0000
  H   H10       1.0  0.0978478695281098  0.8886362332046291  0.47608015880420135  1.0000
  H   H11       1.0  0.1672383535844872  0.9562411936856139  0.616827114482426  1.0000
  H   H12       1.0  0.3817170056144832  0.9574606460905887  0.6097773817778955  1.0000
  H   H13       1.0  0.9429947448943637  0.8389210891252932  0.5014285778863439  1.0000
  H   H14       1.0  0.7265182958828973  0.8422582932054256  0.5060400157255032  1.0000
  H   H15       1.0  0.7688547906991161  0.9977892432815455  0.598078853036327  1.0000
  H   H16       1.0  0.98738290006375  0.0025214611829512006  0.5975412582481993  1.0000
  H   H17       1.0  0.3149850477538294  0.5184516914969707  0.4022748399965152  1.0000
  H   H18       1.0  0.0965258947072414  0.5166610344207003  0.399230365349183  1.0000
  H   H19       1.0  0.14330178672049948  0.6524981357992489  0.5142837983654117  1.0000
  H   H20       1.0  0.3589397588551364  0.6508919060660503  0.5105774333749622  1.0000
  H   H21       1.0  0.9462114630551286  0.4812779635683243  0.4303948087075255  1.0000
  H   H22       1.0  0.7273230764854332  0.4829030635740993  0.429713133470841  1.0000
  H   H23       1.0  0.7380473456116263  0.6708034417125364  0.48571712908877623  1.0000
  H   H24       1.0  0.9569430542359071  0.6796684919336045  0.48709696466150365  1.0000
  H   H25       1.0  0.6042105550599431  0.10701913930954284  0.7922498914544249  1.0000
  H   H26       1.0  0.6183284600666638  0.10796529925035261  0.7244288354876786  1.0000
  H   H27       1.0  0.44136798103834707  0.19798746289986727  0.955504625406725  1.0000
  H   H28       1.0  0.5474547577656992  0.06559300269973532  0.8550034324840323  1.0000
  H   H29       1.0  0.5284548526854067  0.277485560441356  0.8292815429739802  1.0000
  H   H30       1.0  0.5767791333108222  0.06561125852590521  0.6542485156973183  1.0000
  H   H31       1.0  0.4777403775618226  0.19614794858512852  0.5392612545971003  1.0000
  H   H32       1.0  0.5497850891536018  0.2775654344053748  0.6757234963580742  1.0000
  H   H33       1.0  0.6850551283364298  0.3907787033394642  0.02420373453332301  1.0000
  H   H34       1.0  0.9021506967568269  0.38863604826780573  0.02391980498672549  1.0000
  H   H35       1.0  0.8327621504023597  0.4562419293176988  0.8831730654660602  1.0000
  H   H36       1.0  0.6182835004633347  0.4574612380556219  0.890222460178222  1.0000
  H   H37       1.0  0.057006349921508104  0.33892142357820637  0.9985719041095606  1.0000
  H   H38       1.0  0.27348280634465993  0.34225927265514855  0.9939601298932244  1.0000
  H   H39       1.0  0.2311458176546282  0.4977895745733038  0.9019213585943007  1.0000
  H   H40       1.0  0.012618235261584199  0.5025224817174777  0.9024593587373315  1.0000
  H   H41       1.0  0.6850134751463131  0.018452442341988704  0.09772557194378347  1.0000
  H   H42       1.0  0.9034717391331242  0.0166619450712915  0.10076999263836939  1.0000
  H   H43       1.0  0.8566997233953728  0.15249753353769793  0.9857162551392091  1.0000
  H   H44       1.0  0.6410608616923952  0.15089165159770349  0.9894222273954155  1.0000
  H   H45       1.0  0.05378733691540559  0.9812780781940094  0.0696055646493008  1.0000
  H   H46       1.0  0.2726757265947981  0.9829028385056094  0.0702869022028665  1.0000
  H   H47       1.0  0.261951557073985  0.1708032842111749  0.014282382259793289  1.0000
  H   H48       1.0  0.043056756252219906  0.17966817650894742  0.012902944956572097  1.0000
  H   H49       1.0  0.604209587516607  0.3929806898307079  0.2922497224264119  1.0000
  H   H50       1.0  0.6183274901471236  0.3920349472879821  0.22442866573833697  1.0000
  H   H51       1.0  0.4413676705201439  0.30201296191086874  0.4555047785209679  1.0000
  H   H52       1.0  0.5474538942842102  0.4344073653435174  0.3550032950455629  1.0000
  H   H53       1.0  0.5284525733459091  0.22251426346712588  0.3292815302923272  1.0000
  H   H54       1.0  0.5767791543444432  0.434388369217743  0.15424843083199846  1.0000
  H   H55       1.0  0.47774007069106256  0.3038514570184675  0.039261070191464874  1.0000
  H   H56       1.0  0.5497836941751261  0.22243420238300626  0.1757235362027885  1.0000
  H   H57       1.0  0.6850560994690582  0.10922281704177553  0.524203227396697  1.0000
  H   H58       1.0  0.9021516732713124  0.11136512986862361  0.5239192994838433  1.0000
  H   H59       1.0  0.8327638448404214  0.0437566925402493  0.383173179410761  1.0000
  H   H60       1.0  0.6182843063043677  0.0425372401344788  0.3902221816835335  1.0000
  H   H61       1.0  0.05700568343778659  0.1610792805631363  0.49857127191087597  1.0000
  H   H62       1.0  0.27348301506636824  0.15774157979020492  0.49395920881448047  1.0000
  H   H63       1.0  0.2311456376317835  0.0022101330214852  0.4019209967605163  1.0000
  H   H64       1.0  0.012617529238603702  0.9974774184276146  0.40245893047065096  1.0000
  H   H65       1.0  0.6850153805770703  0.481547684806067  0.597725009800328  1.0000
  H   H66       1.0  0.9034727644986162  0.48333734849623516  0.6007693792725775  1.0000
  H   H67       1.0  0.8566986386941692  0.34750124050311376  0.48571503466482807  1.0000
  H   H68       1.0  0.641058898407188  0.34910697354313674  0.4894216334025785  1.0000
  H   H69       1.0  0.053787196152598  0.5187219094267023  0.5696049359147963  1.0000
  H   H70       1.0  0.2726755836949977  0.5170973061138541  0.5702869500738712  1.0000
  H   H71       1.0  0.26195308077574  0.32919643128274606  0.5142820428638544  1.0000
  H   H72       1.0  0.043056486617487594  0.3203313810611093  0.512901815781575  1.0000
  H   H73       1.0  0.3957907578347317  0.8929817270719341  0.2077500109303401  1.0000
  H   H74       1.0  0.3816728547715371  0.8920350704388728  0.27557174474129903  1.0000
  H   H75       1.0  0.558633331855077  0.8020124100962179  0.04449527697765628  1.0000
  H   H76       1.0  0.45254566959437165  0.9344073669884665  0.14499607839098866  1.0000
  H   H77       1.0  0.4715455756473617  0.7225153059397729  0.17071830682343148  1.0000
  H   H78       1.0  0.4232230641438761  0.9343881177778359  0.345751439274231  1.0000
  H   H79       1.0  0.5222591681525869  0.8038524211034  0.46073922045717086  1.0000
  H   H80       1.0  0.45021710927380104  0.722434438591279  0.32427679753587296  1.0000
  H   H81       1.0  0.3149444164065187  0.6092221630415368  0.9757964015989341  1.0000
  H   H82       1.0  0.09784796245089919  0.6113638247272206  0.9760799396355964  1.0000
  H   H83       1.0  0.1672365097768207  0.5437574469848557  0.1168270180782756  1.0000
  H   H84       1.0  0.3817133886485209  0.5425386349384882  0.10977684034718749  1.0000
  H   H85       1.0  0.9429940803535501  0.6610779527252719  0.0014286235316803041  1.0000
  H   H86       1.0  0.7265176239322672  0.6577415937264278  0.006040397748591897  1.0000
  H   H87       1.0  0.768853727087702  0.5022107951149978  0.09807877753777208  1.0000
  H   H88       1.0  0.9873821950147176  0.4974778879713997  0.09754116890429287  1.0000
  H   H89       1.0  0.3149851860049466  0.9815469339607934  0.9022748505227509  1.0000
  H   H90       1.0  0.09652692104605619  0.98333743123127  0.8992300909059665  1.0000
  H   H91       1.0  0.1432998232904907  0.8475023394583591  0.014284558837068997  1.0000
  H   H92       1.0  0.3589386840213891  0.8491082213981191  0.010578247658663996  1.0000
  H   H93       1.0  0.9462139779227952  0.01872229149521591  0.9303950155796767  1.0000
  H   H94       1.0  0.727325586299244  0.017097531183168306  0.9297130001817064  1.0000
  H   H95       1.0  0.7380462185451646  0.8291975821691225  0.9857176486977577  1.0000
  H   H96       1.0  0.9569419048996651  0.8203316964865337  0.9870974775101542  1.0000
  C   C1        1.0  0.5345172724834484  0.8130279144181927  0.5893781022909648  1.0000
  C   C2        1.0  0.5165657860861899  0.7438992228666238  0.6061605450407299  1.0000
  C   C3        1.0  0.5316637726675424  0.6897701361780834  0.5778869634794005  1.0000
  C   C4        1.0  0.5083326726180601  0.6255974408734986  0.592290648644493  1.0000
  C   C5        1.0  0.4705163383238117  0.6161856253502197  0.6346088890271346  1.0000
  C   C6        1.0  0.4574573465846258  0.6702566000215668  0.6633398426550983  1.0000
  C   C7        1.0  0.48086313516619583  0.734739728379843  0.6490747881378311  1.0000
  C   C8        1.0  0.5197185074166626  0.5667204660875242  0.5620718965874829  1.0000
  C   C9        1.0  0.4366457294936054  0.6923088090801388  0.7454730674394269  1.0000
  C   C10       1.0  0.43414152756280094  0.6703272311412505  0.8288959431147943  1.0000
  C   C11       1.0  0.44111518955690343  0.6159319526368138  0.8588584718730272  1.0000
  C   C12       1.0  0.47426645586788396  0.6246335548992549  0.9060338353704224  1.0000
  C   C13       1.0  0.49777334422388014  0.688426798328557  0.9239347179700985  1.0000
  C   C14       1.0  0.4869486576452715  0.7429561826225355  0.8941763139065343  1.0000
  C   C15       1.0  0.45606416699787644  0.7344924967740029  0.8467029808262864  1.0000
  C   C16       1.0  0.48673842182385124  0.5650736682828212  0.9368959185015483  1.0000
  C   C17       1.0  0.507787447193813  0.8115708221651731  0.9136759298941539  1.0000
  C   C18       1.0  0.2783967608577811  0.9056872810679979  0.5062598992915354  1.0000
  C   C19       1.0  0.1571465702923618  0.9037317590714622  0.5068474689682034  1.0000
  C   C20       1.0  0.1127281346078846  0.9226026151293071  0.5466959831369776  1.0000
  C   C21       1.0  0.19525725632693286  0.9427008427035166  0.5844122284327113  1.0000
  C   C22       1.0  0.3149956421864601  0.9433441001475631  0.5809293228488883  1.0000
  C   C23       1.0  0.9847054219891547  0.9212116912678355  0.5489081482629246  1.0000
  C   C24       1.0  0.9086886367444293  0.875723039851991  0.5230662193585474  1.0000
  C   C25       1.0  0.7883097096288625  0.8768172125720074  0.5255439261598126  1.0000
  C   C26       1.0  0.8123518559354465  0.9634965879830731  0.5774200072773467  1.0000
  C   C27       1.0  0.9336545088771686  0.9655082363378898  0.5769307774145458  1.0000
  C   C28       1.0  0.2728093564670999  0.5469236080025796  0.4266587598031251  1.0000
  C   C29       1.0  0.151027711523291  0.5459788542537112  0.4254224808669065  1.0000
  C   C30       1.0  0.09996435758884559  0.5833286578860567  0.4574361910416797  1.0000
  C   C31       1.0  0.17657080341529513  0.6222108033470164  0.488438836423306  1.0000
  C   C32       1.0  0.2975553236833832  0.6208106689016972  0.48711504583573617  1.0000
  C   C33       1.0  0.9713219285487825  0.5811638856246333  0.4581960770392399  1.0000
  C   C34       1.0  0.9041555878368895  0.5251657231218234  0.4422759988639058  1.0000
  C   C35       1.0  0.7826905201076286  0.5251348848513333  0.44225812079199744  1.0000
  C   C36       1.0  0.7889190429962126  0.63027332793736  0.4738388686185288  1.0000
  C   C37       1.0  0.9105419655140919  0.6343914509729702  0.47462146120974313  1.0000
  C   C38       1.0  0.4654811006866169  0.3130274309056135  0.9106211854312318  1.0000
  C   C39       1.0  0.4834341835306262  0.24389873004400903  0.8938391340645635  1.0000
  C   C40       1.0  0.4683369465127072  0.18976966984283192  0.9221130658595411  1.0000
  C   C41       1.0  0.4916696564328191  0.1255989589700235  0.9077101147796751  1.0000
  C   C42       1.0  0.5294868506727967  0.11618562457790924  0.8653915808846688  1.0000
  C   C43       1.0  0.5425450927019498  0.17025607401243553  0.8366602769785627  1.0000
  C   C44       1.0  0.51913769697682  0.23473970116694434  0.8509252754926562  1.0000
  C   C45       1.0  0.4802819036400122  0.06672102249485332  0.9379283778430147  1.0000
  C   C46       1.0  0.5633541134476374  0.19230967976945837  0.7545275890929231  1.0000
  C   C47       1.0  0.5658573726825153  0.17032749700251062  0.6711036273014057  1.0000
  C   C48       1.0  0.5588826933767734  0.11593316743123692  0.6411423601660786  1.0000
  C   C49       1.0  0.5257314469790657  0.12463418719917745  0.5939663254594264  1.0000
  C   C50       1.0  0.5022264879934469  0.18842739027862623  0.5760655966797259  1.0000
  C   C51       1.0  0.5130513115494751  0.24295781488816465  0.6058240423248548  1.0000
  C   C52       1.0  0.5439357819072937  0.2344932202318902  0.6532977078730082  1.0000
  C   C53       1.0  0.513260217915885  0.06507375433166371  0.5631049273426993  1.0000
  C   C54       1.0  0.49221357891999423  0.31157191718413213  0.5863245312462054  1.0000
  C   C55       1.0  0.7216018460434199  0.4056880831126011  0.9937397980103809  1.0000
  C   C56       1.0  0.8428529172307079  0.4037326468121736  0.9931526183521269  1.0000
  C   C57       1.0  0.8872714003181628  0.4226034820416659  0.9533041185732356  1.0000
  C   C58       1.0  0.8047432136470006  0.44270160106457007  0.9155879411906439  1.0000
  C   C59       1.0  0.6850048284311399  0.4433447777059741  0.9190705083427417  1.0000
  C   C60       1.0  0.015294994976756  0.42121243010684845  0.9510923438961567  1.0000
  C   C61       1.0  0.09131166692822032  0.3757243636453467  0.9769345770357631  1.0000
  C   C62       1.0  0.2116905977638694  0.37681812225660144  0.974457209990902  1.0000
  C   C63       1.0  0.1876486662755852  0.4634964187827322  0.9225801782033611  1.0000
  C   C64       1.0  0.0663469029494763  0.46550847796806494  0.9230694621876478  1.0000
  C   C65       1.0  0.72718923698028  0.04692336341077661  0.07334133492573608  1.0000
  C   C66       1.0  0.8489717650856079  0.045979194832874305  0.07457800465132176  1.0000
  C   C67       1.0  0.9000352118695075  0.08332899269883852  0.04256398403528999  1.0000
  C   C68       1.0  0.8234279781790831  0.12221054598469296  0.01156097679330509  1.0000
  C   C69       1.0  0.7024452244902903  0.12081082369697779  0.012885210410267696  1.0000
  C   C70       1.0  0.0286767518811359  0.08116359802618692  0.04180438272159388  1.0000
  C   C71       1.0  0.09584295095476848  0.025165007706867516  0.05772407927339169  1.0000
  C   C72       1.0  0.2173080176352258  0.025134752775386508  0.05774161839980958  1.0000
  C   C73       1.0  0.21107975885044544  0.13027265311535535  0.026160950745968095  1.0000
  C   C74       1.0  0.08945684667767748  0.13439118507695016  0.025378361295167896  1.0000
  C   C75       1.0  0.46548050216237874  0.18697195857649263  0.4106215897440038  1.0000
  C   C76       1.0  0.4834319875881902  0.2561011468205336  0.3938388080722247  1.0000
  C   C77       1.0  0.46833665663668717  0.31023023351056633  0.42211322524002526  1.0000
  C   C78       1.0  0.4916695277522436  0.374401438738211  0.4077103230934682  1.0000
  C   C79       1.0  0.5294858610762886  0.383814744339361  0.3653917437891963  1.0000
  C   C80       1.0  0.5425430827202291  0.32974426635978205  0.3366603460645194  1.0000
  C   C81       1.0  0.5191346414244151  0.26526064130798255  0.3509255817417269  1.0000
  C   C82       1.0  0.4802819228596462  0.4332799036013527  0.4379286310541416  1.0000
  C   C83       1.0  0.5633538162195465  0.3076905672229914  0.25452740761446074  1.0000
  C   C84       1.0  0.5658562470830262  0.32967264185342776  0.17110374892017427  1.0000
  C   C85       1.0  0.5588825880032858  0.38406643028044846  0.14114223692797614  1.0000
  C   C86       1.0  0.5257322043113035  0.37536582140330677  0.09396624817391337  1.0000
  C   C87       1.0  0.5022262005165743  0.31157208128165353  0.07606541816139867  1.0000
  C   C88       1.0  0.5130517716564569  0.2570422002953309  0.10582387481213117  1.0000
  C   C89       1.0  0.5439353796867367  0.2655063828366552  0.15329783314961526  1.0000
  C   C90       1.0  0.5132593557369631  0.4349252113271406  0.06310479029963997  1.0000
  C   C91       1.0  0.4922147512323392  0.18842805744608884  0.0863243639994096  1.0000
  C   C92       1.0  0.7216027819403906  0.09431308861985603  0.4937395589961325  1.0000
  C   C93       1.0  0.8428538570670839  0.09626811392404733  0.493152041906633  1.0000
  C   C94       1.0  0.8872722946950873  0.0773967611739508  0.45330420558206425  1.0000
  C   C95       1.0  0.804743172002098  0.0572970435214302  0.4155876213635636  1.0000
  C   C96       1.0  0.6850056716771676  0.0566542827706513  0.4190709184571303  1.0000
  C   C97       1.0  0.0152950063411197  0.0787871883425026  0.451091701533727  1.0000
  C   C98       1.0  0.0913109089693549  0.12427683314383839  0.4769342556955322  1.0000
  C   C99       1.0  0.21169160229185743  0.12318216373115125  0.474455637302185  1.0000
  C   C100      1.0  0.18764857142399896  0.03650328501243651  0.42257950359748253  1.0000
  C   C101      1.0  0.0663459204258032  0.034491139965368206  0.4230694113044961  1.0000
  C   C102      1.0  0.7271875306987211  0.4530747749129844  0.5733398628773114  1.0000
  C   C103      1.0  0.8489736003961782  0.4540195286640554  0.5745770825947146  1.0000
  C   C104      1.0  0.9000351842360034  0.416670718416185  0.5425629283234058  1.0000
  C   C105      1.0  0.8234269683130577  0.37778807626159516  0.5115598388446826  1.0000
  C   C106      1.0  0.7024459911541996  0.3791892040948285  0.5128855343930496  1.0000
  C   C107      1.0  0.0286776152202179  0.4188354906780561  0.5418037201702501  1.0000
  C   C108      1.0  0.09584307234291603  0.47483414987343053  0.5577240846806147  1.0000
  C   C109      1.0  0.2173090246340763  0.474864988144269  0.5577420153398831  1.0000
  C   C110      1.0  0.2110804988298796  0.3697270417502737  0.5261602507469334  1.0000
  C   C111      1.0  0.08945757631200021  0.36560891871466344  0.525377658155719  1.0000
  C   C112      1.0  0.534519327644908  0.6869724420901165  0.08937866436580318  1.0000
  C   C113      1.0  0.5165662448008986  0.756101142951728  0.10616071573247148  1.0000
  C   C114      1.0  0.5316652519146957  0.8102302031538215  0.07788722803439899  1.0000
  C   C115      1.0  0.5083334246129498  0.8744014107192303  0.09228955385740528  1.0000
  C   C116      1.0  0.47051623134566967  0.8838152418042712  0.1346084266748093  1.0000
  C   C117      1.0  0.4574562192206458  0.8297447923688209  0.16333928648400328  1.0000
  C   C118      1.0  0.48086184679405625  0.7652611652138293  0.14907452171740226  1.0000
  C   C119      1.0  0.5197194082819578  0.9332793471937039  0.062071185619359384  1.0000
  C   C120      1.0  0.4366498531302341  0.8076891998422798  0.24547247105314793  1.0000
  C   C121      1.0  0.4341457064178443  0.8296718793008966  0.3288953634909006  1.0000
  C   C122      1.0  0.44111950602395217  0.8840676989510357  0.358858272650444  1.0000
  C   C123      1.0  0.4742689803816305  0.8753666791817242  0.4060331854157794  1.0000
  C   C124      1.0  0.4977730577209556  0.8115729794099027  0.42393487837453847  1.0000
  C   C125      1.0  0.4869491167832933  0.7570430514929569  0.3941758074725569  1.0000
  C   C126      1.0  0.4560664165201018  0.7655066527647637  0.34670258602093174  1.0000
  C   C127      1.0  0.4867419805115106  0.9349261186649903  0.4368953665512477  1.0000
  C   C128      1.0  0.5077868503848535  0.688428949197217  0.41367565747340507  1.0000
  C   C129      1.0  0.2783976948118437  0.5943132799602041  0.006258982433266198  1.0000
  C   C130      1.0  0.15714751304683716  0.5962687162620952  0.006847909289874097  1.0000
  C   C131      1.0  0.1127281424800088  0.577396887646188  0.04669533971442519  1.0000
  C   C132      1.0  0.19525632720639408  0.5572982719301366  0.0844108392524348  1.0000
  C   C133      1.0  0.3149938317486658  0.5566550952892797  0.08092957520178598  1.0000
  C   C134      1.0  0.984704549764949  0.5787874428887536  0.048907792235723876  1.0000
  C   C135      1.0  0.9086887633487066  0.6242765027362227  0.0230659506060533  1.0000
  C   C136      1.0  0.7883089498953099  0.6231827441250746  0.025543942907958684  1.0000
  C   C137      1.0  0.8123508784661198  0.5365034542128696  0.07741995792851236  1.0000
  C   C138      1.0  0.9336544099439478  0.5344913950280131  0.07693044019674028  1.0000
  C   C139      1.0  0.2728094241703545  0.953075516199313  0.9266590875406066  1.0000
  C   C140      1.0  0.15102778062755112  0.9540201814702555  0.9254224704025729  1.0000
  C   C141      1.0  0.0999643348157235  0.9166703836045189  0.9574368299408035  1.0000
  C   C142      1.0  0.17657156753407577  0.8777888303184368  0.9884394982605895  1.0000
  C   C143      1.0  0.2975543212228686  0.879188552606159  0.98711526464362  1.0000
  C   C144      1.0  0.9713227938326482  0.9188362749696354  0.9581960923324856  1.0000
  C   C145      1.0  0.9041565937869364  0.9748348652887343  0.9422760568584889  1.0000
  C   C146      1.0  0.7826915251629459  0.9748656169124675  0.9422578398878583  1.0000
  C   C147      1.0  0.7889189023026831  0.8697282132655175  0.9738394717211347  1.0000
  C   C148      1.0  0.9105418144748255  0.8656091846112234  0.9746220611717503  1.0000
  N   N1        1.0  0.418231282110213  0.6554705686122944  0.7050510660413705  1.0000
  N   N2        1.0  0.40380660339541663  0.6562866801693518  0.7818544624211654  1.0000
  N   N3        1.0  0.35625008296938193  0.9254378210900359  0.542463006623862  1.0000
  N   N4        1.0  0.7405529836462817  0.9203821294021495  0.5519399822672922  1.0000
  N   N5        1.0  0.3454174999410641  0.5827540719317384  0.4573962564797894  1.0000
  N   N6        1.0  0.7255509520158937  0.5768306504440305  0.45750617726613285  1.0000
  N   N7        1.0  0.5817702354723764  0.15547001561710524  0.7949489897298888  1.0000
  N   N8        1.0  0.5961922635247348  0.15628702964752964  0.7181457751328961  1.0000
  N   N9        1.0  0.6437494581069529  0.4254390166043365  0.9575367583262491  1.0000
  N   N10       1.0  0.2594474292924716  0.42038353505623155  0.9480598314150583  1.0000
  N   N11       1.0  0.6545811825391253  0.08275373505862402  0.04260352664921639  1.0000
  N   N12       1.0  0.2744477146130535  0.07683053902585611  0.04249326242387499  1.0000
  N   N13       1.0  0.58176826263211  0.344529801076007  0.2949490700906948  1.0000
  N   N14       1.0  0.596192056784389  0.3437131928259022  0.21814562112335514  1.0000
  N   N15       1.0  0.6437503434173665  0.0745615552125543  0.4575361653285768  1.0000
  N   N16       1.0  0.2594465601233438  0.07961774359323211  0.44805981494238967  1.0000
  N   N17       1.0  0.6545838119802809  0.4172458010641193  0.5426033069823929  1.0000
  N   N18       1.0  0.27444859175373176  0.4231692225513514  0.5424936199435422  1.0000
  N   N19       1.0  0.4182310774222984  0.8445308507643717  0.20505091265487602  1.0000
  N   N20       1.0  0.4038108194658037  0.8437138367348708  0.2818545713487807  1.0000
  N   N21       1.0  0.3562500866366207  0.5745623464693639  0.042463377806200193  1.0000
  N   N22       1.0  0.740553000012376  0.5796173313251175  0.051940357304552286  1.0000
  N   N23       1.0  0.345417477640055  0.9172456412439304  0.9573965568951193  1.0000
  N   N24       1.0  0.7255518291571904  0.923169830662225  0.9575065347859917  1.0000
  O   O1        1.0  0.5367659893831345  0.8622725302627504  0.6160648803748001  1.0000
  O   O2        1.0  0.5441292166891786  0.8194059205681868  0.5465711638357645  1.0000
  O   O3        1.0  0.5485007241300507  0.5705984290527867  0.9761731997888956  1.0000
  O   O4        1.0  0.4350606622452915  0.5118629504901905  0.9206279315974584  1.0000
  O   O5        1.0  0.5755771872040683  0.5737218441563884  0.5285140928542872  1.0000
  O   O6        1.0  0.47192556162839583  0.5128168813552563  0.5731070789711196  1.0000
  O   O7        1.0  0.5367398438002056  0.8164846422603562  0.9575705265583847  1.0000
  O   O8        1.0  0.4956465647790296  0.8620849448238416  0.8878609193643426  1.0000
  O   O9        1.0  0.4758704385873783  0.7491577877811366  0.7485992986478107  1.0000
  O   O10       1.0  0.463232508459285  0.3622715132908851  0.8839347838206775  1.0000
  O   O11       1.0  0.4558700590077365  0.31940498991249916  0.9534288591815352  1.0000
  O   O12       1.0  0.4514979285148897  0.07059792261006952  0.5238273113458121  1.0000
  O   O13       1.0  0.5649378428594005  0.011863591520622703  0.5793725347491758  1.0000
  O   O14       1.0  0.4244223549331779  0.07372190825118  0.9714854564831368  1.0000
  O   O15       1.0  0.5280738275174954  0.012816960612376202  0.9268924239234764  1.0000
  O   O16       1.0  0.4632611927108456  0.31648416871666296  0.5424292604839847  1.0000
  O   O17       1.0  0.5043519316228071  0.36208608251398294  0.6121384057667141  1.0000
  O   O18       1.0  0.5241313172513173  0.24915763299370755  0.7514018453310171  1.0000
  O   O19       1.0  0.4632326707972965  0.13772783942520314  0.3839352031699121  1.0000
  O   O20       1.0  0.4558694434918706  0.18059494581245872  0.4534289197091396  1.0000
  O   O21       1.0  0.4514961698428195  0.42940194063513104  0.023827795347713693  1.0000
  O   O22       1.0  0.5649380008507449  0.48813692250573865  0.07937316871366558  1.0000
  O   O23       1.0  0.4244232421001611  0.4262785255322683  0.4714860958651386  1.0000
  O   O24       1.0  0.528073982141855  0.48718348833281777  0.4268927182387471  1.0000
  O   O25       1.0  0.46326058647485274  0.18351473404312915  0.042430001082856  1.0000
  O   O26       1.0  0.5043556336471156  0.13791393478741307  0.11213937452922097  1.0000
  O   O27       1.0  0.5241299926603773  0.25084208521526113  0.25140156791582047  1.0000
  O   O28       1.0  0.5367670362817947  0.6377278630120244  0.11606535231101127  1.0000
  O   O29       1.0  0.544131254857767  0.6805948830838061  0.04657138212505168  1.0000
  O   O30       1.0  0.5485051525321225  0.9294034404645828  0.4761723572916523  1.0000
  O   O31       1.0  0.43506258450129554  0.9881372748602787  0.42062697612603017  1.0000
  O   O32       1.0  0.5755780714548138  0.9262784614368019  0.028513715469685487  1.0000
  O   O33       1.0  0.47192482974607225  0.9871829123822097  0.07310664285444797  1.0000
  O   O34       1.0  0.5367383510581546  0.6835152075860194  0.4575705367254982  1.0000
  O   O35       1.0  0.4956467256426365  0.637915280558687  0.3878606610117785  1.0000
  O   O36       1.0  0.475870878263592  0.7508452201584604  0.24859743179745653  1.0000
