data_image0
_chemical_formula_structural       Zn2H52C44S8N12O12
_chemical_formula_sum              "Zn2 H52 C44 S8 N12 O12"
_cell_length_a       11.156081259440858
_cell_length_b       11.294000191366246
_cell_length_c       13.5402
_cell_angle_alpha    100.09176133903546
_cell_angle_beta     107.57500081643103
_cell_angle_gamma    115.59286958760761

_space_group_name_H-M_alt    "P 1"
_space_group_IT_number       1

loop_
  _space_group_symop_operation_xyz
  'x, y, z'

loop_
  _atom_site_type_symbol
  _atom_site_label
  _atom_site_symmetry_multiplicity
  _atom_site_fract_x
  _atom_site_fract_y
  _atom_site_fract_z
  _atom_site_occupancy
  Zn  Zn1       1.0  0.500001352343098  0.5000003311277866  0.5000009756749295  1.0000
  Zn  Zn2       1.0  0.5000009772095311  2.1007313933e-06  6.609343472857433e-07  1.0000
  H   H1        1.0  0.3301331045198239  0.18469420350790244  0.8651196071571763  1.0000
  H   H2        1.0  0.8174765402672933  0.46604515922637557  0.6350349613224113  1.0000
  H   H3        1.0  0.6698671523159802  0.815305408381974  0.13487936605709194  1.0000
  H   H4        1.0  0.1825239109636385  0.5339565533948942  0.36496436729107984  1.0000
  H   H5        1.0  0.2784716293614338  0.2608173566990644  0.7652790696371099  1.0000
  H   H6        1.0  0.9965460930105225  0.5151287482681326  0.7339887354984996  1.0000
  H   H7        1.0  0.7215265525569805  0.7391801544594188  0.23472055741187603  1.0000
  H   H8        1.0  0.0034543582204093867  0.4848729643531371  0.26601133165652163  1.0000
  H   H9        1.0  0.4346980035178873  0.24578032137439723  0.7896774957712651  1.0000
  H   H10       1.0  0.9559727029479602  0.6452375472110462  0.7115509537370529  1.0000
  H   H11       1.0  0.5653001784005272  0.7542171897840861  0.21032065419465348  1.0000
  H   H12       1.0  0.04402680802183316  0.3547641654102237  0.2884466638688182  1.0000
  H   H13       1.0  0.8475580129230877  0.4798963316786242  0.345792890598716  1.0000
  H   H14       1.0  0.6315180973501171  0.4982483211444446  0.15342951562432464  1.0000
  H   H15       1.0  0.15243960166719722  0.5201001291141552  0.6542071803299053  1.0000
  H   H16       1.0  0.3684782199032739  0.5017544418425217  0.8465681994867469  1.0000
  H   H17       1.0  0.9404363504698238  0.5531089215221598  0.4932581648837271  1.0000
  H   H18       1.0  0.5565110496747963  0.4420169935315529  0.006015749971837196  1.0000
  H   H19       1.0  0.0595601294642023  0.44688543853922624  0.5067413167211114  1.0000
  H   H20       1.0  0.4434912662211588  0.5579794672612266  0.9939810593303948  1.0000
  H   H21       1.0  0.4817668894670107  0.4153040931140524  0.2667785496256415  1.0000
  H   H22       1.0  0.6462148190586844  0.2152608956693385  0.23419771555259672  1.0000
  H   H23       1.0  0.5182380686744708  0.584695518775824  0.7332223317529343  1.0000
  H   H24       1.0  0.35377772129292856  0.7847366154891376  0.765799030865985  1.0000
  H   H25       1.0  0.3209507388490636  0.21453929443519124  0.08676192394987942  1.0000
  H   H26       1.0  0.6270690887845518  0.23334084041951542  0.41404257284774093  1.0000
  H   H27       1.0  0.6790519658371326  0.7854613678203821  0.913237811775389  1.0000
  H   H28       1.0  0.3729249591563217  0.7666577211046643  0.585953963615758  1.0000
  H   H29       1.0  0.20885413241892084  0.2244452933278254  0.4112122788799369  1.0000
  H   H30       1.0  0.31275456672459256  0.7974628462794229  0.0883403212190785  1.0000
  H   H31       1.0  0.7911540194389632  0.7755532681963474  0.5887899820764987  1.0000
  H   H32       1.0  0.6872426749326834  0.2025346648790602  0.9116583333638176  1.0000
  H   H33       1.0  0.0320427607468119  0.019611377937053504  0.23596407442231285  1.0000
  H   H34       1.0  0.28457133970882603  0.7950869190717925  0.2632150933751803  1.0000
  H   H35       1.0  0.9679627647227989  0.9803892843185197  0.7640378401596806  1.0000
  H   H36       1.0  0.7154238270310601  0.2049084913552903  0.736784215042434  1.0000
  H   H37       1.0  0.11150780375515978  0.956330658018466  0.9928287196875303  1.0000
  H   H38       1.0  0.46361524537563537  0.1176913756676754  0.5073208215040951  1.0000
  H   H39       1.0  0.8884949009310431  0.0436700042371072  0.0071732316623282985  1.0000
  H   H40       1.0  0.5363819962816478  0.8823061354908006  0.492677094537278  1.0000
  H   H41       1.0  0.9862608575519333  0.8876672020105759  0.052274574072591055  1.0000
  H   H42       1.0  0.33312859829948854  0.9342593236179867  0.44634771420024333  1.0000
  H   H43       1.0  0.013742608857519701  0.11233661134208721  0.9477272887968555  1.0000
  H   H44       1.0  0.6668703453421756  0.0657413386375865  0.5536525629098535  1.0000
  H   H45       1.0  0.4222548787782899  0.6191317581666668  0.3497315336556569  1.0000
  H   H46       1.0  0.7703392955820121  0.07408124227532652  0.15168157994678924  1.0000
  H   H47       1.0  0.577743497535245  0.3808678537232098  0.6502691873340823  1.0000
  H   H48       1.0  0.229661722977042  0.9259215207116399  0.8483195204116499  1.0000
  H   H49       1.0  0.5900914134134183  0.6630769582165001  0.40126217973875805  1.0000
  H   H50       1.0  0.7636092612355158  0.18998069406315923  0.10119807566336188  1.0000
  H   H51       1.0  0.4099069629001164  0.3369226536733692  0.5987400183340341  1.0000
  H   H52       1.0  0.23639590715832529  0.8100262703866008  0.8988061482748082  1.0000
  C   C1        1.0  0.3228399380375109  0.19380822666465752  0.784571214937998  1.0000
  C   C2        1.0  0.908943311525519  0.5393669871024471  0.7156704359468762  1.0000
  C   C3        1.0  0.6771591841420346  0.8061892844938257  0.21542716895248049  1.0000
  C   C4        1.0  0.09105619944427448  0.4606347255188227  0.28432865874206215  1.0000
  C   C5        1.0  0.22850634852299126  0.052611767419485  0.697056916494688  1.0000
  C   C6        1.0  0.8556709654640499  0.5319650600325332  0.8034421961819903  1.0000
  C   C7        1.0  0.771491833395423  0.9473857437389981  0.30294123347123764  1.0000
  C   C8        1.0  0.14432797817761414  0.46803560222303997  0.19655660384505322  1.0000
  C   C9        1.0  0.09291336815893202  0.8439677875339413  0.5346011471575595  1.0000
  C   C10       1.0  0.8092711886032048  0.5562064499639376  0.9658785106718923  1.0000
  C   C11       1.0  0.9070851866924841  0.15602867325883815  0.46539841915408436  1.0000
  C   C12       1.0  0.19072812797146102  0.4437931619259389  0.03412096715933901  1.0000
  C   C13       1.0  0.8860470939215261  0.5694137482436546  0.4193626712711166  1.0000
  C   C14       1.0  0.6479414989013179  0.4625768516934059  0.0801847082994911  1.0000
  C   C15       1.0  0.11395052066875884  0.430582712549132  0.5806381381990278  1.0000
  C   C16       1.0  0.3520615945751331  0.5374280120249608  0.9198164767657603  1.0000
  C   C17       1.0  0.754155910360872  0.5781948054743183  0.4240210940678538  1.0000
  C   C18       1.0  0.652527035747049  0.32776031369453323  0.07580485865929631  1.0000
  C   C19       1.0  0.24584170422941304  0.42180165531846114  0.5759797154022906  1.0000
  C   C20       1.0  0.3474790729079231  0.6722466507552269  0.9241988606619103  1.0000
  C   C21       1.0  0.38136709043741485  0.3246113173335772  0.2565202491111265  1.0000
  C   C22       1.0  0.5664367080073518  0.12465319951036241  0.24394614052203425  1.0000
  C   C23       1.0  0.6186390023603181  0.6753903952876854  0.7434804830497017  1.0000
  C   C24       1.0  0.43355545941125234  0.8753453620138104  0.7560506666338827  1.0000
  C   C25       1.0  0.2897929790537433  0.21337233814532655  0.1557987074092111  1.0000
  C   C26       1.0  0.5568124209640999  0.1333229179771038  0.3447080729502972  1.0000
  C   C27       1.0  0.7102106658935909  0.7866283241102465  0.8442020007821399  1.0000
  C   C28       1.0  0.4431801193875131  0.8666745931813794  0.6552886734682846  1.0000
  C   C29       1.0  0.2292857893122147  0.2190170034034153  0.3372697966105847  1.0000
  C   C30       1.0  0.3813196028961982  0.8917793837160843  0.1625284074522853  1.0000
  C   C31       1.0  0.7707218110747789  0.7809857595835512  0.6627336797612814  1.0000
  C   C32       1.0  0.6186753853058065  0.1082191778080883  0.8374705785603568  1.0000
  C   C33       1.0  0.131401735655821  0.104589113957708  0.23928479884851583  1.0000
  C   C34       1.0  0.36564625201884843  0.8914222593789561  0.26045278398913047  1.0000
  C   C35       1.0  0.8686034168807809  0.8954125986635619  0.7607171764708199  1.0000
  C   C36       1.0  0.6343491091161583  0.10857525177952712  0.7395468798277066  1.0000
  C   C37       1.0  0.1598608594091289  0.1003088737406088  0.14525055219095157  1.0000
  C   C38       1.0  0.4552375208673638  0.0138060067272576  0.35492352948464406  1.0000
  C   C39       1.0  0.840142607000324  0.8996949396120543  0.8547498335954347  1.0000
  C   C40       1.0  0.5447587805287811  0.9861915044312185  0.6450741526321694  1.0000
  C   C41       1.0  0.052452704659586576  0.9816402698641797  0.036861538966029256  1.0000
  C   C42       1.0  0.444516275279085  0.0152345040757922  0.46293531304588953  1.0000
  C   C43       1.0  0.9475496270936078  0.018361442757090205  0.9631397345796345  1.0000
  C   C44       1.0  0.5554815337063204  0.9847640574483876  0.5370628976573713  1.0000
  S   S1        1.0  0.1885260666421473  0.022404300326570602  0.5577052922192038  1.0000
  S   S2        1.0  0.9664052695800223  0.6313464608622894  0.9432021126017106  1.0000
  S   S3        1.0  0.8114706076870064  0.9775921604662088  0.44229380624332754  1.0000
  S   S4        1.0  0.033594987255782  0.3686531510275871  0.05679686061255044  1.0000
  S   S5        1.0  0.01778413392438703  0.7209237482720712  0.4035384332533455  1.0000
  S   S6        1.0  0.8176670452908326  0.6097320355401976  0.09729527224993718  1.0000
  S   S7        1.0  0.982213286270778  0.2790706117893152  0.596461282276046  1.0000
  S   S8        1.0  0.18233040661881011  0.390272828178162  0.9027037707264469  1.0000
  N   N1        1.0  0.16691287805181795  0.9355281653805037  0.716010860296926  1.0000
  N   N2        1.0  0.7181390759417923  0.44985062090312067  0.7841162640307504  1.0000
  N   N3        1.0  0.8330858711947259  0.06447039614367613  0.2839883228724176  1.0000
  N   N4        1.0  0.28186118089401196  0.5501489909867558  0.21588270918351074  1.0000
  N   N5        1.0  0.08919212571600363  0.815794878796986  0.6244344249479995  1.0000
  N   N6        1.0  0.6897672588352465  0.46218191419116295  0.8755742622465166  1.0000
  N   N7        1.0  0.9108079367246802  0.1842026323614903  0.37556714703315214  1.0000
  N   N8        1.0  0.3102329980005578  0.5378176976987135  0.12442544950927467  1.0000
  N   N9        1.0  0.35224226237676964  0.32864262088038754  0.3461701328516824  1.0000
  N   N10       1.0  0.4810189434340728  0.006154092621351001  0.15385447648533565  1.0000
  N   N11       1.0  0.647763263092834  0.6713580413751856  0.6538325202718412  1.0000
  N   N12       1.0  0.5189751045067936  0.9938444689028288  0.8461435370612237  1.0000
  O   O1        1.0  0.7214927474565656  0.656546834675467  0.3799219105633825  1.0000
  O   O2        1.0  0.7770404880422744  0.3404445298569172  0.12038328838758625  1.0000
  O   O3        1.0  0.2785048671337194  0.34344962611731233  0.6200788989067619  1.0000
  O   O4        1.0  0.22296656087383582  0.6595624345928428  0.8796177106920666  1.0000
  O   O5        1.0  0.6866940832610808  0.5022827757883377  0.47041901745490133  1.0000
  O   O6        1.0  0.5288287974692877  0.2139952050039113  0.029362185414818484  1.0000
  O   O7        1.0  0.3133050389184646  0.4977147353701383  0.5295837976847438  1.0000
  O   O8        1.0  0.4711776841186933  0.786010709080145  0.9706436887936365  1.0000
  O   O9        1.0  0.5077758567471307  0.6540396117556568  0.422353823671017  1.0000
  O   O10       1.0  0.7335629576113405  0.08756583709916303  0.07969300524482753  1.0000
  O   O11       1.0  0.4922225195664041  0.3459600001342125  0.5776476358602524  1.0000
  O   O12       1.0  0.2664378824098322  0.9124400769848933  0.9203092497917071  1.0000
