data_image0
_chemical_formula_structural       Zn8H60C108O26
_chemical_formula_sum              "Zn8 H60 C108 O26"
_cell_length_a       14.012141748113736
_cell_length_b       14.012161571743887
_cell_length_c       17.541236276973322
_cell_angle_alpha    113.54167567113217
_cell_angle_beta     113.54109740236353
_cell_angle_gamma    90.00181709922694

_space_group_name_H-M_alt    "P 1"
_space_group_IT_number       1

loop_
  _space_group_symop_operation_xyz
  'x, y, z'

loop_
  _atom_site_type_symbol
  _atom_site_label
  _atom_site_symmetry_multiplicity
  _atom_site_fract_x
  _atom_site_fract_y
  _atom_site_fract_z
  _atom_site_occupancy
  Zn  Zn1       1.0  0.6477792083671544  0.5041765433227283  0.07764093379523754  1.0000
  Zn  Zn2       1.0  0.4265149313153528  0.35223000319831493  0.9223460449951942  1.0000
  Zn  Zn3       1.0  0.42984843196484235  0.5734781443886021  0.07763832508010898  1.0000
  Zn  Zn4       1.0  0.4958235031457077  0.5701723630809353  0.9224111086998759  1.0000
  Zn  Zn5       1.0  0.3201690852766814  0.7458236390758584  0.4224094236113131  1.0000
  Zn  Zn6       1.0  0.2541731285015344  0.8977840187897215  0.5776416131960715  1.0000
  Zn  Zn7       1.0  0.10222774859252572  0.6765121915159114  0.4223440001426581  1.0000
  Zn  Zn8       1.0  0.323477905820006  0.6798489708855513  0.5776349667926652  1.0000
  H   H1        1.0  0.718111345831268  0.825906091707772  0.9756063554400214  1.0000
  H   H2        1.0  0.8501738955231134  0.2818148394170307  0.024361148168651515  1.0000
  H   H3        1.0  0.2575784392733523  0.14984014392658196  0.9756403785405536  1.0000
  H   H4        1.0  0.17408335434732441  0.7424437909538569  0.024351730806159887  1.0000
  H   H5        1.0  0.4924461372227071  0.424086476481527  0.5243497644075035  1.0000
  H   H6        1.0  0.5759038352040945  0.9681077649329878  0.4756019525500008  1.0000
  H   H7        1.0  0.03181197867888828  0.100171044998703  0.5243611254771919  1.0000
  H   H8        1.0  0.8998318278488426  0.5075754174198579  0.4756348207129123  1.0000
  H   H9        1.0  0.859304579160636  0.9844405071893119  0.05083866459229836  1.0000
  H   H10       1.0  0.9334629258568938  0.14063253135800116  0.9490879039972668  1.0000
  H   H11       1.0  0.1915485913831034  0.0664313573122612  0.050814947093663  1.0000
  H   H12       1.0  0.015553231915163052  0.8084709893786624  0.9491896508157963  1.0000
  H   H13       1.0  0.5584730044978129  0.2655576993270614  0.4491918023831117  1.0000
  H   H14       1.0  0.7344369479470599  0.10930225883708292  0.5508367165569581  1.0000
  H   H15       1.0  0.8906327653408612  0.1834589256376019  0.44908559095300404  1.0000
  H   H16       1.0  0.8164290734887486  0.4415440319050462  0.55081333381807  1.0000
  H   H17       1.0  0.04862306524731248  0.8743214111924758  0.2510566059841963  1.0000
  H   H18       1.0  0.6231336480591735  0.9512939558961975  0.7488756799674761  1.0000
  H   H19       1.0  0.20238099405127488  0.376747467921426  0.2510456854884922  1.0000
  H   H20       1.0  0.12567383068680724  0.7975996674022738  0.7489817002392484  1.0000
  H   H21       1.0  0.547601979986844  0.3756713426065731  0.24897874691071564  1.0000
  H   H22       1.0  0.6243219856815541  0.2986257504296503  0.7510577779548554  1.0000
  H   H23       1.0  0.7012916552838959  0.8731285613016411  0.2488718566205109  1.0000
  H   H24       1.0  0.12674539301055177  0.452379959023375  0.7510414283900814  1.0000
  H   H25       1.0  0.9057034572338908  0.7178397733263676  0.17671394030418955  1.0000
  H   H26       1.0  0.5409901192520079  0.09426683510535132  0.8232229334973052  1.0000
  H   H27       1.0  0.2710970212688011  0.45898561004452904  0.17679866815118575  1.0000
  H   H28       1.0  0.2821389082120972  0.7289626643394201  0.8232525038957306  1.0000
  H   H29       1.0  0.4789643689238332  0.5321421044835688  0.3232490562363139  1.0000
  H   H30       1.0  0.46783979638626505  0.1557047884995697  0.6767152787304411  1.0000
  H   H31       1.0  0.844265054199873  0.7909817638142299  0.32321935352297987  1.0000
  H   H32       1.0  0.20898072318167468  0.5210982602490333  0.6767930957573326  1.0000
  H   H33       1.0  0.04143119111717649  0.04143827530431569  0.08273889451600519  1.0000
  H   H34       1.0  0.9585318961868764  0.9585636306247522  0.9172522789172248  1.0000
  H   H35       1.0  0.7085633581696484  0.20853477699678535  0.41725446186315196  1.0000
  H   H36       1.0  0.7914398093411918  0.2914277124605391  0.5827383711847388  1.0000
  H   H37       1.0  0.06653675151524396  0.056280414471316896  0.33977700442108727  1.0000
  H   H38       1.0  0.7164685805615463  0.9334815201073496  0.6601785772347596  1.0000
  H   H39       1.0  0.2732877852462252  0.28357424679415283  0.339827880464469  1.0000
  H   H40       1.0  0.9437805953569337  0.7267967294303759  0.6602027859185428  1.0000
  H   H41       1.0  0.47680210420688246  0.19377911906113351  0.16020419961967045  1.0000
  H   H42       1.0  0.8062804746736347  0.3165386582614432  0.8397764346303163  1.0000
  H   H43       1.0  0.6834817767112895  0.966466369489055  0.16018087733818498  1.0000
  H   H44       1.0  0.03357421494946058  0.5232876786327267  0.8398308613007186  1.0000
  H   H45       1.0  0.27345998709006375  0.3838148819124569  0.4687068580112309  1.0000
  H   H46       1.0  0.9150316996585061  0.726530702471962  0.5313071567591693  1.0000
  H   H47       1.0  0.1951275522931013  0.08504780337385398  0.46873459367659354  1.0000
  H   H48       1.0  0.6162299776030836  0.8048467377605278  0.5312646294191695  1.0000
  H   H49       1.0  0.554847004719882  0.8662248669511784  0.03126019114901636  1.0000
  H   H50       1.0  0.1338109682008761  0.5234553475520584  0.9687032403614493  1.0000
  H   H51       1.0  0.4765363414802267  0.16503180090032288  0.03131261194346994  1.0000
  H   H52       1.0  0.8350470770223807  0.445128089872263  0.9687357912237644  1.0000
  H   H53       1.0  0.3634775637723067  0.4662740534767805  0.6381856610548482  1.0000
  H   H54       1.0  0.8280209196376446  0.6365508432533105  0.3618087955620269  1.0000
  H   H55       1.0  0.2747356339856069  0.17207362178452706  0.6382203618360619  1.0000
  H   H56       1.0  0.5338202536272404  0.7252797441608294  0.361818640668126  1.0000
  H   H57       1.0  0.4752788098832211  0.7838214669727394  0.8618155341242186  1.0000
  H   H58       1.0  0.21627114860197602  0.613473178902261  0.1381830513446475  1.0000
  H   H59       1.0  0.3865549890830024  0.07802693535657569  0.8618151509418934  1.0000
  H   H60       1.0  0.9220734544805892  0.5247351809070936  0.1382215491902346  1.0000
  C   C1        1.0  0.7165862025433328  0.6711384044079837  0.03335922816742721  1.0000
  C   C2        1.0  0.637651984397756  0.28335339015465877  0.9666187113996826  1.0000
  C   C3        1.0  0.31683058069442893  0.36229358890515323  0.03340341695430749  1.0000
  C   C4        1.0  0.32881473199071815  0.6831760322596452  0.9666589670803275  1.0000
  C   C5        1.0  0.4331788334526436  0.5788137105818052  0.46665952008458333  1.0000
  C   C6        1.0  0.42113509858253917  0.9665863468048245  0.5333616298552714  1.0000
  C   C7        1.0  0.033347227175340645  0.8876448006760995  0.46661695489586913  1.0000
  C   C8        1.0  0.11229056265307229  0.566831802129954  0.5334004795562349  1.0000
  C   C9        1.0  0.8030016113167379  0.7622615800675517  0.07200723929890536  1.0000
  C   C10       1.0  0.6901192395610066  0.19692019603198213  0.9279715742083922  1.0000
  C   C11       1.0  0.26913116389071934  0.30984175630408106  0.07209604563509231  1.0000
  C   C12       1.0  0.2377027180631187  0.7309219266156005  0.9279613224993141  1.0000
  C   C13       1.0  0.480928617723812  0.4877075155249316  0.42795859400278863  1.0000
  C   C14       1.0  0.5122621829442977  0.052994902189496394  0.5720033257266834  1.0000
  C   C15       1.0  0.9469163180465046  0.9401125307728648  0.4279684125493618  1.0000
  C   C16       1.0  0.05983106858892721  0.5191305459434331  0.5720893396305937  1.0000
  C   C17       1.0  0.7910088704443652  0.8367793609767206  0.03565683852829004  1.0000
  C   C18       1.0  0.800990334756193  0.20890447138823018  0.9643046737333235  1.0000
  C   C19       1.0  0.2447250953674782  0.1989749180726719  0.03569992439229004  1.0000
  C   C20       1.0  0.16319462369237664  0.7553190734652585  0.9643120922395169  1.0000
  C   C21       1.0  0.5053250995598689  0.4132009528408389  0.4643131950694084  1.0000
  C   C22       1.0  0.5867747143955737  0.041005249203173805  0.5356552597544562  1.0000
  C   C23       1.0  0.958902327318732  0.0509821818822829  0.46430387540709  1.0000
  C   C24       1.0  0.9489691757581937  0.49472639888740827  0.5356981888131999  1.0000
  C   C25       1.0  0.8707734053090946  0.9251698893720927  0.07774566554011407  1.0000
  C   C26       1.0  0.8472820824392356  0.12915653800668986  0.9221850671814308  1.0000
  C   C27       1.0  0.20703771790284972  0.1526232371705731  0.0777546842050754  1.0000
  C   C28       1.0  0.07480659164867366  0.793011330881029  0.922253982330801  1.0000
  C   C29       1.0  0.5430162836907327  0.3248106443975017  0.4222550453952323  1.0000
  C   C30       1.0  0.6751678354954507  0.12076678400285347  0.5777432508770204  1.0000
  C   C31       1.0  0.8791552393359794  0.09727495840192549  0.42218501211646503  1.0000
  C   C32       1.0  0.9026198892648124  0.4570364138152457  0.5777529973465718  1.0000
  C   C33       1.0  0.9636059040768289  0.941142369610091  0.15700993223478607  1.0000
  C   C34       1.0  0.7839719841438749  0.03630976085762675  0.8429283134826874  1.0000
  C   C35       1.0  0.1934975279766746  0.21593115231833343  0.15703440276136862  1.0000
  C   C36       1.0  0.05883853177485295  0.8065668405410238  0.8429935397980228  1.0000
  C   C37       1.0  0.5565757134960663  0.30884158304959897  0.3429979495446105  1.0000
  C   C38       1.0  0.6911366063269995  0.21360382822514615  0.6570079522368673  1.0000
  C   C39       1.0  0.7863109389740116  0.03396624961046512  0.34292771534734373  1.0000
  C   C40       1.0  0.9659310234508282  0.4434980687628211  0.6570341564867447  1.0000
  C   C41       1.0  0.9757963300111285  0.8645195346436197  0.19127484768120712  1.0000
  C   C42       1.0  0.6730942711173354  0.024116828543675677  0.808678179468238  1.0000
  C   C43       1.0  0.21552806846469255  0.3268246385630675  0.19130559387301824  1.0000
  C   C44       1.0  0.13546080171904143  0.7844968480198418  0.8087341338859487  1.0000
  C   C45       1.0  0.5345037335430548  0.3854636028396642  0.3087339665141898  1.0000
  C   C46       1.0  0.614520048953402  0.2257934916371482  0.691277128943426  1.0000
  C   C47       1.0  0.7741171520827521  0.9230853863499533  0.308671650001486  1.0000
  C   C48       1.0  0.07682153341715972  0.4655311105550125  0.6913025620425584  1.0000
  C   C49       1.0  0.8966014420760258  0.7764187347986109  0.14948521906521983  1.0000
  C   C50       1.0  0.6267938936176305  0.10332664078275398  0.850460582933479  1.0000
  C   C51       1.0  0.2529704361819896  0.3731738221557563  0.14956615875149032  1.0000
  C   C52       1.0  0.2235775282206445  0.7470921292143158  0.8504985597029842  1.0000
  C   C53       1.0  0.49709849075638596  0.4735785507116717  0.3504986344174413  1.0000
  C   C54       1.0  0.5264155375119373  0.1466003535704488  0.6494834510746088  1.0000
  C   C55       1.0  0.8533275262509863  0.8767885308519896  0.35045766212923024  1.0000
  C   C56       1.0  0.1231695412215997  0.5029729699020181  0.6495608259615793  1.0000
  C   C57       1.0  0.047058588232722735  0.0366949848000715  0.20604214403057594  1.0000
  C   C58       1.0  0.8305081305076952  0.9528828155145845  0.793917479537825  1.0000
  C   C59       1.0  0.15911615629943296  0.16940341182312582  0.20607306642619957  1.0000
  C   C60       1.0  0.9632714327833225  0.840926397261313  0.7939389319870711  1.0000
  C   C61       1.0  0.5909308123727186  0.21327046549345152  0.2939410089502418  1.0000
  C   C62       1.0  0.7866921382586012  0.2970539355819142  0.7060385316600771  1.0000
  C   C63       1.0  0.7028874609038313  0.08050584201245675  0.2939193606668057  1.0000
  C   C64       1.0  0.9194055576950503  0.40911492788583104  0.7060733991429232  1.0000
  C   C65       1.0  0.07913607231319729  0.0790773161512135  0.1581077909652819  1.0000
  C   C66       1.0  0.9208219504817308  0.920844853363654  0.8418767462113691  1.0000
  C   C67       1.0  0.6708468190827263  0.17082125798872028  0.34187947620296205  1.0000
  C   C68       1.0  0.8290798443472127  0.32913401164099537  0.6581090723848605  1.0000
  C   C69       1.0  0.09540325462079119  0.0864272767319747  0.30288644879242804  1.0000
  C   C70       1.0  0.7834471448352004  0.9045791035036217  0.6970776765708493  1.0000
  C   C71       1.0  0.2075216139090798  0.21655861600196152  0.30292263381753054  1.0000
  C   C72       1.0  0.9136311327641595  0.7925411178464826  0.6970924194764336  1.0000
  C   C73       1.0  0.542542643116299  0.16362877760343505  0.19709525994509386  1.0000
  C   C74       1.0  0.8364259937818375  0.34539750241148687  0.8028825896423015  1.0000
  C   C75       1.0  0.6545818665171624  0.033445489282350124  0.197079173894288  1.0000
  C   C76       1.0  0.9665577250598503  0.4575245062608033  0.8029226296830742  1.0000
  C   C77       1.0  0.176293367953086  0.176376072112042  0.3526402733406186  1.0000
  C   C78       1.0  0.8237020532507129  0.8237273163839234  0.6473641596333054  1.0000
  C   C79       1.0  0.5737313208825299  0.07370032516864461  0.1473657365596281  1.0000
  C   C80       1.0  0.9263715363142139  0.426290660039399  0.8526355128923058  1.0000
  C   C81       1.0  0.22726624615738436  0.22744286752964632  0.454720828614164  1.0000
  C   C82       1.0  0.7726625224912452  0.772741145268384  0.5452883573172826  1.0000
  C   C83       1.0  0.5227436354601239  0.022661456267336202  0.04529020084925156  1.0000
  C   C84       1.0  0.9774395033705191  0.4772632245929032  0.9547175196683783  1.0000
  C   C85       1.0  0.2758483229309546  0.33535023061470076  0.5046954617898294  1.0000
  C   C86       1.0  0.8305770587218149  0.7241512447006072  0.49532095702458895  1.0000
  C   C87       1.0  0.22865273928702828  0.16952737825364034  0.5047026432931432  1.0000
  C   C88       1.0  0.6647616390269349  0.7713701041550961  0.49531720164697646  1.0000
  C   C89       1.0  0.521370563994317  0.9147599004281162  0.9953153054021582  1.0000
  C   C90       1.0  0.08534529184351676  0.5258448325861168  0.004690952837194197  1.0000
  C   C91       1.0  0.4741531546432608  0.08057713484067358  0.9953248835311183  1.0000
  C   C92       1.0  0.9195250639861144  0.4786540470008374  0.004701606462404755  1.0000
  C   C93       1.0  0.3256661516825544  0.3829166767900531  0.6005725982477229  1.0000
  C   C94       1.0  0.7823037443091749  0.6743886817015506  0.399445754189628  1.0000
  C   C95       1.0  0.27484068809572176  0.21781556309949926  0.6005794492990403  1.0000
  C   C96       1.0  0.6171937726224357  0.7251872083109773  0.39944988580954544  1.0000
  C   C97       1.0  0.4751842319808686  0.8671936899690279  0.8994480225653944  1.0000
  C   C98       1.0  0.13291399972268178  0.5756615153045884  0.10056856892467182  1.0000
  C   C99       1.0  0.4243908767075552  0.03230715542457568  0.8994493430829421  1.0000
  C   C100      1.0  0.9678137166685944  0.5248390480081184  0.10057948594229787  1.0000
  C   C101      1.0  0.32478281810895016  0.3248552512620788  0.6495619251708289  1.0000
  C   C102      1.0  0.6752456207261162  0.6752659475254246  0.35045882594826594  1.0000
  C   C103      1.0  0.4252648548107201  0.9252461541610231  0.8504610483770775  1.0000
  C   C104      1.0  0.07485528793549177  0.5747786530073782  0.14956206346986534  1.0000
  C   C105      1.0  0.3761005028147081  0.3761199879924675  0.7521266877569913  1.0000
  C   C106      1.0  0.6239654809027044  0.6239907875648074  0.24789747962856284  1.0000
  C   C107      1.0  0.37398667021258786  0.8739686824112668  0.7478976940663883  1.0000
  C   C108      1.0  0.1261163910279349  0.6260968474740592  0.25212579242470656  1.0000
  O   O1        1.0  0.499995229702634  0.5000026184000461  1.6875678838365962e-05  1.0000
  O   O2        1.0  0.24999895199574232  0.7499972700763563  0.500013913144592  1.0000
  O   O3        1.0  0.735813231263748  0.6076499483206775  0.07102287820943344  1.0000
  O   O4        1.0  0.5365147937195472  0.26414088392932905  0.9289877338692916  1.0000
  O   O5        1.0  0.3352486564924959  0.46343745425240707  0.07106485187480877  1.0000
  O   O6        1.0  0.3923473357842012  0.6647999784551785  0.9290543806193127  1.0000
  O   O7        1.0  0.41479879206029585  0.6423538328166815  0.42905001368512075  1.0000
  O   O8        1.0  0.3576471529440752  0.9858134295460629  0.5710178944656192  1.0000
  O   O9        1.0  0.014130813336031202  0.786505762687277  0.4289855508394567  1.0000
  O   O10       1.0  0.21342667318801736  0.5852465182340437  0.5710581013748453  1.0000
  O   O11       1.0  0.6288573046840894  0.6638201211101133  0.9666333124512434  1.0000
  O   O12       1.0  0.6970863493295739  0.3710695584200819  0.03337458171299097  1.0000
  O   O13       1.0  0.33768877043885925  0.3028727884845424  0.966584193993455  1.0000
  O   O14       1.0  0.3361130367719127  0.662220625103714  0.033411054354260686  1.0000
  O   O15       1.0  0.41222034329717844  0.5861126693709977  0.5334027814446073  1.0000
  O   O16       1.0  0.4138135711417376  0.8788539138971031  0.46662582484128723  1.0000
  O   O17       1.0  0.12106184796985524  0.947078922745476  0.533371364233716  1.0000
  O   O18       1.0  0.05286247454235127  0.5876906545606672  0.4665778132427291  1.0000
  O   O19       1.0  0.4369998518539475  0.46674455938232745  0.792443376051544  1.0000
  O   O20       1.0  0.6742840057621393  0.5630341924791721  0.20762302021600482  1.0000
  O   O21       1.0  0.35546157431046765  0.325724163234156  0.7923727054918855  1.0000
  O   O22       1.0  0.5333975593637774  0.6446888017203988  0.20760677271235295  1.0000
  O   O23       1.0  0.3946808195645275  0.7833978740013451  0.7076030598081715  1.0000
  O   O24       1.0  0.21674719348945357  0.6870002341069182  0.29244427525522104  1.0000
  O   O25       1.0  0.31303410540504467  0.924289288916611  0.7076252888592407  1.0000
  O   O26       1.0  0.07572513615083659  0.6054593146712933  0.2923721496836507  1.0000
