data_image0
_chemical_formula_structural       V4Zn2H28C28N8O16
_chemical_formula_sum              "V4 Zn2 H28 C28 N8 O16"
_cell_length_a       8.316305372850653
_cell_length_b       8.86218540192734
_cell_length_c       13.629310934870409
_cell_angle_alpha    80.0597799611404
_cell_angle_beta     76.88968274397152
_cell_angle_gamma    68.32847561243231

_space_group_name_H-M_alt    "P 1"
_space_group_IT_number       1

loop_
  _space_group_symop_operation_xyz
  'x, y, z'

loop_
  _atom_site_type_symbol
  _atom_site_label
  _atom_site_symmetry_multiplicity
  _atom_site_fract_x
  _atom_site_fract_y
  _atom_site_fract_z
  _atom_site_occupancy
  V   V1        1.0  0.7770467649906152  0.23985791414434493  0.4701575694494479  1.0000
  V   V2        1.0  0.22295491344995372  0.7601418258293082  0.5298422756761241  1.0000
  V   V3        1.0  0.05506584750391141  0.08526400226728732  0.6495057860054132  1.0000
  V   V4        1.0  0.9449358309366572  0.914735737706366  0.3504940591201517  1.0000
  Zn  Zn1       1.0  0.348805832283098  0.31383319554741024  0.5877722907543087  1.0000
  Zn  Zn2       1.0  0.6511953982693298  0.6861677655427915  0.41222674619867666  1.0000
  H   H1        1.0  0.02610075256716013  0.5542423351287769  0.28024658966178606  1.0000
  H   H2        1.0  0.9738975553952115  0.44575983972456623  0.7197527063813425  1.0000
  H   H3        1.0  0.7691129467821797  0.2230402908930104  0.14763910654034618  1.0000
  H   H4        1.0  0.23088887325869928  0.7769557866077084  0.8523603897059928  1.0000
  H   H5        1.0  0.8103823839621994  0.41041678266246623  0.1079433050399032  1.0000
  H   H6        1.0  0.1896211095554888  0.58957807588061  0.8920575680904363  1.0000
  H   H7        1.0  0.7710959072251599  0.39521766151202103  0.9403939058851803  1.0000
  H   H8        1.0  0.228905771215409  0.604782078461632  0.05960593924039162  1.0000
  H   H9        1.0  0.3836327900110065  0.057403571545954414  0.2642863826468158  1.0000
  H   H10       1.0  0.6163651881389639  0.9425961589153999  0.7357139610300577  1.0000
  H   H11       1.0  0.12061166272330578  0.08670815070007622  0.1909838469237783  1.0000
  H   H12       1.0  0.87938845247465  0.9132891417108199  0.8090172120193059  1.0000
  H   H13       1.0  0.4131605440335804  0.10472375069424802  0.9604789858142695  1.0000
  H   H14       1.0  0.5868389973589956  0.8952784273298635  0.03952014404509188  1.0000
  H   H15       1.0  0.2984099048235507  0.14077495217345873  0.8004083530369996  1.0000
  H   H16       1.0  0.7015891729978281  0.8592284449434616  0.19959143844014446  1.0000
  H   H17       1.0  0.052567580991457384  0.07717954476722613  0.03668102042249189  1.0000
  H   H18       1.0  0.9474342390494285  0.9228165327334923  0.9633184758238471  1.0000
  H   H19       1.0  0.08102824826861615  0.2686596781774001  0.9894005777951946  1.0000
  H   H20       1.0  0.9189723305005372  0.7313363951406874  0.010599819530099794  1.0000
  H   H21       1.0  0.11099752180388123  0.5493692622093819  0.4454309323169028  1.0000
  H   H22       1.0  0.8890015638590256  0.4506341359194083  0.5545681242650602  1.0000
  H   H23       1.0  0.4607619188171911  0.07542673838193541  0.42695264867643345  1.0000
  H   H24       1.0  0.5392351557149766  0.9245754333006391  0.5730468135504551  1.0000
  H   H25       1.0  0.6340552135828333  0.48062420279565304  0.8286220983688465  1.0000
  H   H26       1.0  0.3659447678563409  0.5193767531000406  0.17137857455828248  1.0000
  H   H27       1.0  0.5087163640473661  0.502351844954383  0.6761323482011647  1.0000
  H   H28       1.0  0.4912848586635405  0.4976491151239487  0.3238674236470088  1.0000
  C   C1        1.0  0.11970476972904012  0.44458441693255685  0.3119592165740244  1.0000
  C   C2        1.0  0.8802935382333316  0.5554177579207861  0.6880400794690971  1.0000
  C   C3        1.0  0.8280706753752657  0.29191755841350914  0.08451743699403379  1.0000
  C   C4        1.0  0.1719319145246274  0.7080797413507868  0.9154825546863279  1.0000
  C   C5        1.0  0.3183358380138587  0.168112830821137  0.3025010663919545  1.0000
  C   C6        1.0  0.6816612286767878  0.8318893398495677  0.6974991307301223  1.0000
  C   C7        1.0  0.5362845307449009  0.2872504473240554  0.907950093722178  1.0000
  C   C8        1.0  0.4637142329471331  0.7127505074246089  0.09204927559834182  1.0000
  C   C9        1.0  0.4365304579598117  0.19481514680094142  0.8994695279063976  1.0000
  C   C10       1.0  0.563470764751095  0.8051858132773901  0.10053024394177605  1.0000
  C   C11       1.0  0.37222824137271  0.2141796921239276  0.8107942217351721  1.0000
  C   C12       1.0  0.6277729813381966  0.785821267954404  0.1892055501130017  1.0000
  C   C13       1.0  0.19561119782137845  0.3045746256301527  0.2602466232905982  1.0000
  C   C14       1.0  0.804383865580057  0.695426319606206  0.739753244581223  1.0000
  C   C15       1.0  0.02656258155274568  0.20067693284745766  0.05517971607026341  1.0000
  C   C16       1.0  0.9734404640768088  0.7993191468121668  0.9448203488874967  1.0000
  C   C17       1.0  0.6143808656456498  0.2528104226858119  0.0025639044808585284  1.0000
  C   C18       1.0  0.38561834593451744  0.747189310946304  0.9974362730122479  1.0000
  C   C19       1.0  0.1436228666541197  0.315588788133681  0.16030389576295076  1.0000
  C   C20       1.0  0.856375575067041  0.6844097232348574  0.8396957862961327  1.0000
  C   C21       1.0  0.16760592974431174  0.4428085711734085  0.40322738942963804  1.0000
  C   C22       1.0  0.8323911369463346  0.5571935994972961  0.5967728076924388  1.0000
  C   C23       1.0  0.3622474173469499  0.17794063353260012  0.3933459216839168  1.0000
  C   C24       1.0  0.6377484237550277  0.8220615349792058  0.606653706726739  1.0000
  C   C25       1.0  0.5607968215852779  0.4019644534576089  0.8269288735282528  1.0000
  C   C26       1.0  0.43920440112562187  0.5980365066207229  0.17307089831992067  1.0000
  C   C27       1.0  0.4911901027763008  0.41538300263290767  0.7409857335109891  1.0000
  C   C28       1.0  0.508809886504409  0.5846179542746555  0.25901420452095175  1.0000
  N   N1        1.0  0.4004784304016554  0.3216329507136139  0.7319516878557408  1.0000
  N   N2        1.0  0.5995227766261879  0.6783680073409853  0.26804955378280226  1.0000
  N   N3        1.0  0.7378536816125348  0.3187894640710952  0.0005837264319338907  1.0000
  N   N4        1.0  0.26214721128596347  0.6812090516152483  0.9994170930499848  1.0000
  N   N5        1.0  0.28813865362392477  0.31239373402896586  0.4433414039261194  1.0000
  N   N6        1.0  0.7118596543384469  0.6876084408243772  0.556657892117002  1.0000
  N   N7        1.0  0.11376438720880337  0.18683422167669766  0.13911728294753087  1.0000
  N   N8        1.0  0.8862365135312306  0.8131642950215081  0.8608828016391994  1.0000
  O   O1        1.0  0.28184593447866046  0.5602468967777696  0.5638868585989485  1.0000
  O   O2        1.0  0.7181569773921056  0.4397528463666519  0.4361128203428493  1.0000
  O   O3        1.0  0.21149723429755343  0.16395125819641987  0.647738843798976  1.0000
  O   O4        1.0  0.7885032028712827  0.8360484775946021  0.3522619024055443  1.0000
  O   O5        1.0  0.9139785135771419  0.11454046670180422  0.7557142353599815  1.0000
  O   O6        1.0  0.08602451636934916  0.8854556109340808  0.244287299388148  1.0000
  O   O7        1.0  0.8547606053610863  0.1324922852984116  0.3597147006777064  1.0000
  O   O8        1.0  0.14524353209834817  0.867507460004916  0.6402855469755123  1.0000
  O   O9        1.0  0.6057893757902734  0.19293623989521794  0.5396642055477443  1.0000
  O   O10       1.0  0.3942106213319647  0.8070647180242151  0.46033499758900825  1.0000
  O   O11       1.0  0.9486768331446955  0.18140785008503713  0.5421607456342059  1.0000
  O   O12       1.0  0.051323596182612535  0.818591884694115  0.4578407354655027  1.0000
  O   O13       1.0  0.12274880141646348  0.44518428813196215  0.1029593932571373  1.0000
  O   O14       1.0  0.8772484068745006  0.5548142200658078  0.8970404549857136  1.0000
  O   O15       1.0  0.5673786977840507  0.16432062998409694  0.0763671720516825  1.0000
  O   O16       1.0  0.43262128365512337  0.8356803259115967  0.9236335008754467  1.0000
