data_image0
_chemical_formula_structural       Cd4H28C40S8N20
_chemical_formula_sum              "Cd4 H28 C40 S8 N20"
_cell_length_a       8.478051058405978
_cell_length_b       9.262228940037794
_cell_length_c       16.26152123443803
_cell_angle_alpha    89.99999156968296
_cell_angle_beta     97.54517233532165
_cell_angle_gamma    90.00032211242109

_space_group_name_H-M_alt    "P 1"
_space_group_IT_number       1

loop_
  _space_group_symop_operation_xyz
  'x, y, z'

loop_
  _atom_site_type_symbol
  _atom_site_label
  _atom_site_symmetry_multiplicity
  _atom_site_fract_x
  _atom_site_fract_y
  _atom_site_fract_z
  _atom_site_occupancy
  Cd  Cd1       1.0  0.9898708674058057  0.1998193627503042  0.630427023678557  1.0000
  Cd  Cd2       1.0  0.010127962303670296  0.6998142011517813  0.8695760941208377  1.0000
  Cd  Cd3       1.0  0.0101301262474536  0.8001777873983259  0.3695722408141719  1.0000
  Cd  Cd4       1.0  0.9898705825772185  0.3001872676053452  0.1304248232461021  1.0000
  H   H1        1.0  0.448959475688703  0.8945038832705807  0.8064363545798656  1.0000
  H   H2        1.0  0.551040927330483  0.39450247884334294  0.6935576298110391  1.0000
  H   H3        1.0  0.5510415179781489  0.10549758549296231  0.193562909913588  1.0000
  H   H4        1.0  0.44895771034956783  0.6054979102605671  0.3064408345820198  1.0000
  H   H5        1.0  0.27316693062484626  0.33658373603952896  0.7971402476951397  1.0000
  H   H6        1.0  0.7268352318451791  0.8365844183475132  0.7028606498204938  1.0000
  H   H7        1.0  0.7268316374498909  0.6634155734102692  0.20286005642800828  1.0000
  H   H8        1.0  0.2731692841896489  0.16341489111736957  0.2971401214446345  1.0000
  H   H9        1.0  0.4787026657788687  0.4012317535130451  0.9005715197818986  1.0000
  H   H10       1.0  0.5213035419351114  0.9012292533671198  0.599427839952817  1.0000
  H   H11       1.0  0.5212971382925673  0.5987686355937569  0.09942765128297991  1.0000
  H   H12       1.0  0.47869868770804663  0.09876681713105738  0.4005702914812801  1.0000
  H   H13       1.0  0.6894199131051763  0.4590316500270146  0.0159563300253467  1.0000
  H   H14       1.0  0.310585225037606  0.9590301515332489  0.4840447470135629  1.0000
  H   H15       1.0  0.3105811037657134  0.5409708983903839  0.9840423212248625  1.0000
  H   H16       1.0  0.689414555819596  0.040965918958512815  0.5159550372940203  1.0000
  H   H17       1.0  0.8343750039528786  0.031222465801143105  0.03888626911658118  1.0000
  H   H18       1.0  0.16562394250232157  0.5312191549710121  0.46111254454012857  1.0000
  H   H19       1.0  0.1656234713328857  0.9687811622630566  0.9611164879809877  1.0000
  H   H20       1.0  0.8343697511943519  0.4687779951586321  0.5388904520862  1.0000
  H   H21       1.0  0.6288586465593725  0.9549573790874248  0.9250956955965108  1.0000
  H   H22       1.0  0.37114318732547247  0.4549561650108985  0.5749020819423976  1.0000
  H   H23       1.0  0.3711385463182211  0.0450419303583374  0.074909421045632  1.0000
  H   H24       1.0  0.6288541679566038  0.5450431444357519  0.4250987419957823  1.0000
  H   H25       1.0  0.209439251536736  0.9376548864150326  0.6937597129406115  1.0000
  H   H26       1.0  0.7905600942669296  0.4376535964032585  0.8062378719431251  1.0000
  H   H27       1.0  0.7905653573108395  0.06234766201154679  0.3062386053513677  1.0000
  H   H28       1.0  0.20944208898173863  0.5623446334021125  0.193761485978186  1.0000
  C   C1        1.0  0.38923436539026574  0.9973439891045499  0.7945758255360431  1.0000
  C   C2        1.0  0.6107689248594497  0.49734396568052835  0.7054220596359713  1.0000
  C   C3        1.0  0.6107677482598814  0.0026553203541724  0.2054253721157195  1.0000
  C   C4        1.0  0.3892332119981319  0.5026575030857786  0.2945785247727315  1.0000
  C   C5        1.0  0.4142552298800767  0.13258028033789063  0.8329208853129941  1.0000
  C   C6        1.0  0.5857494030231152  0.6325780932050834  0.6670753181747814  1.0000
  C   C7        1.0  0.5857433149974227  0.8674201087655078  0.1670800320537609  1.0000
  C   C8        1.0  0.41425280342959075  0.36742121625414365  0.3329234265032852  1.0000
  C   C9        1.0  0.2984498604259614  0.22316077901332684  0.7883167699395204  1.0000
  C   C10       1.0  0.7015552497640485  0.7231591713896464  0.7116819168771755  1.0000
  C   C11       1.0  0.7015510868362042  0.7768396100962321  0.2116837210406004  1.0000
  C   C12       1.0  0.2984493126686516  0.27683905842176426  0.28831762790092347  1.0000
  C   C13       1.0  0.53408493136331  0.17148589972931205  0.9016637733614276  1.0000
  C   C14       1.0  0.4659187336027202  0.6714820382981089  0.5983329629790575  1.0000
  C   C15       1.0  0.46591361350738936  0.8285123300666299  0.0983371440049652  1.0000
  C   C16       1.0  0.5340834264385206  0.3285140321996849  0.40166700818531353  1.0000
  C   C17       1.0  0.5535900782985904  0.3149039084606713  0.9296828440028548  1.0000
  C   C18       1.0  0.4464132533054723  0.8148999539647619  0.5703150734579907  1.0000
  C   C19       1.0  0.44640970257560036  0.6850975602997237  0.0703169403056307  1.0000
  C   C20       1.0  0.5535865739564089  0.18509719618097623  0.42968348436292564  1.0000
  C   C21       1.0  0.6712956758338038  0.34801394166984073  0.9945236161046864  1.0000
  C   C22       1.0  0.3287078409629771  0.8480126414394746  0.5054749256957791  1.0000
  C   C23       1.0  0.3287053178398338  0.6519896864011586  0.0054756483891296075  1.0000
  C   C24       1.0  0.6712931294896408  0.15198450870902752  0.49452495204037206  1.0000
  C   C25       1.0  0.7522553344536077  0.10976167077848233  0.006891830428337194  1.0000
  C   C26       1.0  0.24774650869068887  0.6097587708146007  0.4931065831616834  1.0000
  C   C27       1.0  0.24774435362142103  0.8902408776351365  0.9931104068540223  1.0000
  C   C28       1.0  0.7522507769860739  0.3902394589779448  0.5068960805065785  1.0000
  C   C29       1.0  0.6369472314492911  0.06816977312135458  0.9428932032448857  1.0000
  C   C30       1.0  0.36305576007593743  0.5681664769598598  0.5571041117160506  1.0000
  C   C31       1.0  0.3630500542342644  0.9318306159786475  0.05710946042374589  1.0000
  C   C32       1.0  0.6369463535708065  0.4318317528451345  0.44289708593552746  1.0000
  C   C33       1.0  0.931537224635754  0.8685232715335334  0.5610828391205516  1.0000
  C   C34       1.0  0.06845939971768898  0.3685301532035155  0.9389120827668337  1.0000
  C   C35       1.0  0.06846138984026598  0.1314760379165136  0.438916238515752  1.0000
  C   C36       1.0  0.9315416635578729  0.6314734748678603  0.0610853419967157  1.0000
  C   C37       1.0  0.11150532164943168  0.5275416898463376  0.7031473331542274  1.0000
  C   C38       1.0  0.8885006581255369  0.02753334278772001  0.796858833883789  1.0000
  C   C39       1.0  0.8884861088596098  0.47245330097045  0.29685241039782545  1.0000
  C   C40       1.0  0.1114990995514091  0.9724692056262827  0.20314156366830363  1.0000
  S   S1        1.0  0.8243117447473478  0.7639844540778001  0.4958657842578447  1.0000
  S   S2        1.0  0.1756923514445035  0.2639876591984773  0.004130321470689996  1.0000
  S   S3        1.0  0.1756892489262967  0.2360191739931921  0.5041334802359714  1.0000
  S   S4        1.0  0.8243074758309702  0.7360138095621734  0.995868236350951  1.0000
  S   S5        1.0  0.2214416253035623  0.6428241492532365  0.7610476577531173  1.0000
  S   S6        1.0  0.7785674128138138  0.14281741481775612  0.7389599612619975  1.0000
  S   S7        1.0  0.7785510179981401  0.35717084156669177  0.2389515659839034  1.0000
  S   S8        1.0  0.2214347240539567  0.8571872929097282  0.2610406231472382  1.0000
  N   N1        1.0  0.21172144290838457  0.14893653053376707  0.7280130318161824  1.0000
  N   N2        1.0  0.7882807745516232  0.6489353509458341  0.7719866697567852  1.0000
  N   N3        1.0  0.7882807171498385  0.8510649382326676  0.271986939349091  1.0000
  N   N4        1.0  0.21172259829246087  0.351063958516292  0.228012781593101  1.0000
  N   N5        1.0  0.2687777521712533  0.0128344466586441  0.7327690758001212  1.0000
  N   N6        1.0  0.7312213455265065  0.5128351370368807  0.7672273270890315  1.0000
  N   N7        1.0  0.7312244542814597  0.9871648628005901  0.26722966887794547  1.0000
  N   N8        1.0  0.26877733855482694  0.4871652520672781  0.2327699108171828  1.0000
  N   N9        1.0  0.7698978771324578  0.247581670419649  0.03286406338243351  1.0000
  N   N10       1.0  0.23010483340754456  0.7475776067667611  0.4671343963933198  1.0000
  N   N11       1.0  0.23010307013990428  0.7524219576510945  0.9671364275982341  1.0000
  N   N12       1.0  0.7698925450615874  0.25241738406511155  0.5328658143007132  1.0000
  N   N13       1.0  0.0090615051867289  0.945620071109296  0.6088755078894367  1.0000
  N   N14       1.0  0.9909378211419477  0.44561762280422823  0.8911239193936495  1.0000
  N   N15       1.0  0.9909418444669029  0.05438247731387949  0.391124556704419  1.0000
  N   N16       1.0  0.009064385314161401  0.5543827663087342  0.1088748252845946  1.0000
  N   N17       1.0  0.0332712516573608  0.44219054956909076  0.6617837092466415  1.0000
  N   N18       1.0  0.9667361018063547  0.942182705964548  0.8382237298060958  1.0000
  N   N19       1.0  0.9667225348418784  0.5578066005610579  0.33821683440598355  1.0000
  N   N20       1.0  0.0332624894792133  0.0578198424465555  0.16177596107417716  1.0000
