data_image0
_chemical_formula_structural       Cu2P2H36C44Br2N2
_chemical_formula_sum              "Cu2 P2 H36 C44 Br2 N2"
_cell_length_a       8.193299156012188
_cell_length_b       9.461648418176788
_cell_length_c       13.788047825823591
_cell_angle_alpha    87.09705846317642
_cell_angle_beta     73.11192313557014
_cell_angle_gamma    65.26133580299593

_space_group_name_H-M_alt    "P 1"
_space_group_IT_number       1

loop_
  _space_group_symop_operation_xyz
  'x, y, z'

loop_
  _atom_site_type_symbol
  _atom_site_label
  _atom_site_symmetry_multiplicity
  _atom_site_fract_x
  _atom_site_fract_y
  _atom_site_fract_z
  _atom_site_occupancy
  Cu  Cu1       1.0  0.8432795913435241  0.15219267399992017  0.0786186322654743  1.0000
  Cu  Cu2       1.0  0.1567233180291295  0.8478112104239061  0.921377926488134  1.0000
  P   P1        1.0  0.8600297974966082  0.16708905434898472  0.2332708484601086  1.0000
  P   P2        1.0  0.1399715756892661  0.8329078253694746  0.7667262382793538  1.0000
  H   H1        1.0  0.489321631822385  0.15045532956489183  0.0920022762974142  1.0000
  H   H2        1.0  0.5106813750116003  0.8495509086734361  0.9079985295767586  1.0000
  H   H3        1.0  0.17436471509795837  0.32907889326568096  0.07709916478293623  1.0000
  H   H4        1.0  0.8256350557324549  0.6709261717125373  0.9229007976570147  1.0000
  H   H5        1.0  0.8765753410234465  0.4044556812179323  0.9856775744382348  1.0000
  H   H6        1.0  0.12342196543160354  0.5955517191345977  0.014322730267437613  1.0000
  H   H7        1.0  0.6324153463827504  0.9982489097463725  0.2620590626596595  1.0000
  H   H8        1.0  0.3675804948357352  0.0017537926022726013  0.7379351444560244  1.0000
  H   H9        1.0  0.34909180158944497  0.010295175891649003  0.3970047703320532  1.0000
  H   H10       1.0  0.6509034470168233  0.9897086971837653  0.6029902217069748  1.0000
  H   H11       1.0  0.19422948572455573  0.21659400823754282  0.542072164352291  1.0000
  H   H12       1.0  0.8057701078572777  0.7834063805203543  0.45792655231080903  1.0000
  H   H13       1.0  0.32842830306644527  0.40268245831008204  0.5535503499138628  1.0000
  H   H14       1.0  0.6715811550864785  0.5973086015140368  0.44644989707209964  1.0000
  H   H15       1.0  0.6205451501712104  0.3847508933355783  0.4213141490780928  1.0000
  H   H16       1.0  0.3794630305981811  0.6152401635501833  0.5786855951732975  1.0000
  H   H17       1.0  0.7020892301228373  0.48256906200266064  0.18566620074076917  1.0000
  H   H18       1.0  0.2979103634589891  0.5174313267552363  0.814332515922331  1.0000
  H   H19       1.0  0.7663664758855548  0.713474905920002  0.20314030464528807  1.0000
  H   H20       1.0  0.23363371737811892  0.28652432467460187  0.7968605264801596  1.0000
  H   H21       1.0  0.012855105172121722  0.6916398140477825  0.2804286977126793  1.0000
  H   H22       1.0  0.9871455973816905  0.30835591713248794  0.7195729001402712  1.0000
  H   H23       1.0  0.18553339315879208  0.4413024718427039  0.34895631089342066  1.0000
  H   H24       1.0  0.814465435864463  0.5586944208442476  0.6510441194554633  1.0000
  H   H25       1.0  0.118175480355994  0.21323057997241787  0.33406077186609917  1.0000
  H   H26       1.0  0.8818220712837286  0.7867663097761692  0.6659391557482126  1.0000
  H   H27       1.0  0.8765360555473977  0.011511200779317202  0.4265007171291799  1.0000
  H   H28       1.0  0.12346158118180721  0.9884880207976966  0.5734983836807077  1.0000
  H   H29       1.0  0.12787827634853935  0.7802378162944663  0.4692890494967727  1.0000
  H   H30       1.0  0.8721183506374073  0.21976841981554426  0.530712142090252  1.0000
  H   H31       1.0  0.43465101367768705  0.6381036857704387  0.3374668670715976  1.0000
  H   H32       1.0  0.5653468109045503  0.3619002308721023  0.6625378285936991  1.0000
  H   H33       1.0  0.4892136025330912  0.7289900201322367  0.1625634820605057  1.0000
  H   H34       1.0  0.5107871886450183  0.27100804915819054  0.8374387386808737  1.0000
  H   H35       1.0  0.23552080968389064  0.9565883693560269  0.1192828167767459  1.0000
  H   H36       1.0  0.764481847955146  0.04340852586425829  0.8807176720829946  1.0000
  C   C1        1.0  0.5883251992400459  0.44563320319365834  0.005912141276915894  1.0000
  C   C2        1.0  0.4116752510594637  0.5543730260270863  0.9940869342816897  1.0000
  C   C3        1.0  0.46465639807127695  0.266099304391652  0.06531455002419052  1.0000
  C   C4        1.0  0.5353421804650864  0.7339080894766354  0.9346840828767712  1.0000
  C   C5        1.0  0.2872216609852742  0.3672931049532409  0.056091855286695094  1.0000
  C   C6        1.0  0.7127769210858973  0.6327142951967843  0.9439082273071195  1.0000
  C   C7        1.0  0.7405007170855598  0.48810424308366146  0.9791983386490061  1.0000
  C   C8        1.0  0.25950602443769094  0.5118996501552362  0.020799728308318798  1.0000
  C   C9        1.0  0.6452865623648093  0.19060603284979294  0.3331282795637804  1.0000
  C   C10       1.0  0.3547172769638393  0.8093885146352235  0.6668691897563904  1.0000
  C   C11       1.0  0.5663157567363727  0.08634962351970901  0.3264315093173664  1.0000
  C   C12       1.0  0.43367882300525207  0.9136531041583921  0.6735687186815866  1.0000
  C   C13       1.0  0.40604082049275547  0.0944708883839951  0.4018511979244296  1.0000
  C   C14       1.0  0.5939563087137144  0.9055318357482136  0.598147861004378  1.0000
  C   C15       1.0  0.32002506349171966  0.209031685409812  0.48316641630468377  1.0000
  C   C16       1.0  0.6799795474651374  0.7909663707096187  0.5168322387154165  1.0000
  C   C17       1.0  0.39601723293196767  0.3142611478409236  0.4895507646262019  1.0000
  C   C18       1.0  0.6039873833271088  0.6857369177011138  0.5104500649331811  1.0000
  C   C19       1.0  0.5589323931260352  0.30456080462064966  0.4152988259709148  1.0000
  C   C20       1.0  0.44107085359040343  0.6954349135911286  0.5846994282726145  1.0000
  C   C21       1.0  0.9044532413845869  0.33268549249737583  0.25942381133138787  1.0000
  C   C22       1.0  0.09554686148738502  0.6673113968461877  0.7405756720592082  1.0000
  C   C23       1.0  0.8052228006498439  0.47515029519919233  0.22339951962067783  1.0000
  C   C24       1.0  0.19477415484285387  0.5248477589944329  0.776599743224132  1.0000
  C   C25       1.0  0.8411537282877501  0.6043425877479294  0.23306748063372848  1.0000
  C   C26       1.0  0.1588439137436737  0.3956566432516908  0.7669337947154347  1.0000
  C   C27       1.0  0.9798988741901976  0.5920824851834325  0.2769260126632887  1.0000
  C   C28       1.0  0.020102507832717668  0.4079144102393641  0.7230746983083025  1.0000
  C   C29       1.0  0.07746712224717099  0.45189245102159253  0.3142797668423896  1.0000
  C   C30       1.0  0.9225310255395841  0.5481032742819637  0.6857208255414093  1.0000
  C   C31       1.0  0.03915297779622054  0.32287716506544223  0.30617628790538737  1.0000
  C   C32       1.0  0.9608464456066557  0.6771185600356019  0.6938240823665611  1.0000
  C   C33       1.0  0.04035131145765562  0.9997958812882428  0.2703516251862936  1.0000
  C   C34       1.0  0.9596481988021067  0.00020217878209650067  0.7296486431276606  1.0000
  C   C35       1.0  0.011039563089717317  0.949519500880001  0.36882185709283993  1.0000
  C   C36       1.0  0.9889556110315211  0.05048205921219309  0.6311783108291849  1.0000
  C   C37       1.0  0.15241218690218258  0.8196082583231501  0.39281504973345  1.0000
  C   C38       1.0  0.8475836702229668  0.1803944722933012  0.6071856810000683  1.0000
  C   C39       1.0  0.32460514381853034  0.7396226892432909  0.31884627534475385  1.0000
  C   C40       1.0  0.6753901295314507  0.26038122780426687  0.6811588645442583  1.0000
  C   C41       1.0  0.3550875250789786  0.7900185699363647  0.2208458888235683  1.0000
  C   C42       1.0  0.6449132660991311  0.2099794993540627  0.7791563319178112  1.0000
  C   C43       1.0  0.21359788560872062  0.9187432492835795  0.19628331137477065  1.0000
  C   C44       1.0  0.7864016246510346  0.08125481078675989  0.8037169569391835  1.0000
  Br  Br1       1.0  0.8444651150484429  0.889644312581737  0.048821142573856946  1.0000
  Br  Br2       1.0  0.1555389989901172  0.11035726493810222  0.9511818196437362  1.0000
  N   N1        1.0  0.6120338930376973  0.30203255874283036  0.04214670826917203  1.0000
  N   N2        1.0  0.38796468903347386  0.697974841407195  0.9578533743246426  1.0000
