data_image0
_chemical_formula_structural       Al2H16C26S2O10
_chemical_formula_sum              "Al2 H16 C26 S2 O10"
_cell_length_a       6.656300218116568
_cell_length_b       12.75728817175889
_cell_length_c       17.770260246748304
_cell_angle_alpha    85.2711549427894
_cell_angle_beta     78.8939122290957
_cell_angle_gamma    74.37300367694525

_space_group_name_H-M_alt    "P 1"
_space_group_IT_number       1

loop_
  _space_group_symop_operation_xyz
  'x, y, z'

loop_
  _atom_site_type_symbol
  _atom_site_label
  _atom_site_symmetry_multiplicity
  _atom_site_fract_x
  _atom_site_fract_y
  _atom_site_fract_z
  _atom_site_occupancy
  Al  Al1       1.0  0.49999236428555344  0.5000074964652867  0.5000368293583719  1.0000
  Al  Al2       1.0  0.9999973148949265  0.49999861703431503  0.5000452594836204  1.0000
  H   H1        1.0  0.2748901638896868  0.38652233125819185  0.5664149501859088  1.0000
  H   H2        1.0  0.7255179106044096  0.6131405743368391  0.4333264338973352  1.0000
  H   H3        1.0  0.7120379844945005  0.46464109019601113  0.2670715462394356  1.0000
  H   H4        1.0  0.7776325463447976  0.47003274107313336  0.1230031245067948  1.0000
  H   H5        1.0  0.11448587344063559  0.5010725332219083  0.12763031549994963  1.0000
  H   H6        1.0  0.05199268243769244  0.49655990142864687  0.27163283418892803  1.0000
  H   H7        1.0  0.8855077941556287  0.4991730427298151  0.872399801475538  1.0000
  H   H8        1.0  0.9479498095851754  0.50363785963836  0.7283928833655651  1.0000
  H   H9        1.0  0.287982010873762  0.535290925242748  0.7329967480491036  1.0000
  H   H10       1.0  0.2224468265295272  0.5299153121532713  0.877073513665465  1.0000
  H   H11       1.0  0.5485981959034092  0.800324398553926  0.4673119802835756  1.0000
  H   H12       1.0  0.5034838498329037  0.9176317844557362  0.4051540130315132  1.0000
  H   H13       1.0  0.458660456246065  0.7939973835497445  0.38071092472905127  1.0000
  H   H14       1.0  0.5413754736576167  0.20606187026449876  0.6191630450508754  1.0000
  H   H15       1.0  0.49667661886930864  0.08232239003903175  0.5948635320931217  1.0000
  H   H16       1.0  0.45123953002315187  0.1995215439010281  0.5326295310796709  1.0000
  C   C1        1.0  0.8585840397016753  0.3042809876055871  0.5000526949789335  1.0000
  C   C2        1.0  0.6628677947999935  0.5139509949081429  0.6374306694116427  1.0000
  C   C3        1.0  0.14143499788296054  0.6957019511587462  0.49996788622282656  1.0000
  C   C4        1.0  0.3371139550986373  0.4860699229403026  0.36262149865171983  1.0000
  C   C5        1.0  0.3778559936949151  0.4817330789096205  0.27733378235700473  1.0000
  C   C6        1.0  0.5831205874093399  0.4727729721967365  0.23559972763710144  1.0000
  C   C7        1.0  0.6192148971494545  0.4757386312379026  0.15597340426554504  1.0000
  C   C8        1.0  0.44974018224791495  0.4874968977757206  0.11605142681978012  1.0000
  C   C9        1.0  0.2445815825032868  0.49320769954937305  0.1584982448433294  1.0000
  C   C10       1.0  0.2097436164299111  0.49067924234294236  0.2381062662419495  1.0000
  C   C11       1.0  0.48462990402830297  0.49541829680455163  0.035003635335023396  1.0000
  C   C12       1.0  0.5154296360275978  0.5046952652943874  0.9650373216144956  1.0000
  C   C13       1.0  0.550299275839926  0.5126078046003499  0.8839858348439337  1.0000
  C   C14       1.0  0.7554268150616962  0.5069653977212597  0.8415381151165988  1.0000
  C   C15       1.0  0.7902401618202224  0.5094971667176367  0.7619300055108554  1.0000
  C   C16       1.0  0.6221236877319782  0.5183472250320166  0.7227170023679365  1.0000
  C   C17       1.0  0.416879457241379  0.527238906705584  0.7644572357366926  1.0000
  C   C18       1.0  0.38082535122858746  0.5242878007364594  0.8440826772566865  1.0000
  C   C19       1.0  0.21990658058962248  0.882377149350184  0.4692283447185162  1.0000
  C   C20       1.0  0.7800369263761624  0.11761568734695524  0.5306407143040346  1.0000
  C   C21       1.0  0.08893151557659713  0.8148109845219909  0.5001232649797132  1.0000
  C   C22       1.0  0.9110422892476394  0.18517645545929182  0.4997883540585732  1.0000
  C   C23       1.0  0.8945297554160588  0.007435165589058104  0.5191439674972004  1.0000
  C   C24       1.0  0.10537458241946496  0.9925501452967898  0.4806759951804268  1.0000
  C   C25       1.0  0.444755973815255  0.8468068553815871  0.4283052395881625  1.0000
  C   C26       1.0  0.5552361045555472  0.15316241790467444  0.5716285539697737  1.0000
  S   S1        1.0  0.8332251282507458  0.8844388261759732  0.541585283363645  1.0000
  S   S2        1.0  0.1667129623415917  0.1155556583722728  0.4582829523127216  1.0000
  O   O1        1.0  0.6622010005012201  0.3542411594273672  0.5155412957427927  1.0000
  O   O2        1.0  0.8565019463905729  0.4907189439480178  0.6040042918155565  1.0000
  O   O3        1.0  0.9878059160401731  0.6504934498956845  0.5144054440708743  1.0000
  O   O4        1.0  0.49728941299478197  0.4695105743366668  0.39559926335032713  1.0000
  O   O5        1.0  0.3378209211306853  0.6457544753826526  0.48450877698974887  1.0000
  O   O6        1.0  0.14345567720485525  0.5092889635893273  0.3960531397407366  1.0000
  O   O7        1.0  0.012241887219893529  0.3494749314091834  0.4856785638879941  1.0000
  O   O8        1.0  0.502693233644692  0.5305208376414258  0.6044601492232005  1.0000
  O   O9        1.0  0.255570453932947  0.45347557212900114  0.5356185753347732  1.0000
  O   O10       1.0  0.7444480943374145  0.5464961932677853  0.46445948531870573  1.0000
