data_image0
_chemical_formula_structural       Zn4H36C52S4N12O16
_chemical_formula_sum              "Zn4 H36 C52 S4 N12 O16"
_cell_length_a       7.920106272342423
_cell_length_b       13.574980115
_cell_length_c       13.6988
_cell_angle_alpha    90.0
_cell_angle_beta     98.40901581218117
_cell_angle_gamma    90.0

_space_group_name_H-M_alt    "P 1"
_space_group_IT_number       1

loop_
  _space_group_symop_operation_xyz
  'x, y, z'

loop_
  _atom_site_type_symbol
  _atom_site_label
  _atom_site_symmetry_multiplicity
  _atom_site_fract_x
  _atom_site_fract_y
  _atom_site_fract_z
  _atom_site_occupancy
  Zn  Zn1       1.0  0.4422345570377502  0.5758255212000378  0.69037416139075  1.0000
  Zn  Zn2       1.0  0.0577603470203769  0.07582699873442779  0.309624166765559  1.0000
  Zn  Zn3       1.0  0.5577565274092251  0.4241722603805087  0.30962333282587196  1.0000
  Zn  Zn4       1.0  0.9422473297260439  0.9241737294434316  0.6903761903027502  1.0000
  H   H1        1.0  0.3427011816750891  0.5741673235592799  0.0662551040125265  1.0000
  H   H2        1.0  0.1573013803673931  0.07416953774300339  0.9337438716221413  1.0000
  H   H3        1.0  0.6573001134176977  0.4258304580212666  0.9337461734723717  1.0000
  H   H4        1.0  0.8426986383946726  0.9258319270841895  0.0662521880130598  1.0000
  H   H5        1.0  0.25582900711769707  0.6888569943220162  0.19600751946140346  1.0000
  H   H6        1.0  0.2441710022633359  0.1888584718564061  0.8039912403471448  1.0000
  H   H7        1.0  0.7441722879750898  0.31114299720651667  0.8039930280325436  1.0000
  H   H8        1.0  0.7558277401680016  0.8111422563214531  0.1960047113749965  1.0000
  H   H9        1.0  0.1983226499118587  0.924517008030989  0.0030668707855312995  1.0000
  H   H10       1.0  0.3016786357998953  0.4245155389680662  0.9969305369541814  1.0000
  H   H11       1.0  0.8016811978423775  0.0754837201468703  0.9969338925345426  1.0000
  H   H12       1.0  0.6983290409465255  0.5754837159111403  0.0030669001503297938  1.0000
  H   H13       1.0  0.280541322641028  0.8185043297207102  0.8622631364759883  1.0000
  H   H14       1.0  0.2194637920629035  0.3185050706057665  0.137734595002911  1.0000
  H   H15       1.0  0.7194638014439363  0.1814941885091699  0.1377370047662012  1.0000
  H   H16       1.0  0.7805451610142384  0.6814949209227591  0.8622622200237159  1.0000
  H   H17       1.0  0.4858531596103149  0.7940269457993239  0.6625155314073369  1.0000
  H   H18       1.0  0.0141430207785405  0.2940269500350539  0.3374836346529833  1.0000
  H   H19       1.0  0.514148135482472  0.2059715724305491  0.33748209612281943  1.0000
  H   H20       1.0  0.985855721652797  0.7059723048441455  0.6625174270057954  1.0000
  H   H21       1.0  0.3788787761131118  0.9194348643066164  0.5341830853317333  1.0000
  H   H22       1.0  0.121121233267921  0.41943339524368634  0.4658156744768149  1.0000
  H   H23       1.0  0.6211289006333092  0.0805666005205765  0.4658150817637221  1.0000
  H   H24       1.0  0.8788762328326882  0.580565859635513  0.5341860092598552  1.0000
  H   H25       1.0  0.1788943435955588  0.6805549563782946  0.34408415919681085  1.0000
  H   H26       1.0  0.3210992841318402  0.1805534873153647  0.6559126010645357  1.0000
  H   H27       1.0  0.8211056751664998  0.3194450351502383  0.6559126304293342  1.0000
  H   H28       1.0  0.6788981819687692  0.8194450309145083  0.3440876226902319  1.0000
  H   H29       1.0  0.3015637660345263  0.5637135329240195  0.4780242790959122  1.0000
  H   H30       1.0  0.1984298616928726  0.0637135371597566  0.5219724811654345  1.0000
  H   H31       1.0  0.6984324237353547  0.4362857219551799  0.5219721867910536  1.0000
  H   H32       1.0  0.8015688807384649  0.9362871910181025  0.4780256605295463  1.0000
  H   H33       1.0  0.1865433936384946  0.8488513354997308  0.1569392507840348  1.0000
  H   H34       1.0  0.3134578920732595  0.3488542863327808  0.8430581569556779  1.0000
  H   H35       1.0  0.8134591777850204  0.1511464460808156  0.8430614046229792  1.0000
  H   H36       1.0  0.6865459556809839  0.6511471784944121  0.15693749642775856  1.0000
  C   C1        1.0  0.3608327359734318  0.6209578156719074  0.8741769977264867  1.0000
  C   C2        1.0  0.1391685497383222  0.1209585565569711  0.1258204100132261  1.0000
  C   C3        1.0  0.6391672827886268  0.37904143920729166  0.1258219818725124  1.0000
  C   C4        1.0  0.8608378506773704  0.8790399616729017  0.87417545919633  1.0000
  C   C5        1.0  0.3120871128731721  0.6879914313598263  0.953906722369453  1.0000
  C   C6        1.0  0.1879167255000382  0.1879899622968964  0.0460916311873305  1.0000
  C   C7        1.0  0.687916734881064  0.3120092968180401  0.04609404095062079  1.0000
  C   C8        1.0  0.8120909512463828  0.8120085559329764  0.9539043459352854  1.0000
  C   C9        1.0  0.3075293358494235  0.6502646725976433  0.04855669639264448  1.0000
  C   C10       1.0  0.1924719498623304  0.1502668867813668  0.9514414413380194  1.0000
  C   C11       1.0  0.6924732355740915  0.3497338456322296  0.9514432290234183  1.0000
  C   C12       1.0  0.8075306215611847  0.8497345780458261  0.0485548341233013  1.0000
  C   C13       1.0  0.2627479959851655  0.712017985891542  0.1209077846525162  1.0000
  C   C14       1.0  0.23725456605731676  0.2120202000752585  0.8790904609912005  1.0000
  C   C15       1.0  0.7372545754383426  0.2879797956890044  0.8790921407635466  1.0000
  C   C16       1.0  0.7627492816969266  0.7879812647519273  0.12090592238318007  1.0000
  C   C17       1.0  0.2319667278581008  0.8468668022059942  0.0101753361856609  1.0000
  C   C18       1.0  0.2680345578536532  0.346866069792398  0.9898242615268913  1.0000
  C   C19       1.0  0.7680396725575918  0.1531331893225385  0.9898278329333721  1.0000
  C   C20       1.0  0.7319680135698619  0.6531339217361347  0.010172743925380685  1.0000
  C   C21       1.0  0.2754143021133331  0.7878435113273098  0.9351302307851411  1.0000
  C   C22       1.0  0.2245882599291491  0.2878405689657271  0.064870204831422  1.0000
  C   C23       1.0  0.7245882693101822  0.21215942679854288  0.0648726145947123  1.0000
  C   C24       1.0  0.7754130351636377  0.7121594225628058  0.9351266927077901  1.0000
  C   C25       1.0  0.4199944941313305  0.7719149428750356  0.5903275135748912  1.0000
  C   C26       1.0  0.08000168625752482  0.2719149471107727  0.40967165248542153  1.0000
  C   C27       1.0  0.5800080772921845  0.22808578530282375  0.40966949187738066  1.0000
  C   C28       1.0  0.919999608835262  0.7280872543657466  0.5903296249994767  1.0000
  C   C29       1.0  0.3597287098951513  0.8412527976657032  0.519091974826047  1.0000
  C   C30       1.0  0.14026619416297595  0.3412513286027732  0.48090854330310856  1.0000
  C   C31       1.0  0.6402738615283639  0.1587486671614897  0.48090649060812035  1.0000
  C   C32       1.0  0.8597312719376333  0.6587486629257596  0.5190938704245056  1.0000
  C   C33       1.0  0.2703702430828515  0.8092210748700595  0.429031728703599  1.0000
  C   C34       1.0  0.2296259373059968  0.309220342456463  0.5709681673476652  1.0000
  C   C35       1.0  0.7296348810021132  0.1907789166584735  0.5709669525566881  1.0000
  C   C36       1.0  0.7703702524638842  0.6907789124227364  0.42903340847594507  1.0000
  C   C37       1.0  0.1911522238913008  0.8813346243343643  0.35175909391104904  1.0000
  C   C38       1.0  0.3088439564975545  0.38133610186875433  0.6482415321311592  1.0000
  C   C39       1.0  0.8088516238629424  0.1186646305448349  0.6482416694090176  1.0000
  C   C40       1.0  0.6911522332723339  0.6186653629584312  0.35176150367433934  1.0000
  C   C41       1.0  0.250182519984385  0.7080702821346277  0.4126279600688676  1.0000
  C   C42       1.0  0.249811107743021  0.2080710230196914  0.5873709901653257  1.0000
  C   C43       1.0  0.7498162224469525  0.2919282360952451  0.5873709116170645  1.0000
  C   C44       1.0  0.7501850820268672  0.7919274952101815  0.41262912567638216  1.0000
  C   C45       1.0  0.315999066549395  0.6431235939972524  0.4867060132897194  1.0000
  C   C46       1.0  0.1839932848472756  0.1431228615836559  0.5132913690495187  1.0000
  C   C47       1.0  0.6839945705590369  0.3568763975312805  0.5132916967530221  1.0000
  C   C48       1.0  0.8160054575840618  0.8568763932955503  0.4867082326273646  1.0000
  C   C49       1.0  0.8180360997696638  0.5167329852843778  0.7541485881750063  1.0000
  C   C50       1.0  0.6819486124047175  0.016728569624135  0.24586391607666513  1.0000
  C   C51       1.0  0.1819422213700506  0.48326774289348856  0.2458609667480758  1.0000
  C   C52       1.0  0.3180526826880765  0.983268475307078  0.7541519612271941  1.0000
  S   S1        1.0  0.0086701146240031  0.4884139751095304  0.8024178725275561  1.0000
  S   S2        1.0  0.4913145787883054  0.9884095509778204  0.19759565212512337  1.0000
  S   S3        1.0  0.9913145881693382  0.5115896996656488  0.1975944119336717  1.0000
  S   S4        1.0  0.5086918216273872  0.0115904405507123  0.8024199268400309  1.0000
  N   N1        1.0  0.2250681602822482  0.8070936316063991  0.09970652867485087  1.0000
  N   N2        1.0  0.2749356780909622  0.3070943724914627  0.9002925548728767  1.0000
  N   N3        1.0  0.7749369638027163  0.1929056232728072  0.9002958025401782  1.0000
  N   N4        1.0  0.7250707223247304  0.6929056190370702  0.09970404432762339  1.0000
  N   N5        1.0  0.3967142216829416  0.6744996988896119  0.5747331683156887  1.0000
  N   N6        1.0  0.1032781297137291  0.1744989664760155  0.4252649440145007  1.0000
  N   N7        1.0  0.6032819680869395  0.325500292638921  0.42526402756222836  1.0000
  N   N8        1.0  0.8967218890483297  0.8255010250525174  0.5747362255573378  1.0000
  N   N9        1.0  0.6776001536200837  0.5386453562403588  0.7175354129943301  1.0000
  N   N10       1.0  0.8223858348850186  0.0386431505281095  0.2824611393695449  1.0000
  N   N11       1.0  0.3223819965118082  0.4613590551841469  0.2824642457946567  1.0000
  N   N12       1.0  0.1776167365384964  0.9613597875977431  0.717543165992204  1.0000
  O   O1        1.0  0.361433887745541  0.662694893384014  0.7895123752495082  1.0000
  O   O2        1.0  0.1385635689740425  0.1626956342690775  0.2104839787600739  1.0000
  O   O3        1.0  0.6385610256936189  0.33730509814451887  0.2104869026881957  1.0000
  O   O4        1.0  0.8614390024494725  0.8373043572594554  0.7895101067284002  1.0000
  O   O5        1.0  0.3986593497098809  0.5333893632742175  0.8946329331019526  1.0000
  O   O6        1.0  0.1013342780175179  0.033390104159281  0.105363827159394  1.0000
  O   O7        1.0  0.6013381163907285  0.466609891604989  0.1053651006799683  1.0000
  O   O8        1.0  0.8986644644138195  0.9666098873692518  0.8946313945717961  1.0000
  O   O9        1.0  0.2016321754852513  0.9720132102013039  0.37893141210059156  1.0000
  O   O10       1.0  0.2983563469192418  0.47201542438502736  0.621069296454209  1.0000
  O   O11       1.0  0.7983729485997131  0.0279860446779026  0.6210701891234861  1.0000
  O   O12       1.0  0.7016296322048277  0.5279860404421655  0.3789306860739714  1.0000
  O   O13       1.0  0.1197938493125292  0.8489596229511702  0.2703746569709651  1.0000
  O   O14       1.0  0.3802087127299529  0.3489596271869004  0.7296243186637028  1.0000
  O   O15       1.0  0.880209998441714  0.151041105226696  0.7296253763581575  1.0000
  O   O16       1.0  0.6197951350242832  0.6510403643416325  0.2703757146654198  1.0000
