data_image0
_chemical_formula_structural       Cs4H56C24Cl4O16
_chemical_formula_sum              "Cs4 H56 C24 Cl4 O16"
_cell_length_a       8.777405502
_cell_length_b       8.719211381163637
_cell_length_c       16.0386
_cell_angle_alpha    90.0
_cell_angle_beta     90.0
_cell_angle_gamma    107.61658061785718

_space_group_name_H-M_alt    "P 1"
_space_group_IT_number       1

loop_
  _space_group_symop_operation_xyz
  'x, y, z'

loop_
  _atom_site_type_symbol
  _atom_site_label
  _atom_site_symmetry_multiplicity
  _atom_site_fract_x
  _atom_site_fract_y
  _atom_site_fract_z
  _atom_site_occupancy
  Cs  Cs1       1.0  0.1034823350748724  0.1034269775302121  0.5967185415185838  1.0000
  Cs  Cs2       1.0  0.8964753810249276  0.8966118146558981  0.0967179180227689  1.0000
  Cs  Cs3       1.0  0.10350295025172333  0.1034197575808733  0.9032789644981492  1.0000
  Cs  Cs4       1.0  0.8964693228141982  0.8966106113310062  0.40328270547304623  1.0000
  H   H1        1.0  0.2577168268589602  0.4336710700285309  0.3250957066078115  1.0000
  H   H2        1.0  0.7422476331521892  0.5663484689593545  0.8251038120534204  1.0000
  H   H3        1.0  0.4322215923092543  0.2593814931128975  0.17512750489444073  1.0000
  H   H4        1.0  0.5677596331002661  0.7406597057229902  0.6751250109111737  1.0000
  H   H5        1.0  0.7422517205628765  0.5663544855838012  0.6748993054256616  1.0000
  H   H6        1.0  0.2577114921814427  0.433672273353416  0.1749074108712705  1.0000
  H   H7        1.0  0.567758186033835  0.7406548924234286  0.8248762360804562  1.0000
  H   H8        1.0  0.432219421709604  0.2593742731635658  0.3248700011222923  1.0000
  H   H9        1.0  0.2584087307748959  0.4263849378259295  0.435914606012993  1.0000
  H   H10       1.0  0.7415716792798078  0.5736346011619489  0.9359195939795273  1.0000
  H   H11       1.0  0.4253855740644923  0.2599338192369274  0.0643235693888471  1.0000
  H   H12       1.0  0.5745872227350475  0.74008692307585  0.5643192049181351  1.0000
  H   H13       1.0  0.7415655670800732  0.5736370078117259  0.564082276507925  1.0000
  H   H14       1.0  0.25841240242997543  0.4263933611001533  0.064088511466089  1.0000
  H   H15       1.0  0.5745857216796112  0.740085719750958  0.9356814185776798  1.0000
  H   H16       1.0  0.4253856280534904  0.259930209262258  0.4356739366278859  1.0000
  H   H17       1.0  0.014315056142578435  0.48308079329373743  0.3722600476350806  1.0000
  H   H18       1.0  0.9856582104015601  0.5169339323945934  0.8722631651141626  1.0000
  H   H19       1.0  0.48223049129313006  0.0142004370145088  0.1276838377414506  1.0000
  H   H20       1.0  0.5177351619958516  0.9858154919987072  0.6276744853042047  1.0000
  H   H21       1.0  0.9856522061798287  0.5169291190950318  0.6277368348858374  1.0000
  H   H22       1.0  0.014312000042714624  0.48308199661862966  0.12773995236491945  1.0000
  H   H23       1.0  0.5177295735297279  0.9858082720493755  0.8723261381916103  1.0000
  H   H24       1.0  0.48222904422669904  0.0141956237149543  0.3723149152669194  1.0000
  H   H25       1.0  0.959870360456641  0.2897726665082415  0.3259642362799724  1.0000
  H   H26       1.0  0.04010187477668133  0.7102348392307576  0.8259648597757947  1.0000
  H   H27       1.0  0.2901395314217011  0.9590956628395586  0.1740239172995146  1.0000
  H   H28       1.0  0.7098252363670525  0.0409286894478811  0.6740164353497207  1.0000
  H   H29       1.0  0.04010379158771824  0.7102336359058652  0.6740326462409456  1.0000
  H   H30       1.0  0.9598692211678216  0.2897726665082415  0.1740338932325756  1.0000
  H   H31       1.0  0.7098195939119308  0.04092507947321879  0.8259835646502793  1.0000
  H   H32       1.0  0.29013694506645044  0.9590908495400043  0.3259760827004854  1.0000
  H   H33       1.0  0.7198507008602277  0.2166911360275918  0.4059649844749558  1.0000
  H   H34       1.0  0.2801232730607309  0.7833524694580729  0.9059631139875037  1.0000
  H   H35       1.0  0.21645468897582992  0.7184354983489527  0.0937213971294284  1.0000
  H   H36       1.0  0.7835141662236182  0.2815948705629267  0.5937207736336065  1.0000
  H   H37       1.0  0.28011679909439385  0.7833536727829582  0.5940368860124963  1.0000
  H   H38       1.0  0.719853341204484  0.2166923393524769  0.0940331450375993  1.0000
  H   H39       1.0  0.7835191391345263  0.2815924639131495  0.9062767323831267  1.0000
  H   H40       1.0  0.21645966188673782  0.7184330916991754  0.4062792263663937  1.0000
  H   H41       1.0  0.7775316201242077  0.4108030838389069  0.4535875949272352  1.0000
  H   H42       1.0  0.22246783390651362  0.5892381149969736  0.9535863479356053  1.0000
  H   H43       1.0  0.4089678041741537  0.7755007745576705  0.0457184542291742  1.0000
  H   H44       1.0  0.5910099493798882  0.2245440342528866  0.5457140897584551  1.0000
  H   H45       1.0  0.222468195673116  0.5892393183218658  0.5464155225518468  1.0000
  H   H46       1.0  0.7775297033131637  0.4108042871637991  0.04641115808112772  1.0000
  H   H47       1.0  0.591014398557185  0.22455125420221825  0.9542834162582778  1.0000
  H   H48       1.0  0.4089670806409345  0.7754983679078931  0.4542859102415449  1.0000
  H   H49       1.0  0.41804952444447  0.3100198110897238  0.675033980521988  1.0000
  H   H50       1.0  0.5820278705679414  0.6897614695701506  0.1750352275136251  1.0000
  H   H51       1.0  0.31031240113666314  0.418745028105981  0.8248793535595382  1.0000
  H   H52       1.0  0.6899640186931038  0.5811866681650102  0.3248880825009692  1.0000
  H   H53       1.0  0.5820144367342479  0.6897963659919242  0.3249685134612719  1.0000
  H   H54       1.0  0.41808306587780214  0.3099608481701636  0.8249641489905599  1.0000
  H   H55       1.0  0.6900145631570068  0.5811842615152258  0.17512064644046185  1.0000
  H   H56       1.0  0.3102231208527115  0.4187474347557654  0.6751193994488318  1.0000
  C   C1        1.0  0.1961028442248534  0.3649395590214368  0.3796603194792567  1.0000
  C   C2        1.0  0.8038700605526827  0.6350739633420017  0.8796678014290507  1.0000
  C   C3        1.0  0.36435129891179935  0.19703001066702083  0.1205335877196276  1.0000
  C   C4        1.0  0.6356266705982492  0.8030003582448584  0.6205273527614636  1.0000
  C   C5        1.0  0.8038688672748578  0.6350775733166641  0.6203340690583943  1.0000
  C   C6        1.0  0.1961020127136379  0.3649443723209912  0.1203409275123732  1.0000
  C   C7        1.0  0.6356233607097721  0.8029931382955267  0.8794732707343513  1.0000
  C   C8        1.0  0.3643502136119778  0.1970264006923585  0.3794651652887424  1.0000
  C   C9        1.0  0.023526934972530014  0.3604607837847666  0.3797045876822196  1.0000
  C   C10       1.0  0.9764463315716159  0.6395539419035643  0.8797033406905825  1.0000
  C   C11       1.0  0.3603798135417692  0.0234648353345435  0.1203633733617622  1.0000
  C   C12       1.0  0.6395917899799386  0.9765595169528963  0.6203546444203383  1.0000
  C   C13       1.0  0.9764444687495696  0.6395515352537868  0.6202947888219654  1.0000
  C   C14       1.0  0.023526880983531805  0.3604643937594289  0.12029541231778043  1.0000
  C   C15       1.0  0.6395872868136365  0.9765559069782341  0.8796453555796617  1.0000
  C   C16       1.0  0.3603790900085571  0.0234624286847591  0.3796353796466008  1.0000
  C   C17       1.0  0.7860411070667864  0.2872829873129987  0.4590525357574862  1.0000
  C   C18       1.0  0.21393416811000782  0.712749788248665  0.9590519122616714  1.0000
  C   C19       1.0  0.2865132982288046  0.7849432649612635  0.040595812602099116  1.0000
  C   C20       1.0  0.7134588668591206  0.21509432389995448  0.5405933186188323  1.0000
  C   C21       1.0  0.21393416811000782  0.712749788248665  0.5409474642425138  1.0000
  C   C22       1.0  0.7860437474110428  0.2872841906378909  0.0409455937550689  1.0000
  C   C23       1.0  0.7134600061479405  0.21509432389995448  0.9594041873979009  1.0000
  C   C24       1.0  0.28651449150662966  0.7849396549866015  0.4594048108937159  1.0000
  Cl  Cl1       1.0  0.07720480032050153  0.3619661432208403  0.7500143404037729  1.0000
  Cl  Cl2       1.0  0.9230719600026803  0.6381713216061584  0.250004987966534  1.0000
  Cl  Cl3       1.0  0.3615717120925623  0.0761668554959201  0.7499862830920421  1.0000
  Cl  Cl4       1.0  0.6382624473141335  0.9235253791221749  0.2499956355292881  1.0000
  O   O1        1.0  0.2035574839474137  0.2035243550926893  0.3771707006846016  1.0000
  O   O2        1.0  0.7964148970965114  0.7964987938698584  0.8771794296260254  1.0000
  O   O3        1.0  0.203557791725018  0.20352916839224375  0.1228286758195836  1.0000
  O   O4        1.0  0.7964167599185572  0.7965012005196357  0.6228218173656046  1.0000
  O   O5        1.0  0.9496106216368505  0.2896499273695667  0.4560547678725086  1.0000
  O   O6        1.0  0.05036756382919802  0.7103660016436493  0.9560566383599536  1.0000
  O   O7        1.0  0.28989759320018044  0.9497530484017458  0.0439177983115755  1.0000
  O   O8        1.0  0.7100738483545258  0.05028213380969499  0.5439115633534115  1.0000
  O   O9        1.0  0.05036083607425473  0.7103587816943175  0.5439421146484094  1.0000
  O   O10       1.0  0.9496117069366719  0.2896535373442361  0.0439427381442243  1.0000
  O   O11       1.0  0.7100685676660136  0.050279727159917784  0.9560884366465885  1.0000
  O   O12       1.0  0.2898965079003517  0.9497494384270766  0.45608157819260964  1.0000
  O   O13       1.0  0.3978058196845852  0.3983402479640432  0.6426926290324602  1.0000
  O   O14       1.0  0.6023555047778615  0.6014663025184959  0.1426963700073571  1.0000
  O   O15       1.0  0.397895477891538  0.3983125714916014  0.8572980185302939  1.0000
  O   O16       1.0  0.6023305700779247  0.6015084188896083  0.3573129824298888  1.0000
