data_image0
_chemical_formula_structural       Cd3H50C70N14Cl2O8
_chemical_formula_sum              "Cd3 H50 C70 N14 Cl2 O8"
_cell_length_a       9.529416824630445
_cell_length_b       13.62726004580554
_cell_length_c       15.712
_cell_angle_alpha    109.47542151030218
_cell_angle_beta     94.62716250197275
_cell_angle_gamma    90.25672042337219

_space_group_name_H-M_alt    "P 1"
_space_group_IT_number       1

loop_
  _space_group_symop_operation_xyz
  'x, y, z'

loop_
  _atom_site_type_symbol
  _atom_site_label
  _atom_site_symmetry_multiplicity
  _atom_site_fract_x
  _atom_site_fract_y
  _atom_site_fract_z
  _atom_site_occupancy
  Cd  Cd1       1.0  0.5000034321520134  0.500008285562771  7.464535691867216e-06  1.0000
  Cd  Cd2       1.0  0.8078573951111423  0.5853677279247549  0.838119875209152  1.0000
  Cd  Cd3       1.0  0.19214136087121864  0.4146324885792865  0.1618682884437987  1.0000
  H   H1        1.0  0.352875232021752  0.0474042598159912  0.7834933969611269  1.0000
  H   H2        1.0  0.6471278055602028  0.9525975142710479  0.21651006507214282  1.0000
  H   H3        1.0  0.22616716068591103  0.2046656274192529  0.8663019661045295  1.0000
  H   H4        1.0  0.7738390705093892  0.7953369254592815  0.13370251384042578  1.0000
  H   H5        1.0  0.9546675431108727  0.1687835878463702  0.6235003514731686  1.0000
  H   H6        1.0  0.045331984303381  0.8312103983256662  0.37650959720944843  1.0000
  H   H7        1.0  0.0899850991064  0.0166458895218753  0.5394663013504442  1.0000
  H   H8        1.0  0.9100077948722146  0.9833410875266608  0.4605406595233531  1.0000
  H   H9        1.0  0.0036005890159601  0.2559342506584485  0.9289530237364616  1.0000
  H   H10       1.0  0.9964027299476471  0.7440737537605884  0.07105161720251371  1.0000
  H   H11       1.0  0.8663685810988612  0.4432390579587846  0.9739478151923818  1.0000
  H   H12       1.0  0.13363382574203092  0.5567720616262477  0.026048135072635106  1.0000
  H   H13       1.0  0.9652229050783419  0.3616115844649954  0.70260306583139  1.0000
  H   H14       1.0  0.034786238348644395  0.6383855168730364  0.2973936156450065  1.0000
  H   H15       1.0  0.34256982558412125  0.04175256990019699  0.5085627722787862  1.0000
  H   H16       1.0  0.6574248598348832  0.9582507617698469  0.4914394585885944  1.0000
  H   H17       1.0  0.3843972159306973  0.9755843241862578  0.3473306310364492  1.0000
  H   H18       1.0  0.6155952935158099  0.0244174499007812  0.6526710429669647  1.0000
  H   H19       1.0  0.3299539404346206  0.6607376117157102  0.3458403073228666  1.0000
  H   H20       1.0  0.670037375507512  0.3392610472053263  0.654162953312692  1.0000
  H   H21       1.0  0.2927477377415216  0.7260143576661449  0.5073062915579811  1.0000
  H   H22       1.0  0.7072427012505926  0.2739881952123966  0.49269550634218  1.0000
  H   H23       1.0  0.32681336618092166  0.9017992810978798  0.19538690263784275  1.0000
  H   H24       1.0  0.6731962696639613  0.0982087233211573  0.8046142286343283  1.0000
  H   H25       1.0  0.3949985558844276  0.7622515261630483  0.0315478964004896  1.0000
  H   H26       1.0  0.6050147284513301  0.2377440175919929  0.9684529924758891  1.0000
  H   H27       1.0  0.4472934767940515  0.6163363719238788  0.22938690213143784  1.0000
  H   H28       1.0  0.5526951027799214  0.3836716324951581  0.7706233822052369  1.0000
  H   H29       1.0  0.5254807070365004  0.8410582168436846  0.6665979052120079  1.0000
  H   H30       1.0  0.4745134156191926  0.1589326541623493  0.33339178454458107  1.0000
  H   H31       1.0  0.5296832971601121  0.7140061715270107  0.7492332994870026  1.0000
  H   H32       1.0  0.47031303664079616  0.2859870358535233  0.2507559011413747  1.0000
  H   H33       1.0  0.07751120952290341  0.7260758821946426  0.7529374025981923  1.0000
  H   H34       1.0  0.9224854760050718  0.2739251131008942  0.24706488698817  1.0000
  H   H35       1.0  0.07446647992863831  0.8532392946958254  0.6695284651098489  1.0000
  H   H36       1.0  0.9255343816808121  0.1467609218082089  0.3304712577784059  1.0000
  H   H37       1.0  0.10865242032871691  0.5501928310339039  0.7399587555132641  1.0000
  H   H38       1.0  0.891351247994308  0.4497995975551277  0.2600445808137337  1.0000
  H   H39       1.0  0.1996342956795729  0.4384346931950347  0.853979556301951  1.0000
  H   H40       1.0  0.800378287569707  0.561568638475002  0.1460324606520373  1.0000
  H   H41       1.0  0.5006468134717039  0.6770369390200699  0.88322919682345  1.0000
  H   H42       1.0  0.4993571010602623  0.3229609411094643  0.11676427173340899  1.0000
  H   H43       1.0  0.7529302550199121  0.9732502860606331  0.9298793919032631  1.0000
  H   H44       1.0  0.24705913115865744  0.026752266817908304  0.07013126487212419  1.0000
  H   H45       1.0  0.849190824009689  0.1535714534760686  0.022949201269540313  1.0000
  H   H46       1.0  0.15079642136907984  0.8464303206109706  0.9770643078431789  1.0000
  H   H47       1.0  0.40030360304436396  0.47887733579215563  0.634559399538375  1.0000
  H   H48       1.0  0.5997151212226511  0.5211221019203762  0.36542760654883466  1.0000
  H   H49       1.0  0.24390515654658884  0.45729468695152786  0.4919410565429558  1.0000
  H   H50       1.0  0.7561019164260117  0.5427031931780135  0.5080449290745932  1.0000
  C   C1        1.0  0.22851145816767374  0.0207555722675892  0.6560978054237623  1.0000
  C   C2        1.0  0.7714925267097072  0.9792438654449498  0.34390948255402515  1.0000
  C   C3        1.0  0.2663948607543603  0.0745583830479148  0.7483724100252045  1.0000
  C   C4        1.0  0.7336081768275946  0.9254433910391172  0.2516304155518582  1.0000
  C   C5        1.0  0.1938811816140031  0.1612511164579686  0.7953156021576432  1.0000
  C   C6        1.0  0.80612406711316  0.8387529940035634  0.20468737074741478  1.0000
  C   C7        1.0  0.0810371647191275  0.1946262261922271  0.7502937170784916  1.0000
  C   C8        1.0  0.9189679081445093  0.8053739903118142  0.2497081212253676  1.0000
  C   C9        1.0  0.044441409949548906  0.1438085232315558  0.6578747837645054  1.0000
  C   C10       1.0  0.9555591702782493  0.8561854629404806  0.34212885186774133  1.0000
  C   C11       1.0  0.11914157720717364  0.05785719932953981  0.6110091984865987  1.0000
  C   C12       1.0  0.8808528268301785  0.9421399020084991  0.3889969451247737  1.0000
  C   C13       1.0  0.975153639406095  0.3055144539255537  0.8894007173508669  1.0000
  C   C14       1.0  0.024845538648747802  0.6944951080764882  0.11060226201297498  1.0000
  C   C15       1.0  0.9078178671238248  0.3980387780879084  0.9109776641979508  1.0000
  C   C16       1.0  0.0921895575758498  0.6019668899566284  0.08901950100895559  1.0000
  C   C17       1.0  0.9544739411922691  0.3590065268973603  0.7699732919613567  1.0000
  C   C18       1.0  0.045528990871567  0.6409929108151787  0.23002312474908138  1.0000
  C   C19       1.0  0.31309871774040937  0.8893588656762219  0.5205380944588143  1.0000
  C   C20       1.0  0.6868958621604762  0.1106421296193147  0.47946472856027356  1.0000
  C   C21       1.0  0.3373879860327804  0.9580996762188363  0.47282467860129873  1.0000
  C   C22       1.0  0.6626098578268653  0.0419036554512004  0.5271789797137316  1.0000
  C   C23       1.0  0.36060190876543885  0.9205081893033622  0.38141072852195623  1.0000
  C   C24       1.0  0.6393895830402272  0.0794943635751792  0.6185943031710153  1.0000
  C   C25       1.0  0.358986644694042  0.8131307536522172  0.3348497370326271  1.0000
  C   C26       1.0  0.6409983895395258  0.1868686840603146  0.6651515320840744  1.0000
  C   C27       1.0  0.3337545735849048  0.7443081700021069  0.38141076577327476  1.0000
  C   C28       1.0  0.6662357247163797  0.2556912677104322  0.6185875786210886  1.0000
  C   C29       1.0  0.3115393461246327  0.7815172702910615  0.4728228337319321  1.0000
  C   C30       1.0  0.6884542864808268  0.2184860613789752  0.5271780727112798  1.0000
  C   C31       1.0  0.36477749504890505  0.8234193681592572  0.1782284684465764  1.0000
  C   C32       1.0  0.6352245248922089  0.1765831847192771  0.8217707138017116  1.0000
  C   C33       1.0  0.3972195307179547  0.7528468400085515  0.0974553865448939  1.0000
  C   C34       1.0  0.6027844541594263  0.2471525977039875  0.9025474462394028  1.0000
  C   C35       1.0  0.42559936792329733  0.6744318814524348  0.19704165905481824  1.0000
  C   C36       1.0  0.5743826133877477  0.3255698926346042  0.8029645914808583  1.0000
  C   C37       1.0  0.29959884199143977  0.8540500166473706  0.6622680499435843  1.0000
  C   C38       1.0  0.7003999139909212  0.1459501998566708  0.3377334792898096  1.0000
  C   C39       1.0  0.4275494646241569  0.8157747507948584  0.6855110431103383  1.0000
  C   C40       1.0  0.5724490803219595  0.1842207929601756  0.3144853058643591  1.0000
  C   C41       1.0  0.43004400692975514  0.7441485177445983  0.7314023223200363  1.0000
  C   C42       1.0  0.5699514499211419  0.2558485835934405  0.2685949624161168  1.0000
  C   C43       1.0  0.3031333887671437  0.7110872609848613  0.7538213619605543  1.0000
  C   C44       1.0  0.6968643495743763  0.2889137343106754  0.24618034268134178  1.0000
  C   C45       1.0  0.1746713669534401  0.7502776068499202  0.7323441784051069  1.0000
  C   C46       1.0  0.8253252834018312  0.2497226096541212  0.26765788426101267  1.0000
  C   C47       1.0  0.173572400189471  0.8215674019721604  0.6863710695232612  1.0000
  C   C48       1.0  0.8264263557928898  0.17843281453187387  0.3136330055349816  1.0000
  C   C49       1.0  0.20205862055318144  0.5583646902438346  0.7861479050702087  1.0000
  C   C50       1.0  0.7979431883517023  0.4416331898856996  0.21385500730634277  1.0000
  C   C51       1.0  0.24792675330549946  0.5042869660639937  0.8421481941298052  1.0000
  C   C52       1.0  0.7520752314629107  0.49571480802304546  0.15785648930414448  1.0000
  C   C53       1.0  0.40681293271964597  0.626689626125426  0.8607622256101449  1.0000
  C   C54       1.0  0.593187823371686  0.3733082540041153  0.1392368165173892  1.0000
  C   C55       1.0  0.8611004418114518  0.9862327403663116  0.9607252445633632  1.0000
  C   C56       1.0  0.1388887685035911  0.013765918554725  0.039284914067039295  1.0000
  C   C57       1.0  0.9467896350408936  0.8999730150302839  0.9480148690829251  1.0000
  C   C58       1.0  0.05319869832413101  0.1000295378482576  0.051992553899658796  1.0000
  C   C59       1.0  0.9139192184261662  0.0854871641679935  0.012326652251282209  1.0000
  C   C60       1.0  0.08607230855220391  0.9145161675020432  0.9876849709240432  1.0000
  C   C61       1.0  0.8884368982354688  0.7924258028321347  0.895295628996898  1.0000
  C   C62       1.0  0.11155880482437651  0.2075767500464067  0.10470769937440848  1.0000
  C   C63       1.0  0.4427790599028114  0.4876356250016158  0.5750682571497592  1.0000
  C   C64       1.0  0.557238259823592  0.5123560247959205  0.4249164282233124  1.0000
  C   C65       1.0  0.5871429730208034  0.5116699094843824  0.5790503410189984  1.0000
  C   C66       1.0  0.4128770830737595  0.4883123948151534  0.42092795710917125  1.0000
  C   C67       1.0  0.35615344694097223  0.4761172987160123  0.4965279351560453  1.0000
  C   C68       1.0  0.6438606088266781  0.5238720147070239  0.5034546420086555  1.0000
  C   C69       1.0  0.6791018766759578  0.5278679938937358  0.6648400146621325  1.0000
  C   C70       1.0  0.3209134781141785  0.4721267710698029  0.33514229308735105  1.0000
  N   N1        1.0  0.2953648907353923  0.9265118929771745  0.6136266088074861  1.0000
  N   N2        1.0  0.7046359357013543  0.0734875447353573  0.3863741600729539  1.0000
  N   N3        1.0  0.0046357945147689995  0.2813033837722756  0.7997566751913965  1.0000
  N   N4        1.0  0.9953672078944749  0.7186976115232611  0.20024401409679624  1.0000
  N   N5        1.0  0.8962311160078471  0.4304762228561144  0.8362677428539484  1.0000
  N   N6        1.0  0.1037697104288924  0.5695232148564244  0.16372729792058038  1.0000
  N   N7        1.0  0.3828559142357975  0.7728228419845992  0.24167420969866524  1.0000
  N   N8        1.0  0.6171323136111083  0.2271773745194352  0.7583274408735079  1.0000
  N   N9        1.0  0.43420891878879797  0.6605070894317038  0.11007203319700658  1.0000
  N   N10       1.0  0.5657834851395833  0.3394923482808352  0.8899327787829634  1.0000
  N   N11       1.0  0.3040326878623461  0.6361457125189248  0.7986129069234307  1.0000
  N   N12       1.0  0.695964980133759  0.3638537251936143  0.20138961679040782  1.0000
  N   N13       1.0  0.375068653720284  0.547877483904287  0.8882313212010615  1.0000
  N   N14       1.0  0.6249375423023054  0.452124290182752  0.11177229536744449  1.0000
  Cl  Cl1       1.0  0.28821031710283057  0.3755098975747302  0.00654338448054398  1.0000
  Cl  Cl2       1.0  0.7117948261062139  0.624491876512309  0.9934480879081916  1.0000
  O   O1        1.0  0.9714630391191507  0.7165987684306501  0.891981400711785  1.0000
  O   O2        1.0  0.028534769567784203  0.2834037844478914  0.10801948485816837  1.0000
  O   O3        1.0  0.7632755666953983  0.7791217076369321  0.8591994385374874  1.0000
  O   O4        1.0  0.2367211540052807  0.22088006645010694  0.1408011686004826  1.0000
  O   O5        1.0  0.6163132652512148  0.5274747041862113  0.73460479775008  1.0000
  O   O6        1.0  0.3836962299028386  0.4725301850668231  0.2653801508920495  1.0000
  O   O7        1.0  0.8109904043907791  0.542541204546005  0.667502646863845  1.0000
  O   O8        1.0  0.1890200028859965  0.4574605695410341  0.332483354977704  1.0000
