data_image0
_chemical_formula_structural       K2Co2H6C6O12
_chemical_formula_sum              "K2 Co2 H6 C6 O12"
_cell_length_a       7.026374768590641
_cell_length_b       7.029649690610373
_cell_length_c       8.499029701244938
_cell_angle_alpha    89.99991313767067
_cell_angle_beta     90.09721967997926
_cell_angle_gamma    120.01615305066643

_space_group_name_H-M_alt    "P 1"
_space_group_IT_number       1

loop_
  _space_group_symop_operation_xyz
  'x, y, z'

loop_
  _atom_site_type_symbol
  _atom_site_label
  _atom_site_symmetry_multiplicity
  _atom_site_fract_x
  _atom_site_fract_y
  _atom_site_fract_z
  _atom_site_occupancy
  K   K1        1.0  0.9995521039604682  0.9993243354535226  0.25016163824260923  1.0000
  K   K2        1.0  0.0004629079177221683  0.9997876262944985  0.7498645484660003  1.0000
  Co  Co1       1.0  0.6663706810637037  0.3330614669286831  0.25008063404460057  1.0000
  Co  Co2       1.0  0.3336270445381331  0.6666981230332711  0.7499143313330805  1.0000
  H   H1        1.0  0.5975170299329522  0.9987623478515248  0.0016200720936936001  1.0000
  H   H2        1.0  2.599100886161185e-05  0.5977630014029245  2.4392469235599964e-05  1.0000
  H   H3        1.0  0.40247545533848234  0.4012431271243742  0.9983958445873142  1.0000
  H   H4        1.0  0.4040854790008624  0.0028985162380478578  0.5009142830967335  1.0000
  H   H5        1.0  0.9999999426008299  0.40184879287115643  0.4999897482798091  1.0000
  H   H6        1.0  0.595923508233554  0.5988255726541142  0.49908326606399805  1.0000
  C   C1        1.0  0.44104779042718406  0.9998391342033485  0.0004633960608728999  1.0000
  C   C2        1.0  4.588851801704936e-06  0.4407164544339608  6.816273831600004e-06  1.0000
  C   C3        1.0  0.5589377821728617  0.5587746445589944  0.99954419080688  1.0000
  C   C4        1.0  0.5602009440970972  0.0010192196601081914  0.5002799184866263  1.0000
  C   C5        1.0  0.9999984691907855  0.5587673589806104  0.4999861296401633  1.0000
  C   C6        1.0  0.4398061411023378  0.4408278824199386  0.49971183576305117  1.0000
  O   O1        1.0  0.40529998119074406  0.10041717170527419  0.110658576887964  1.0000
  O   O2        1.0  0.9004301100583945  0.3056156663567935  0.1109755370823677  1.0000
  O   O3        1.0  0.6935792673397926  0.5941280793658166  0.1110988882996224  1.0000
  O   O4        1.0  0.5952561759197436  0.9002692199168791  0.6107707278405597  1.0000
  O   O5        1.0  0.10091510762381257  0.6948115656094913  0.6104402007070462  1.0000
  O   O6        1.0  0.3049872291332889  0.40491706166481123  0.610973804786724  1.0000
  O   O7        1.0  0.09955192260471787  0.4051917576482396  0.8890089895260119  1.0000
  O   O8        1.0  0.3064167263532624  0.9005510198037429  0.8888934457595995  1.0000
  O   O9        1.0  0.5946823406471607  0.6951064165750013  0.8893517878464223  1.0000
  O   O10       1.0  0.8990960269324546  0.5938995690210405  0.3895369633107251  1.0000
  O   O11       1.0  0.6950104202542703  0.09991628531849264  0.38902143743693063  1.0000
  O   O12       1.0  0.4047517415882425  0.3050204535456232  0.3892253062857165  1.0000
