data_image0
_chemical_formula_structural       Zn4H43C69N17Cl4
_chemical_formula_sum              "Zn4 H43 C69 N17 Cl4"
_cell_length_a       15.690009064061044
_cell_length_b       17.851887641433247
_cell_length_c       19.696927206328173
_cell_angle_alpha    109.89365166608306
_cell_angle_beta     116.05597261684669
_cell_angle_gamma    97.44308585244197

_space_group_name_H-M_alt    "P 1"
_space_group_IT_number       1

loop_
  _space_group_symop_operation_xyz
  'x, y, z'

loop_
  _atom_site_type_symbol
  _atom_site_label
  _atom_site_symmetry_multiplicity
  _atom_site_fract_x
  _atom_site_fract_y
  _atom_site_fract_z
  _atom_site_occupancy
  Zn  Zn1       1.0  0.6228794492616315  0.10141443413991878  0.0015674855046655316  1.0000
  Zn  Zn2       1.0  0.40084056857119077  0.9190590600865606  0.024893085909269544  1.0000
  Zn  Zn3       1.0  0.6688219472418242  0.9944821113447022  0.12161754523936014  1.0000
  Zn  Zn4       1.0  0.36353439394156356  0.0296459144870127  0.9102206898320518  1.0000
  H   H1        1.0  0.7910831232651887  0.0661385887213157  0.9368650147709232  1.0000
  H   H2        1.0  0.3869131869489593  0.0014785438773899024  0.19234376123562674  1.0000
  H   H3        1.0  0.843079830713954  0.17765838372694276  0.31403018694527424  1.0000
  H   H4        1.0  0.16939958152502754  0.08106018629115398  0.9083899750998939  1.0000
  H   H5        1.0  0.22879240416612137  0.9599910276286963  0.07353651301480826  1.0000
  H   H6        1.0  0.6194007022098232  0.24997632079403323  0.1463795354598645  1.0000
  H   H7        1.0  0.33917427559882174  0.21339881837918273  0.9407895374793894  1.0000
  H   H8        1.0  0.7106034084123392  0.08137496017941709  0.3125893358012704  1.0000
  H   H9        1.0  0.3635525289023249  0.01865488341173459  0.482437020727815  1.0000
  H   H10       1.0  0.33449304439110955  0.9899855200715206  0.5863582149854096  1.0000
  H   H11       1.0  0.615506077446902  0.18406406458048238  0.7884673071441242  1.0000
  H   H12       1.0  0.18851520869727517  0.7433377773886533  0.8694798593545414  1.0000
  H   H13       1.0  0.6448722288958136  0.21218619601523156  0.6843903831360763  1.0000
  H   H14       1.0  0.4244940898741731  0.12308800968113327  0.3208425119681593  1.0000
  H   H15       1.0  0.4026257631400157  0.14761035872222547  0.4427080693389628  1.0000
  H   H16       1.0  0.8809133558574233  0.5549626970165561  0.6379378584741033  1.0000
  H   H17       1.0  0.05076179855697658  0.6493231822632383  0.7528348339330152  1.0000
  H   H18       1.0  0.10940876533932459  0.7393442177990082  0.6005063981703815  1.0000
  H   H19       1.0  0.9680102854400728  0.6149047615059615  0.47878040826040563  1.0000
  H   H20       1.0  0.7869417003353334  0.5339898577062385  0.3885290158166939  1.0000
  H   H21       1.0  0.7057269813941005  0.8049021403938851  0.07890656852900699  1.0000
  H   H22       1.0  0.7137169494067805  0.3970480945435852  0.2633421834154747  1.0000
  H   H23       1.0  0.8393078567729333  0.28025421443676624  0.426548367576622  1.0000
  H   H24       1.0  0.7033369278047488  0.6818316886197734  0.023001073501127733  1.0000
  H   H25       1.0  0.2950683018268305  0.4200992736478142  0.8196470419292581  1.0000
  H   H26       1.0  0.7136395902173477  0.5441263996266129  0.018129051258569038  1.0000
  H   H27       1.0  0.3075241954428166  0.2963663315145267  0.843643170843464  1.0000
  H   H28       1.0  0.6296647091968453  0.40869620233966947  0.00012600874411828976  1.0000
  H   H29       1.0  0.022153564507860244  0.7120611130550358  0.8580505950170902  1.0000
  H   H30       1.0  0.9070146982604185  0.7704597805066767  0.6462370729920154  1.0000
  H   H31       1.0  0.0019654726066848905  0.7855745869197646  0.9788665319793709  1.0000
  H   H32       1.0  0.8426843980762228  0.8726379267702808  0.7137378436014714  1.0000
  H   H33       1.0  0.927823644867253  0.8803471561213454  0.04164031491648499  1.0000
  H   H34       1.0  0.8077768748599821  0.9357822891805866  0.8281212105188017  1.0000
  H   H35       1.0  0.38327470618332204  0.7324084107275013  0.922407041638053  1.0000
  H   H36       1.0  0.6189817781652992  0.046317060629391386  0.8306594897392331  1.0000
  H   H37       1.0  0.24884366851462403  0.8667032818869201  0.7314596772886405  1.0000
  H   H38       1.0  0.7668326073049342  0.8840403568788275  0.0320892977385938  1.0000
  H   H39       1.0  0.6352921428493092  0.2728179321030666  0.9734246659035225  1.0000
  H   H40       1.0  0.3015798633463478  0.5261503328120652  0.8236923139129716  1.0000
  H   H41       1.0  0.27456453493138616  0.6071110035333404  0.7501276680668596  1.0000
  H   H42       1.0  0.36813706327977525  0.5647979988675689  0.7400235529813842  1.0000
  H   H43       1.0  0.4030515024175401  0.6708321720851415  0.8145520888292239  1.0000
  C   C1        1.0  0.7756862653033283  0.027789277486050406  0.9653560961564552  1.0000
  C   C2        1.0  0.17546489083483147  0.7790677796606714  0.7658695016673606  1.0000
  C   C3        1.0  0.5417964639295934  0.7298648578040815  0.9807784355376017  1.0000
  C   C4        1.0  0.46826896288260406  0.0569906280894088  0.7559418410002793  1.0000
  C   C5        1.0  0.5654301559277002  0.24765180752290658  0.9693270510970466  1.0000
  C   C6        1.0  0.4647297994261379  0.014517571517536996  0.20880392972343026  1.0000
  C   C7        1.0  0.7835203527334329  0.18251532542261373  0.2616290421363132  1.0000
  C   C8        1.0  0.19718552581550616  0.04960619183686531  0.9481799799654314  1.0000
  C   C9        1.0  0.22827193548418717  0.9883835182864329  0.03250117701733047  1.0000
  C   C10       1.0  0.6698482429042727  0.21994822850640358  0.1763605445305104  1.0000
  C   C11       1.0  0.4139273846876109  0.2165185498815134  0.9514811152833789  1.0000
  C   C12       1.0  0.21699198272195017  0.7834426070428361  0.8480488329501271  1.0000
  C   C13       1.0  0.6299825597269473  0.054784352872509615  0.2700440253277989  1.0000
  C   C14       1.0  0.4798915123683257  0.27289199136632186  0.9463787484084207  1.0000
  C   C15       1.0  0.5531252536298511  0.056508511809525375  0.2888007061410249  1.0000
  C   C16       1.0  0.7421410346597881  0.24799518983888197  0.26191547255477593  1.0000
  C   C17       1.0  0.16422914394436106  0.029069462920460892  0.9967266457352153  1.0000
  C   C18       1.0  0.41845555234544207  0.05573853551734231  0.5497940182900437  1.0000
  C   C19       1.0  0.4022762041624973  0.039338699754651395  0.608224427881922  1.0000
  C   C20       1.0  0.47568907803561444  0.08182271084294261  0.6946137935325042  1.0000
  C   C21       1.0  0.5608277604350178  0.14687344357164986  0.7210875837759758  1.0000
  C   C22       1.0  0.5770044076558063  0.1630972342889265  0.6626878656443083  1.0000
  C   C23       1.0  0.6276022374391559  0.8008330664257598  0.04525481763167252  1.0000
  C   C24       1.0  0.5082733025249412  0.11481034938440618  0.5757922591493241  1.0000
  C   C25       1.0  0.6141378930480742  0.09401496588616708  0.5097883876531385  1.0000
  C   C26       1.0  0.6261325215950463  0.079429533751501  0.4401569003781916  1.0000
  C   C27       1.0  0.555312737592068  0.08569928645358971  0.3687170141804543  1.0000
  C   C28       1.0  0.4773222680568381  0.11371475392684262  0.3734837765189383  1.0000
  C   C29       1.0  0.4652812411414615  0.1278190193801905  0.44203586854481364  1.0000
  C   C30       1.0  0.5313372275717683  0.11596403415220641  0.5107364846753271  1.0000
  C   C31       1.0  0.9293652394374092  0.5950187160261675  0.6288503662524364  1.0000
  C   C32       1.0  0.009825583257835922  0.6720637232829391  0.7060605311949715  1.0000
  C   C33       1.0  0.08428262348977704  0.7189861013364476  0.6930294457126109  1.0000
  C   C34       1.0  0.38763780756070076  0.041196229595669785  0.7685353186302989  1.0000
  C   C35       1.0  0.06020870034467415  0.7009584780999416  0.6104654936718674  1.0000
  C   C36       1.0  0.9807686271620212  0.6305468498271765  0.541785965424083  1.0000
  C   C37       1.0  0.9194273061596617  0.5725418058764901  0.5515423055247268  1.0000
  C   C38       1.0  0.7985206489478713  0.47797359402800765  0.3968008500634355  1.0000
  C   C39       1.0  0.7567532065475646  0.40061894742749626  0.3260594109958961  1.0000
  C   C40       1.0  0.77362663310749  0.3279050148459959  0.3345625415625975  1.0000
  C   C41       1.0  0.8274742999121685  0.33537696890686414  0.4166878505965101  1.0000
  C   C42       1.0  0.8689158244077005  0.4131854250121521  0.4870993251981802  1.0000
  C   C43       1.0  0.8583639037820561  0.48771029813921984  0.4794119515540771  1.0000
  C   C44       1.0  0.5403703288128909  0.6423217752103483  0.9520771044567766  1.0000
  C   C45       1.0  0.46321177822996873  0.7644348128095328  0.965571558212183  1.0000
  C   C46       1.0  0.46999602362981824  0.3442946723170266  0.9266983793181325  1.0000
  C   C47       1.0  0.3696357641932694  0.42032391610211306  0.8610562433863721  1.0000
  C   C48       1.0  0.3758158534827416  0.34954195441282104  0.8744113917655625  1.0000
  C   C49       1.0  0.5558412345922504  0.41061652687329797  0.9599960456665427  1.0000
  C   C50       1.0  0.5517551804765048  0.4840472295107715  0.9486664273522721  1.0000
  C   C51       1.0  0.4561812041956444  0.4918104263720692  0.9005787889397825  1.0000
  C   C52       1.0  0.45213962601022234  0.5713891631179708  0.8991259979761994  1.0000
  C   C53       1.0  0.6343174721551108  0.628643736638125  0.9891408859363082  1.0000
  C   C54       1.0  0.6408128025609584  0.5523097152550773  0.9871648087020973  1.0000
  C   C55       1.0  0.9680413593512611  0.7336849786603635  0.7477858087022896  1.0000
  C   C56       1.0  0.5436960304731498  0.04316097902050591  0.8184703924593394  1.0000
  C   C57       1.0  0.8595443607689787  0.9126904439454434  0.9375639623024555  1.0000
  C   C58       1.0  0.9588249684171899  0.8179489725695035  0.9455428349517591  1.0000
  C   C59       1.0  0.9170494440757508  0.8703939743826794  0.9802192524992109  1.0000
  C   C60       1.0  0.8513824147484786  0.9040031104870038  0.8620143125791914  1.0000
  C   C61       1.0  0.8933776846336983  0.8503527242326995  0.8245607117422438  1.0000
  C   C62       1.0  0.9460580076185678  0.804492025442009  0.8659682625618785  1.0000
  C   C63       1.0  0.9823947077036123  0.7467609097617256  0.8258258416566662  1.0000
  C   C64       1.0  0.9171107627010356  0.7799762760923769  0.7073973375734183  1.0000
  C   C65       1.0  0.8814369836468927  0.8370199916181277  0.7450723799391099  1.0000
  C   C66       1.0  0.24915961657831065  0.8451925327273739  0.77694743061857  1.0000
  C   C67       1.0  0.7646357613757573  0.9361427221839802  0.0156242267955378  1.0000
  C   C68       1.0  0.8054249757647441  0.9583904574341346  0.9715541795162538  1.0000
  C   C69       1.0  0.35140872659191297  0.6065691257584971  0.7851442075846506  1.0000
  N   N1        1.0  0.7229877569848924  0.04543634291982101  0.004182661970297394  1.0000
  N   N2        1.0  0.4881452193509049  0.9884457444371576  0.14863335689197762  1.0000
  N   N3        1.0  0.7404151549355973  0.12130381610295157  0.18265879921855793  1.0000
  N   N4        1.0  0.27748225023636747  0.0234782943824996  0.9555333249759954  1.0000
  N   N5        1.0  0.2976218314764836  0.9859652097480803  0.008596455635682851  1.0000
  N   N6        1.0  0.6690830133983566  0.1441496595908234  0.12931157069081683  1.0000
  N   N7        1.0  0.4570541950871245  0.16191370731113608  0.9755962626477485  1.0000
  N   N8        1.0  0.5901696896506222  0.014237142098643596  0.18617513831636504  1.0000
  N   N9        1.0  0.30493511236238635  0.8445973202237909  0.9000485902776845  1.0000
  N   N10       1.0  0.601414146194699  0.8700651808879626  0.06634977436862505  1.0000
  N   N11       1.0  0.41386437697449446  0.0205546360894573  0.8328567830484204  1.0000
  N   N12       1.0  0.4993505296546488  0.8481681861960695  0.016732782357657197  1.0000
  N   N13       1.0  0.5111726888411212  0.0217713119520511  0.8647680958168282  1.0000
  N   N14       1.0  0.32485459157952334  0.8852202636253351  0.8574801753466447  1.0000
  N   N15       1.0  0.7148987146218245  0.9878831563541792  0.03429985663163395  1.0000
  N   N16       1.0  0.5505533055459749  0.18199720180746223  0.9861474940827222  1.0000
  N   N17       1.0  0.35988246214176184  0.5792495408814416  0.8496242744198524  1.0000
  Cl  Cl1       1.0  0.6980786588227446  0.07680691123492515  0.591322828579905  1.0000
  Cl  Cl2       1.0  0.7256668564281696  0.0470761424167918  0.44109567479858913  1.0000
  Cl  Cl3       1.0  0.9406694464740611  0.41445219010820006  0.5849108416351714  1.0000
  Cl  Cl4       1.0  0.27020927306288206  0.04761320500193019  0.7170782182173668  1.0000
