data_image0
_chemical_formula_structural       Zn4H16C28BrNO13
_chemical_formula_sum              "Zn4 H16 C28 Br1 N1 O13"
_cell_length_a       13.040630695265724
_cell_length_b       13.304501304407717
_cell_length_c       15.757014420513185
_cell_angle_alpha    70.63300539582386
_cell_angle_beta     75.02660524958952
_cell_angle_gamma    88.73912045055296

_space_group_name_H-M_alt    "P 1"
_space_group_IT_number       1

loop_
  _space_group_symop_operation_xyz
  'x, y, z'

loop_
  _atom_site_type_symbol
  _atom_site_label
  _atom_site_symmetry_multiplicity
  _atom_site_fract_x
  _atom_site_fract_y
  _atom_site_fract_z
  _atom_site_occupancy
  Zn  Zn1       1.0  0.4133360383952933  0.44113382128978146  0.4435882860442036  1.0000
  Zn  Zn2       1.0  0.5729962284812657  0.3935446290428714  0.5723720756338794  1.0000
  Zn  Zn3       1.0  0.40747460479491343  0.558478570738792  0.5950794606501761  1.0000
  Zn  Zn4       1.0  0.5910448961577828  0.6187557980769325  0.3958801117695288  1.0000
  H   H1        1.0  0.4853351017683565  0.2275981361247189  0.8700433619810113  1.0000
  H   H2        1.0  0.5816922697626339  0.7495187154720852  0.11820103547261607  1.0000
  H   H3        1.0  0.5491040595293839  0.6661036713721555  0.8849692217127654  1.0000
  H   H4        1.0  0.5864354957559357  0.8022308556128548  0.9491783720558615  1.0000
  H   H5        1.0  0.5087738774229038  0.36920036135498435  0.23937692482091683  1.0000
  H   H6        1.0  0.8846869514300124  0.4620115265051081  0.5965762496993394  1.0000
  H   H7        1.0  0.47781212015317465  0.19164448866922607  0.253489826407545  1.0000
  H   H8        1.0  0.4576345618977768  0.15398282387624818  0.1667677290416094  1.0000
  H   H9        1.0  0.09930615445827579  0.5210414377750964  0.4401574796893471  1.0000
  H   H10       1.0  0.9376623613132152  0.5739104236586666  0.3829058733027893  1.0000
  H   H11       1.0  0.055001078325233294  0.469789026150657  0.6528949575065541  1.0000
  H   H12       1.0  0.4829528407695065  0.9041608745516424  0.5661087709492207  1.0000
  H   H13       1.0  0.5440644040447893  0.06871040761051006  0.567686733794659  1.0000
  H   H14       1.0  0.4251368994872493  0.9339140523937955  0.38173273523177903  1.0000
  H   H15       1.0  0.4917000540528279  0.17777769329740062  0.03363448472325807  1.0000
  H   H16       1.0  0.4975426329241017  0.5588693219737165  0.8414913359349044  1.0000
  C   C1        1.0  0.7733842055471528  0.5275447058431623  0.4685503139551699  1.0000
  C   C2        1.0  0.498159472460145  0.47621559184216256  0.8852737538844551  1.0000
  C   C3        1.0  0.4894902784956585  0.2886903648010131  0.9011844310218609  1.0000
  C   C4        1.0  0.2162379259924805  0.4908641561243599  0.5585337593612324  1.0000
  C   C5        1.0  0.5416250008157134  0.5841862874498528  0.1477370493433483  1.0000
  C   C6        1.0  0.09880743927702437  0.4843899678099529  0.5803469448723464  1.0000
  C   C7        1.0  0.04934320876412101  0.5017741168841708  0.5116855619858002  1.0000
  C   C8        1.0  0.8899689302660716  0.5340323203617671  0.4543353839323316  1.0000
  C   C9        1.0  0.9358330133007798  0.49701943739155735  0.525576866216099  1.0000
  C   C10       1.0  0.44619849126193867  0.893778212807177  0.4469018604478308  1.0000
  C   C11       1.0  0.4559440036567111  0.9464821533503663  0.5042269043288174  1.0000
  C   C12       1.0  0.5681780076423877  0.7191102435550715  0.9943734699997223  1.0000
  C   C13       1.0  0.49082627167096865  0.11364640660897855  0.5278066875503314  1.0000
  C   C14       1.0  0.440074691951601  0.05876701595231279  0.49019946083254956  1.0000
  C   C15       1.0  0.49062754352948434  0.22735528325345197  0.5195231191110424  1.0000
  C   C16       1.0  0.4709389004739891  0.7799490065790948  0.4661792461609907  1.0000
  C   C17       1.0  0.4831300519560955  0.4263885548388655  0.7493078105145657  1.0000
  C   C18       1.0  0.5305669131964734  0.5623057843952636  0.24903411659040134  1.0000
  C   C19       1.0  0.4929230916053485  0.2619838807427683  0.9926952227094077  1.0000
  C   C20       1.0  0.4895174596937012  0.39712314927551506  0.8473810799325251  1.0000
  C   C21       1.0  0.5658762010101768  0.6897983147294081  0.08885700978261477  1.0000
  C   C22       1.0  0.5469029972357689  0.6420445476767399  0.9586046896856075  1.0000
  C   C23       1.0  0.5255582657518332  0.5335686625160817  0.01468343927407997  1.0000
  C   C24       1.0  0.5244273349738151  0.5024814539669007  0.11118545080226738  1.0000
  C   C25       1.0  0.5080591506387719  0.4513138303134594  0.9769081978301842  1.0000
  C   C26       1.0  0.5008377404733225  0.3412042310105007  0.03282252086376047  1.0000
  C   C27       1.0  0.5018169980765492  0.3130559297752526  0.12929460132805565  1.0000
  C   C28       1.0  0.5110306818693076  0.392202052009935  0.16588914304385585  1.0000
  Br  Br1       1.0  0.34510080081440003  0.1213239571422591  0.41660838387443994  1.0000
  N   N1        1.0  0.49689139532991083  0.20649618957429539  0.18349229705886222  1.0000
  O   O1        1.0  0.4980467303441928  0.5054723624935844  0.5005305903931899  1.0000
  O   O2        1.0  0.5125851955038954  0.3581625804642384  0.7081170298988086  1.0000
  O   O3        1.0  0.5896989750090924  0.6199392844503178  0.2707418015587705  1.0000
  O   O4        1.0  0.44907140082533203  0.5172860035615939  0.7127694117032846  1.0000
  O   O5        1.0  0.4600867635468902  0.48942636759824143  0.30747533568344215  1.0000
  O   O6        1.0  0.4221586361587982  0.28471437800735083  0.4848214212906258  1.0000
  O   O7        1.0  0.5327862864644358  0.7577137107628571  0.39850704905339285  1.0000
  O   O8        1.0  0.7188355703348748  0.45490120821906976  0.5416504772934163  1.0000
  O   O9        1.0  0.25771434609668387  0.5093424276863485  0.6178052851680108  1.0000
  O   O10       1.0  0.7381249359169857  0.5956450322341452  0.40546722236763344  1.0000
  O   O11       1.0  0.266624182992615  0.4781711275707749  0.48196460263043417  1.0000
  O   O12       1.0  0.5626044032837  0.25818374416846973  0.5495462504353199  1.0000
  O   O13       1.0  0.42803065883784086  0.7159927668855343  0.5481396924226944  1.0000
