data_image0
_chemical_formula_structural       Cu2H28C26I2N8
_chemical_formula_sum              "Cu2 H28 C26 I2 N8"
_cell_length_a       4.115673799765093
_cell_length_b       11.351181337382526
_cell_length_c       14.701234278422296
_cell_angle_alpha    101.15146666188444
_cell_angle_beta     93.88094533390017
_cell_angle_gamma    96.60869054007235

_space_group_name_H-M_alt    "P 1"
_space_group_IT_number       1

loop_
  _space_group_symop_operation_xyz
  'x, y, z'

loop_
  _atom_site_type_symbol
  _atom_site_label
  _atom_site_symmetry_multiplicity
  _atom_site_fract_x
  _atom_site_fract_y
  _atom_site_fract_z
  _atom_site_occupancy
  Cu  Cu1       1.0  0.2154629826143477  0.98739717248246  0.5644334024517832  1.0000
  Cu  Cu2       1.0  0.7845287619860316  0.012602506213894998  0.4355669365626086  1.0000
  H   H1        1.0  0.6600704311458401  0.19348341376248607  0.6625825435865309  1.0000
  H   H2        1.0  0.3399131238516232  0.8065199237140134  0.3374154236380704  1.0000
  H   H3        1.0  0.9281730173292361  0.2761044002559884  0.8250349288441613  1.0000
  H   H4        1.0  0.07180455712240522  0.7238962462606578  0.1749638691746611  1.0000
  H   H5        1.0  0.34986250449090756  0.9844231129381098  0.913514958265843  1.0000
  H   H6        1.0  0.6501355397275858  0.015580164339169799  0.0864853703182504  1.0000
  H   H7        1.0  0.09149168652434259  0.9186168656543499  0.7492017480007362  1.0000
  H   H8        1.0  0.90849417041661  0.08138646869385718  0.25079899220384055  1.0000
  H   H9        1.0  0.1238623679840458  0.1518188576212225  0.1213870708777165  1.0000
  H   H10       1.0  0.8761446007762501  0.8481825701995761  0.8786152307210957  1.0000
  H   H11       1.0  0.48125454519399813  0.23464895784409384  0.2654986846437524  1.0000
  H   H12       1.0  0.518745772611119  0.7653479657475298  0.7345034868557434  1.0000
  H   H13       1.0  0.6132670101949529  0.5844845703722824  0.18369722030275432  1.0000
  H   H14       1.0  0.3867493312384979  0.41551590772179037  0.8163051553374955  1.0000
  H   H15       1.0  0.23916523860766858  0.5006636469954273  0.04425880743399802  1.0000
  H   H16       1.0  0.7608548782224105  0.4993395192682684  0.9557379249291458  1.0000
  H   H17       1.0  0.7378490230226687  0.39146973244033473  0.43642294997485465  1.0000
  H   H18       1.0  0.2621489244015293  0.608533550755446  0.5635794181121484  1.0000
  H   H19       1.0  0.14877685740309934  0.4260324063127853  0.4082312151848271  1.0000
  H   H20       1.0  0.8512198424213153  0.5739681717752488  0.5917748103191303  1.0000
  H   H21       1.0  0.8964856561944146  0.2965583808038232  0.3441087743141154  1.0000
  H   H22       1.0  0.10351312329549948  0.7034412806163386  0.6558971643029919  1.0000
  H   H23       1.0  0.10084649386563163  0.6061143212369372  0.2786017898760917  1.0000
  H   H24       1.0  0.8991553945194539  0.3938798625533124  0.7213959346714915  1.0000
  H   H25       1.0  0.08088487476440774  0.6122462501040002  0.4000562335006351  1.0000
  H   H26       1.0  0.919115091371111  0.38775519302015476  0.5999397886611605  1.0000
  H   H27       1.0  0.7490236514526316  0.6516785344235102  0.33460400786545824  1.0000
  H   H28       1.0  0.2509818832700219  0.3483183454276996  0.6653907927422295  1.0000
  C   C1        1.0  0.5931177109846005  0.15229448971367526  0.7210108513071704  1.0000
  C   C2        1.0  0.4068802683718288  0.8477142166900504  0.27898482813744613  1.0000
  C   C3        1.0  0.7406888120874199  0.1975255507733422  0.810034523536153  1.0000
  C   C4        1.0  0.259307051763379  0.8024850016205106  0.1899695413365734  1.0000
  C   C5        1.0  0.6571083055533932  0.13794384684236147  0.8824918712220866  1.0000
  C   C6        1.0  0.3428800146548807  0.8620594745134011  0.11750824279094729  1.0000
  C   C7        1.0  0.4217664652722489  0.034224392327679716  0.8599616815169784  1.0000
  C   C8        1.0  0.5782406325471073  0.9657770276017886  0.14003790074462333  1.0000
  C   C9        1.0  0.2803815289881939  0.9970221195424429  0.7688305117071155  1.0000
  C   C10       1.0  0.7196172501691861  0.0029829670585072993  0.2311694181019064  1.0000
  C   C11       1.0  0.15333788017763075  0.3204528354623973  0.0730499073867321  1.0000
  C   C12       1.0  0.8466782992669267  0.6795585028574109  0.926943849808872  1.0000
  C   C13       1.0  0.2281245568437242  0.24687465154661226  0.1371733113003302  1.0000
  C   C14       1.0  0.7718524195438905  0.75311147269462  0.8628199463585915  1.0000
  C   C15       1.0  0.433461861789354  0.2934282635473338  0.21702520159031025  1.0000
  C   C16       1.0  0.5665476028355627  0.706567724127403  0.7829818027907436  1.0000
  C   C17       1.0  0.58191911745093  0.4168102940333043  0.2366833463027191  1.0000
  C   C18       1.0  0.4180745171342436  0.5831821273019739  0.7633193749317543  1.0000
  C   C19       1.0  0.5047829663488201  0.49026733640539527  0.17206091515091523  1.0000
  C   C20       1.0  0.49523190520685734  0.5097295230413437  0.8279422580394638  1.0000
  C   C21       1.0  0.29617500090213866  0.4428950855550653  0.0927985558113349  1.0000
  C   C22       1.0  0.7038470098206417  0.5570944708173542  0.9071989488730169  1.0000
  C   C23       1.0  0.8964398465503577  0.3908589109861538  0.3788185863731144  1.0000
  C   C24       1.0  0.1035545513305678  0.6091416702301657  0.6211846661508745  1.0000
  C   C25       1.0  0.9368150269482739  0.5899506050893846  0.3322363606500716  1.0000
  C   C26       1.0  0.06319479258905857  0.4100453608841689  0.6677631655536446  1.0000
  I   I1        1.0  0.6788886979601328  0.8356147739271477  0.5275331282836789  1.0000
  I   I2        1.0  0.3211272276067304  0.16438480246434747  0.4724704664955582  1.0000
  N   N1        1.0  0.3631697336717821  0.0535452978852149  0.6991238671386384  1.0000
  N   N2        1.0  0.6368078407798521  0.9464553486314387  0.3008749308801839  1.0000
  N   N3        1.0  0.812481338953475  0.17261984670304284  0.9731005284477378  1.0000
  N   N4        1.0  0.18752336012809676  0.8273815822732117  0.026898320336791022  1.0000
  N   N5        1.0  0.9587978351062248  0.2820453159188219  0.990255187874965  1.0000
  N   N6        1.0  0.041209234356266215  0.7179497534532686  0.009743464322063716  1.0000
  N   N7        1.0  0.7922182096341501  0.4637936085902723  0.31415237458524814  1.0000
  N   N8        1.0  0.20778258856708479  0.536204212758264  0.6858472181066518  1.0000
