data_image0
_chemical_formula_structural       Cd2H16C24N4O12
_chemical_formula_sum              "Cd2 H16 C24 N4 O12"
_cell_length_a       7.702678820191264
_cell_length_b       9.736062386234535
_cell_length_c       9.518724481537763
_cell_angle_alpha    84.94936210707351
_cell_angle_beta     113.86581565190252
_cell_angle_gamma    89.9702700402818

_space_group_name_H-M_alt    "P 1"
_space_group_IT_number       1

loop_
  _space_group_symop_operation_xyz
  'x, y, z'

loop_
  _atom_site_type_symbol
  _atom_site_label
  _atom_site_symmetry_multiplicity
  _atom_site_fract_x
  _atom_site_fract_y
  _atom_site_fract_z
  _atom_site_occupancy
  Cd  Cd1       1.0  0.3267343783729544  0.9552999259222973  0.4925394031305572  1.0000
  Cd  Cd2       1.0  0.8340439621004166  0.044766062368068994  0.5072036362706316  1.0000
  H   H1        1.0  0.8287592789199112  0.5409340492764019  0.6968622210584314  1.0000
  H   H2        1.0  0.1307389780602222  0.4595262586328701  0.3032663602476049  1.0000
  H   H3        1.0  0.3560451251086789  0.8078470832748438  0.8674987638513229  1.0000
  H   H4        1.0  0.48822990647099834  0.19216716034797804  0.13253996406267984  1.0000
  H   H5        1.0  0.47865487103374704  0.33569254964507433  0.7722580313714502  1.0000
  H   H6        1.0  0.7051477433197705  0.664577672961599  0.22845379925794163  1.0000
  H   H7        1.0  0.1590605466661117  0.4490944562373898  0.7034264256222542  1.0000
  H   H8        1.0  0.45421346873988006  0.5508166826762706  0.2966880392326914  1.0000
  H   H9        1.0  0.09575760681257613  0.6947790060052912  0.5869868944138404  1.0000
  H   H10       1.0  0.5076577193993757  0.30500567474590673  0.4126609876506108  1.0000
  H   H11       1.0  0.05808627105022881  0.7574126194696762  0.839438093223599  1.0000
  H   H12       1.0  0.21804091834439282  0.2420474679727037  0.16058719858270357  1.0000
  H   H13       1.0  0.8222012423094753  0.7749216508368164  0.9572955047622288  1.0000
  H   H14       1.0  0.8644304035628637  0.2242363056068514  0.042556209383164414  1.0000
  H   H15       1.0  0.9302503846739257  0.8528059488203754  0.22235678559862043  1.0000
  H   H16       1.0  0.7078284058648167  0.14675874336584374  0.7772661378870753  1.0000
  C   C1        1.0  0.5444273188835284  0.6613862978262262  0.6405670074148233  1.0000
  C   C2        1.0  0.902980093191715  0.33885038185527355  0.3595932901986457  1.0000
  C   C3        1.0  0.5886599455480309  0.5209591212763061  0.6991485515881523  1.0000
  C   C4        1.0  0.8884172143056548  0.479338768109358  0.30123655729892107  1.0000
  C   C5        1.0  0.44838985700602063  0.44355746823460157  0.7251967292888537  1.0000
  C   C6        1.0  0.7219846817722768  0.5566633239047007  0.2753018516435758  1.0000
  C   C7        1.0  0.27129451801338433  0.506472972365586  0.6857627942068234  1.0000
  C   C8        1.0  0.5842902667466565  0.4935518677424326  0.3144122545613684  1.0000
  C   C9        1.0  0.23486908423609523  0.6442215432948688  0.6212169843125039  1.0000
  C   C10       1.0  0.6125806765193859  0.3557209773601997  0.37870202678532655  1.0000
  C   C11       1.0  0.6939064879731095  0.7510828580432547  0.6249424418172894  1.0000
  C   C12       1.0  0.0682452916448213  0.24926260096484046  0.3750575308600332  1.0000
  C   C13       1.0  0.3370475193733782  0.8751429591862281  0.1824942474041933  1.0000
  C   C14       1.0  0.1546201857549363  0.12481992403061073  0.8173930971752554  1.0000
  C   C15       1.0  0.2895107669783386  0.8250669500756873  0.038039597454456994  1.0000
  C   C16       1.0  0.25124837199697947  0.1747983430375157  0.9619407057722427  1.0000
  C   C17       1.0  0.101017286620916  0.7894323477926479  0.955427977661877  1.0000
  C   C18       1.0  0.14520729171843527  0.21013130326763024  0.044542648039005386  1.0000
  C   C19       1.0  0.9699663425501799  0.8000310272885118  0.019793841482055555  1.0000
  C   C20       1.0  0.9498349567405671  0.19939206076477944  0.9800732623375198  1.0000
  C   C21       1.0  0.028660798292044404  0.8443174562074277  0.16719797237567494  1.0000
  C   C22       1.0  0.8613684021452458  0.1553343544560803  0.8325377960385794  1.0000
  C   C23       1.0  0.521585776538835  0.9392212358296281  0.2721305515587389  1.0000
  C   C24       1.0  0.24978777787410428  0.06095761264148081  0.7277498351157305  1.0000
  N   N1        1.0  0.3702716671458007  0.7191429693123227  0.6018290733502951  1.0000
  N   N2        1.0  0.7675685433180207  0.28091763953212734  0.3981081713238483  1.0000
  N   N3        1.0  0.20645749908851493  0.8815712909586039  0.2439418394054158  1.0000
  N   N4        1.0  0.9626135627242081  0.11826460297810121  0.7558433636038302  1.0000
  O   O1        1.0  0.6616117338041722  0.8819610482190826  0.6037292817721324  1.0000
  O   O2        1.0  0.05750685314312421  0.11835228649027843  0.3962438711638328  1.0000
  O   O3        1.0  0.8472731798247185  0.6917832617393528  0.6376408182247816  1.0000
  O   O4        1.0  0.20863211210345875  0.3086183969069652  0.36208781323525596  1.0000
  O   O5        1.0  0.7601015460995627  0.46314468357617516  0.7308973105756494  1.0000
  O   O6        1.0  0.027986456909630395  0.5373075787834553  0.2695759548864132  1.0000
  O   O7        1.0  0.5041278921237975  0.045391293697257105  0.3396045577412892  1.0000
  O   O8        1.0  0.16525976153158695  0.9546633138231473  0.6603703615990142  1.0000
  O   O9        1.0  0.6794819202458982  0.8920727187270503  0.2843891771397864  1.0000
  O   O10       1.0  0.3951137208274177  0.10842794846210076  0.7153446126308722  1.0000
  O   O11       1.0  0.42188615614663416  0.8190240666061612  0.9780119632583749  1.0000
  O   O12       1.0  0.443605739994844  0.18095917255777755  0.022045415886410052  1.0000
