data_image0
_chemical_formula_structural       Tm4H32C48O28
_chemical_formula_sum              "Tm4 H32 C48 O28"
_cell_length_a       10.77317128802341
_cell_length_b       10.773064221946626
_cell_length_c       18.752907714765072
_cell_angle_alpha    73.38197820344149
_cell_angle_beta     73.38147809122654
_cell_angle_gamma    69.23084060537887

_space_group_name_H-M_alt    "P 1"
_space_group_IT_number       1

loop_
  _space_group_symop_operation_xyz
  'x, y, z'

loop_
  _atom_site_type_symbol
  _atom_site_label
  _atom_site_symmetry_multiplicity
  _atom_site_fract_x
  _atom_site_fract_y
  _atom_site_fract_z
  _atom_site_occupancy
  Tm  Tm1       1.0  0.44476697123280223  0.5437539317021133  0.6054471336550121  1.0000
  Tm  Tm2       1.0  0.45621057762738804  0.5552475580973352  0.8945422923348545  1.0000
  Tm  Tm3       1.0  0.5552294583838062  0.45622052615829745  0.3945358396983778  1.0000
  Tm  Tm4       1.0  0.5437730593883005  0.44476411050919756  0.10544890487510365  1.0000
  H   H1        1.0  0.30573343013639936  0.8027608430604546  0.6698271952720772  1.0000
  H   H2        1.0  0.19727236515100804  0.6943610351162448  0.8301175959207185  1.0000
  H   H3        1.0  0.694317339550892  0.19724944532541855  0.3301552532615091  1.0000
  H   H4        1.0  0.8027365652781738  0.3056859651499836  0.1698635682756873  1.0000
  H   H5        1.0  0.263623829040931  0.7990037384135321  0.5982821306410101  1.0000
  H   H6        1.0  0.20098308337531987  0.7362713238270048  0.9017386410404811  1.0000
  H   H7        1.0  0.7363229926477076  0.20096393975607896  0.40174270294973985  1.0000
  H   H8        1.0  0.7990042627753124  0.2636657760039541  0.09828241340989052  1.0000
  H   H9        1.0  0.6269692641800121  0.7858445061287895  0.5562851771447938  1.0000
  H   H10       1.0  0.2141593221763856  0.37300395589083724  0.9437143712285376  1.0000
  H   H11       1.0  0.3730177966898082  0.214117819013893  0.4437157523672326  1.0000
  H   H12       1.0  0.7858611450624694  0.6269713045994011  0.0562820885324625  1.0000
  H   H13       1.0  0.6297138692372568  0.02374665918442535  0.4947021286003306  1.0000
  H   H14       1.0  0.9762559188566797  0.37026011290313926  0.005304052089982671  1.0000
  H   H15       1.0  0.3702834149726116  0.9762111438600413  0.5052957243613746  1.0000
  H   H16       1.0  0.02375685729733591  0.6297297261455624  0.9947003331718349  1.0000
  H   H17       1.0  0.48510591002347786  0.13528111374535  0.7127741853074595  1.0000
  H   H18       1.0  0.864711136497263  0.5148574636098289  0.787234721335615  1.0000
  H   H19       1.0  0.5148081651426253  0.8647402827152465  0.2872189153546215  1.0000
  H   H20       1.0  0.1352790823000234  0.48518462793080636  0.21277061548682497  1.0000
  H   H21       1.0  0.4898445214954847  0.8929554614044974  0.7758292195555397  1.0000
  H   H22       1.0  0.10701592747295051  0.5101229860106573  0.7241667712744331  1.0000
  H   H23       1.0  0.5100768245397375  0.1070398451943717  0.2241632626972745  1.0000
  H   H24       1.0  0.8929788727483796  0.48988589188228115  0.27582837284918327  1.0000
  H   H25       1.0  0.003372566197157297  0.4256666669959017  0.3853306906698677  1.0000
  H   H26       1.0  0.5743961653424137  0.9966085390185245  0.11466394771910857  1.0000
  H   H27       1.0  0.9966187144516212  0.5744138795311929  0.6146499758625693  1.0000
  H   H28       1.0  0.4256734942451459  0.003384415881434641  0.8853262419685138  1.0000
  H   H29       1.0  0.7840401849408922  0.553653587694953  0.5953096903488841  1.0000
  H   H30       1.0  0.4464288990893409  0.21593842151259673  0.9046672187313335  1.0000
  H   H31       1.0  0.21593999721096685  0.4464491452950483  0.4046680747508802  1.0000
  H   H32       1.0  0.5536870859041301  0.784027294408297  0.09530488109307801  1.0000
  C   C1        1.0  0.5517814684423854  0.6846698640065014  0.7060488373768479  1.0000
  C   C2        1.0  0.3153289002449071  0.4481956307323998  0.7939508226751641  1.0000
  C   C3        1.0  0.44819163854084104  0.31531250811774925  0.2939633486346906  1.0000
  C   C4        1.0  0.6846969320144042  0.551772472242831  0.2060491332264007  1.0000
  C   C5        1.0  0.558086283456845  0.8262033299076208  0.6695617322876828  1.0000
  C   C6        1.0  0.17379395787860116  0.4419037828897174  0.8304423313206825  1.0000
  C   C7        1.0  0.44188891610600234  0.17379689853747488  0.3304359540404036  1.0000
  C   C8        1.0  0.8262157878909804  0.5580868314588513  0.16956562666366884  1.0000
  C   C9        1.0  0.5986155125810908  0.8620994407700807  0.5903474074982852  1.0000
  C   C10       1.0  0.1378995775588692  0.4013512614901629  0.909662875595778  1.0000
  C   C11       1.0  0.40135494862362725  0.13789518217114952  0.40964932440304835  1.0000
  C   C12       1.0  0.8621113976981364  0.5986341637997087  0.09033773887109924  1.0000
  C   C13       1.0  0.6001591754764348  0.9943736138198747  0.5561752491448075  1.0000
  C   C14       1.0  0.005615384480790902  0.3998278217382989  0.9438337702249555  1.0000
  C   C15       1.0  0.3998226266874241  0.005614276184736876  0.44382125338391626  1.0000
  C   C16       1.0  0.9943914929137563  0.6001799707993669  0.056163820828139366  1.0000
  C   C17       1.0  0.5583481122199104  0.09290174761329695  0.6002352142862151  1.0000
  C   C18       1.0  0.9070917404574034  0.4416026082065655  0.8997693400427806  1.0000
  C   C19       1.0  0.44159263361734713  0.9070857665047356  0.3997558802437098  1.0000
  C   C20       1.0  0.0929059512418959  0.5584094756489648  0.10023919281676538  1.0000
  C   C21       1.0  0.5499740400092747  0.23752412473681522  0.5625221416421055  1.0000
  C   C22       1.0  0.7624784909224259  0.4499998547997637  0.9374887623796012  1.0000
  C   C23       1.0  0.45001313526817205  0.7624566158860163  0.4374805206047298  1.0000
  C   C24       1.0  0.23753209737572692  0.5500148144770876  0.06252094106410769  1.0000
  C   C25       1.0  0.5182592479505318  0.056812981745004286  0.6795834506280443  1.0000
  C   C26       1.0  0.9431629497657639  0.48170068150889733  0.8204192986840652  1.0000
  C   C27       1.0  0.48168349110488157  0.9431750185486222  0.32041203285013603  1.0000
  C   C28       1.0  0.05682238599037249  0.5183183888366188  0.17958905630907648  1.0000
  C   C29       1.0  0.5196537241266623  0.9236706393252235  0.7142745266284293  1.0000
  C   C30       1.0  0.07630993143664  0.4803076487988847  0.7857241623281509  1.0000
  C   C31       1.0  0.48028098797986735  0.07631742235037112  0.28571694258327796  1.0000
  C   C32       1.0  0.9236934558127673  0.5197107591431022  0.21428238136579122  1.0000
  C   C33       1.0  0.7543012472059658  0.48017412412534083  0.4759951389865194  1.0000
  C   C34       1.0  0.5198323642360592  0.24570816893284336  0.02401787357163702  1.0000
  C   C35       1.0  0.2457009953862084  0.5198474976972206  0.5240153282929896  1.0000
  C   C36       1.0  0.4801921783908583  0.7543068147411279  0.975976137160103  1.0000
  C   C37       1.0  0.8813447742960392  0.489221622165104  0.4889005264498748  1.0000
  C   C38       1.0  0.5107897479554282  0.11865484514722624  0.011109716562493988  1.0000
  C   C39       1.0  0.11865591427505248  0.5107906829261567  0.5111090735883934  1.0000
  C   C40       1.0  0.48920839541144556  0.8813473904706443  0.9888907728011986  1.0000
  C   C41       1.0  0.003095801858059094  0.4584206561578057  0.43524841511044327  1.0000
  C   C42       1.0  0.5416142485401566  0.9969049559573337  0.06475463242529134  1.0000
  C   C43       1.0  0.9969052766533579  0.5416041600256064  0.5647595831685379  1.0000
  C   C44       1.0  0.45844031967601495  0.0030898758641911563  0.9352420102104729  1.0000
  C   C45       1.0  0.8790028135454903  0.5307200026769935  0.553869927813686  1.0000
  C   C46       1.0  0.46929756897478114  0.1210001595432217  0.9461383717082299  1.0000
  C   C47       1.0  0.12099440588626463  0.4693222696485295  0.4461352870276513  1.0000
  C   C48       1.0  0.5307063309714977  0.8790074312784386  0.0538645447522583  1.0000
  O   O1        1.0  0.5559529028368146  0.6101356616627032  0.6627842424156754  1.0000
  O   O2        1.0  0.3898512144209151  0.4440707328271571  0.8372110277001851  1.0000
  O   O3        1.0  0.44406672279414044  0.389836935973044  0.33722186260045817  1.0000
  O   O4        1.0  0.610158180219038  0.5559267401522873  0.16279105407627276  1.0000
  O   O5        1.0  0.5418123718241432  0.6472759550428577  0.7770870714309338  1.0000
  O   O6        1.0  0.3527007306600822  0.4582023749209087  0.7229152555694826  1.0000
  O   O7        1.0  0.4581971464930277  0.3527195817979063  0.22292437558584058  1.0000
  O   O8        1.0  0.6473116853868389  0.5417535918680658  0.2770894623318013  1.0000
  O   O9        1.0  0.5901906371432375  0.2652663303781821  0.4902766475757119  1.0000
  O   O10       1.0  0.7347257016712093  0.40976972398748057  0.009737112012608398  1.0000
  O   O11       1.0  0.40978989186663034  0.7347073740821769  0.5097330782911342  1.0000
  O   O12       1.0  0.26528846163861186  0.590213024023356  0.990280481997729  1.0000
  O   O13       1.0  0.5002901383261786  0.323993293321081  0.6047457397203572  1.0000
  O   O14       1.0  0.6760217428750436  0.4996658757718393  0.8952681100214119  1.0000
  O   O15       1.0  0.4996958203765089  0.6760119800571617  0.39524826462863416  1.0000
  O   O16       1.0  0.3240064669889123  0.5003366100383602  0.10474389292158293  1.0000
  O   O17       1.0  0.6446501579139722  0.5091320420288524  0.5254821868151964  1.0000
  O   O18       1.0  0.49086536429741306  0.3553630898824025  0.9745167093463677  1.0000
  O   O19       1.0  0.35536014098178725  0.4908671265490555  0.4745151986840384  1.0000
  O   O20       1.0  0.5091524851217456  0.6446448104564411  0.025468916255619038  1.0000
  O   O21       1.0  0.7590761195050392  0.4458804046201975  0.415489609642961  1.0000
  O   O22       1.0  0.5541260697409882  0.2409489568983076  0.08451482087163947  1.0000
  O   O23       1.0  0.24095982996620077  0.5541268821144173  0.5845101861250939  1.0000
  O   O24       1.0  0.44592168089226186  0.7590621181739297  0.9154749293930493  1.0000
  O   O25       1.0  0.2700150486251616  0.750101858016478  0.6506277324496138  1.0000
  O   O26       1.0  0.24990913733216755  0.7300033128983899  0.8493818003118675  1.0000
  O   O27       1.0  0.7300008977767831  0.24988528586010256  0.34938777248506625  1.0000
  O   O28       1.0  0.7500920514652948  0.26999919275450424  0.15063573769580066  1.0000
