data_image0
_chemical_formula_structural       Ag4H24C24N20O16
_chemical_formula_sum              "Ag4 H24 C24 N20 O16"
_cell_length_a       8.086021424036296
_cell_length_b       9.870114651293832
_cell_length_c       12.22264596421651
_cell_angle_alpha    109.83909107551383
_cell_angle_beta     90.00012343152147
_cell_angle_gamma    90.00025948989017

_space_group_name_H-M_alt    "P 1"
_space_group_IT_number       1

loop_
  _space_group_symop_operation_xyz
  'x, y, z'

loop_
  _atom_site_type_symbol
  _atom_site_label
  _atom_site_symmetry_multiplicity
  _atom_site_fract_x
  _atom_site_fract_y
  _atom_site_fract_z
  _atom_site_occupancy
  Ag  Ag1       1.0  0.202587481277007  0.1889703115669548  0.18956968823708556  1.0000
  Ag  Ag2       1.0  0.7025879269595735  0.3110294474558374  0.3104291168090683  1.0000
  Ag  Ag3       1.0  0.7974130211969951  0.811030488572577  0.8104301299633504  1.0000
  Ag  Ag4       1.0  0.2974138122131152  0.6889702756282291  0.6895704119648585  1.0000
  H   H1        1.0  0.7512820929413947  0.17331603439964743  0.7038188244323393  1.0000
  H   H2        1.0  0.2512790451469726  0.3266828366112264  0.7961794649526936  1.0000
  H   H3        1.0  0.2487196462305477  0.8266826267617305  0.29618205532796094  1.0000
  H   H4        1.0  0.7487189839200499  0.6733179483865115  0.20381871282972236  1.0000
  H   H5        1.0  0.7545500909168367  0.366281812215675  0.7634716135684556  1.0000
  H   H6        1.0  0.2545457812820048  0.13371814418643171  0.7365261540757189  1.0000
  H   H7        1.0  0.24545164825720178  0.6337179184362898  0.23652873541277591  1.0000
  H   H8        1.0  0.7454534844871574  0.8662826408143194  0.2634720237084097  1.0000
  H   H9        1.0  0.9127438635100943  0.2658311098879765  0.8003721511872611  1.0000
  H   H10       1.0  0.41273999059696115  0.23416854687469169  0.6996265848333465  1.0000
  H   H11       1.0  0.08725911236263073  0.7341675437085228  0.1996279083674537  1.0000
  H   H12       1.0  0.5872605118756906  0.7658322456969558  0.30037241315979196  1.0000
  H   H13       1.0  0.3624337166210053  0.515424759755618  0.4013996384352366  1.0000
  H   H14       1.0  0.8624294902926837  0.9845785077547049  0.09860038271604309  1.0000
  H   H15       1.0  0.6375655491508496  0.4845760403809012  0.598600179763487  1.0000
  H   H16       1.0  0.13756853878393827  0.015424446495750003  0.901400014337419  1.0000
  H   H17       1.0  0.026852526693886603  0.4741781319311399  0.7245198584367001  1.0000
  H   H18       1.0  0.5268525164559534  0.025821808585348507  0.7754792091975986  1.0000
  H   H19       1.0  0.9731467390710694  0.5258205140884444  0.2754793809055869  1.0000
  H   H20       1.0  0.47314674931455863  0.9741789839832932  0.22451978879383466  1.0000
  H   H21       1.0  0.8299233961378079  0.07775220181843423  0.5054706886458504  1.0000
  H   H22       1.0  0.32992028341944746  0.42224382829270724  0.9945277701998663  1.0000
  H   H23       1.0  0.17007834303278457  0.9222464517750597  0.4945293709071521  1.0000
  H   H24       1.0  0.6700777456378192  0.5777526711748139  0.005471710491562509  1.0000
  C   C1        1.0  0.27556517712671535  0.4563005130319341  0.4359324180722837  1.0000
  C   C2        1.0  0.7755621075765619  0.0436985240698391  0.0640662994122252  1.0000
  C   C3        1.0  0.7244340886382404  0.5436981329876504  0.5640668212700035  1.0000
  C   C4        1.0  0.22443592148145802  0.9562990373203778  0.93593183029283  1.0000
  C   C5        1.0  0.12070784063324422  0.3983538373832119  0.5547916564977271  1.0000
  C   C6        1.0  0.6207063267546856  0.101648713993491  0.9452082496141755  1.0000
  C   C7        1.0  0.8792938985394442  0.6016458857008617  0.4452078722761996  1.0000
  C   C8        1.0  0.37929417573101887  0.8983553248893444  0.054793257078223724  1.0000
  C   C9        1.0  0.9278610437465035  0.27117879441926374  0.6265694924325658  1.0000
  C   C10       1.0  0.427853994181099  0.22882096617498598  0.8734325662300931  1.0000
  C   C11       1.0  0.07214069542273188  0.7288198516063319  0.373429746913132  1.0000
  C   C12       1.0  0.5721415614910867  0.7711798717919509  0.12657135299999572  1.0000
  C   C13       1.0  0.8307800845574462  0.2685004174633789  0.7291882901086312  1.0000
  C   C14       1.0  0.33077519077552614  0.2314999250463856  0.7708113288172882  1.0000
  C   C15       1.0  0.16922289131392892  0.7314982285652365  0.27081094923877913  1.0000
  C   C16       1.0  0.6692228382976425  0.7685019521455987  0.22918877880795216  1.0000
  C   C17       1.0  0.9151831458507331  0.1668197925176784  0.5183466472405698  1.0000
  C   C18       1.0  0.4151782614741394  0.3331723442718868  0.9816508897359382  1.0000
  C   C19       1.0  0.0848198300206491  0.8331788535109298  0.48165259210684047  1.0000
  C   C20       1.0  0.5848210042887203  0.666825232257118  0.018348880385417595  1.0000
  C   C21       1.0  0.0034997845078947993  0.1719312311389345  0.4186243608291491  1.0000
  C   C22       1.0  0.5034971090994134  0.32807084316650753  0.0813805032306334  1.0000
  C   C23       1.0  0.9965019546530912  0.8280652532018354  0.5813734794528145  1.0000
  C   C24       1.0  0.4964996833215666  0.6719408334991501  0.9186336921490864  1.0000
  N   N1        1.0  0.20830544695139958  0.33222299163193725  0.3717089879854285  1.0000
  N   N2        1.0  0.7083020358732243  0.1677778798343184  0.12829094250799497  1.0000
  N   N3        1.0  0.7916950555191562  0.6677767314491235  0.6282905407867857  1.0000
  N   N4        1.0  0.2916947564922551  0.8322218508056026  0.8717094064663868  1.0000
  N   N5        1.0  0.27552742898784294  0.0022756076105068007  0.0490721297048182  1.0000
  N   N6        1.0  0.7755268902926177  0.49772450637219384  0.4509268771069869  1.0000
  N   N7        1.0  0.7244706000812825  0.9977262468778183  0.950925517298522  1.0000
  N   N8        1.0  0.22447484887796776  0.5022741472212999  0.5490731824460156  1.0000
  N   N9        1.0  0.0320821693091915  0.38718124089430017  0.6443549927887346  1.0000
  N   N10       1.0  0.5320779537352963  0.11281979455259261  0.8556435585269355  1.0000
  N   N11       1.0  0.9679195698614009  0.6128174126991867  0.3556450667642679  1.0000
  N   N12       1.0  0.46791883863648553  0.8871831445590814  0.1443551981102118  1.0000
  N   N13       1.0  0.1094039243075571  0.2952800780715565  0.44776263004757777  1.0000
  N   N14       1.0  0.6094017081190373  0.20472030452540224  0.052236206658093885  1.0000
  N   N15       1.0  0.8905990515651678  0.704718575524943  0.5522374295071372  1.0000
  N   N16       1.0  0.39059755765972426  0.7952826497280655  0.9477641903970734  1.0000
  N   N17       1.0  0.9617361258716101  0.360367276598467  0.06487781849990884  1.0000
  N   N18       1.0  0.46173743918413385  0.1396337587092376  0.43512334382089785  1.0000
  N   N19       1.0  0.03826313990504811  0.639634608164414  0.9351231093343415  1.0000
  N   N20       1.0  0.5382642999872118  0.8603659568069447  0.5648753647457313  1.0000
  O   O1        1.0  0.9956313133410576  0.08845125133435523  0.31682287185674335  1.0000
  O   O2        1.0  0.4956308428093905  0.41154775696358575  0.1831737043297679  1.0000
  O   O3        1.0  0.0043704258337343  0.911549541240305  0.6831761261381074  1.0000
  O   O4        1.0  0.5043671862486291  0.5884498044266311  0.8168244253752803  1.0000
  O   O5        1.0  0.0361934225829543  0.38572744842576884  0.16448020950938508  1.0000
  O   O6        1.0  0.5361953333755666  0.11427261574172583  0.3355225257230714  1.0000
  O   O7        1.0  0.9638070798910477  0.6142733517137701  0.835519608691051  1.0000
  O   O8        1.0  0.46380516909498226  0.8857271073393419  0.6644770030491429  1.0000
  O   O9        1.0  0.8537388655985723  0.4472673396851548  0.05679210673660147  1.0000
  O   O10       1.0  0.3537372504681641  0.0527320854203452  0.44320764720183087  1.0000
  O   O11       1.0  0.1462616368733336  0.5527323909637971  0.9432082422429104  1.0000
  O   O12       1.0  0.6462644887024284  0.9472665681731417  0.5567924123511717  1.0000
  O   O13       1.0  0.9997127159365036  0.24909832539475468  0.9819701788178107  1.0000
  O   O14       1.0  0.49971329418545446  0.25090285437484994  0.5180315478329405  1.0000
  O   O15       1.0  0.00028654983535150003  0.7509024747417713  0.018029639380913034  1.0000
  O   O16       1.0  0.5002884449906801  0.7490979457676945  0.4819682703692081  1.0000
