data_image0
_chemical_formula_structural       Co2H6C12N4O8
_chemical_formula_sum              "Co2 H6 C12 N4 O8"
_cell_length_a       5.699540741366687
_cell_length_b       8.113887955849153
_cell_length_c       9.552734565339625
_cell_angle_alpha    64.96532380537933
_cell_angle_beta     89.82217303308636
_cell_angle_gamma    89.50855836606749

_space_group_name_H-M_alt    "P 1"
_space_group_IT_number       1

loop_
  _space_group_symop_operation_xyz
  'x, y, z'

loop_
  _atom_site_type_symbol
  _atom_site_label
  _atom_site_symmetry_multiplicity
  _atom_site_fract_x
  _atom_site_fract_y
  _atom_site_fract_z
  _atom_site_occupancy
  Co  Co1       1.0  0.5002834712056339  0.15098623515840603  0.6983206523550578  1.0000
  Co  Co2       1.0  0.4994648865414533  0.8487942317455859  0.3016458133328824  1.0000
  H   H1        1.0  0.945579769750253  0.8907228536041316  0.7483811850603387  1.0000
  H   H2        1.0  0.05572987208596912  0.3619125865715062  0.7485885450587374  1.0000
  H   H3        1.0  0.054588449500315106  0.1095653359486519  0.2516555076325843  1.0000
  H   H4        1.0  0.9445747632105393  0.638651873543452  0.2514957911217265  1.0000
  H   H5        1.0  0.11783815065776082  0.6641802796282971  0.999881988141297  1.0000
  H   H6        1.0  0.8828716701575344  0.3366017534184209  0.0002005554858257951  1.0000
  C   C1        1.0  0.5991143990848329  0.9471414526165985  0.9999745329473056  1.0000
  C   C2        1.0  0.400546605645644  0.052764452461921976  3.346380984229434e-05  1.0000
  C   C3        1.0  0.8706153789785845  0.8701164341504323  0.8595522994382777  1.0000
  C   C4        1.0  0.13012863647884393  0.2710315381146414  0.859765022334102  1.0000
  C   C5        1.0  0.1294985541989746  0.13015482553703348  0.14043487453389497  1.0000
  C   C6        1.0  0.8701094030839654  0.7294203251858206  0.14024415490493417  1.0000
  C   C7        1.0  0.9658313469960331  0.7464491823792158  0.9999150410382923  1.0000
  C   C8        1.0  0.03456748929793461  0.25408532415116974  0.00015466671712971152  1.0000
  C   C9        1.0  0.38996137370511963  0.9423368651011753  0.5356332905548625  1.0000
  C   C10       1.0  0.6098770717190192  0.5218395568324325  0.5355385712521681  1.0000
  C   C11       1.0  0.609684092793536  0.05716027423058289  0.46442159603169125  1.0000
  C   C12       1.0  0.39013190720074675  0.4777648922438401  0.46432629366539396  1.0000
  N   N1        1.0  0.6831838612933225  0.9734793067180758  0.8598458425991992  1.0000
  N   N2        1.0  0.31736670397135913  0.16718242427975843  0.8599345334856849  1.0000
  N   N3        1.0  0.3166148424197459  0.026495241454057294  0.1401394560401954  1.0000
  N   N4        1.0  0.6824864676759289  0.8329317611650422  0.140022630623875  1.0000
  O   O1        1.0  0.3121764883053544  0.9383524248590118  0.6602458827042881  1.0000
  O   O2        1.0  0.688101819760753  0.4016674050466874  0.6601078493301671  1.0000
  O   O3        1.0  0.6875346542708268  0.061129810440405656  0.3398196134189604  1.0000
  O   O4        1.0  0.3120106107658671  0.5978636086527371  0.33970752197596  1.0000
  O   O5        1.0  0.3009577428178432  0.8585593856533009  0.4614644661716054  1.0000
  O   O6        1.0  0.6983546303828803  0.679699846841352  0.4614191892931244  1.0000
  O   O7        1.0  0.698710126690372  0.14096802206770326  0.5385779294772135  1.0000
  O   O8        1.0  0.3015061178761087  0.32000323228231764  0.5385466511020951  1.0000
