data_image0
_chemical_formula_structural       ZnH22C16Br4N2O8
_chemical_formula_sum              "Zn1 H22 C16 Br4 N2 O8"
_cell_length_a       8.210664223702999
_cell_length_b       8.946048526127468
_cell_length_c       9.031519257171642
_cell_angle_alpha    78.00837698633751
_cell_angle_beta     69.70096823014852
_cell_angle_gamma    77.84953120551314

_space_group_name_H-M_alt    "P 1"
_space_group_IT_number       1

loop_
  _space_group_symop_operation_xyz
  'x, y, z'

loop_
  _atom_site_type_symbol
  _atom_site_label
  _atom_site_symmetry_multiplicity
  _atom_site_fract_x
  _atom_site_fract_y
  _atom_site_fract_z
  _atom_site_occupancy
  Zn  Zn1       1.0  0.5000018235905728  0.49999970288007484  0.49999962291543915  1.0000
  H   H1        1.0  0.24690052625725653  0.5224839920949195  0.3993391648042319  1.0000
  H   H2        1.0  0.753100165602383  0.4775177900587693  0.6006660517897018  1.0000
  H   H3        1.0  0.44006041929597467  0.8261278993250444  0.5795773843617128  1.0000
  H   H4        1.0  0.5599397416301456  0.1738760463434872  0.42041866326794536  1.0000
  H   H5        1.0  0.11300937465846059  0.6617487200130299  0.9198982959171006  1.0000
  H   H6        1.0  0.8869914408141993  0.338251776908507  0.0800994146978269  1.0000
  H   H7        1.0  0.9742244393860132  0.8450103472712485  0.9326511010621772  1.0000
  H   H8        1.0  0.025775507837145994  0.1549878243581091  0.06734741095462482  1.0000
  H   H9        1.0  0.13395975322745093  0.7907108119715077  0.03699221265856782  1.0000
  H   H10       1.0  0.8660397662285462  0.2092896711543091  0.9630059234566133  1.0000
  H   H11       1.0  0.3411130028999168  0.05085792401680321  0.6584841949205186  1.0000
  H   H12       1.0  0.6588849937600472  0.9491436825638291  0.341513079611282  1.0000
  H   H13       1.0  0.2504297322739504  0.050043708785246103  0.8679782441230374  1.0000
  H   H14       1.0  0.7495682643860136  0.9499578977953861  0.13201903040875596  1.0000
  H   H15       1.0  0.10814077162230257  0.07832814612479669  0.749887231576885  1.0000
  H   H16       1.0  0.8918572250376611  0.9216734604558356  0.2501100429549086  1.0000
  H   H17       1.0  0.16542589999713905  0.38863899697512483  0.7304888424815132  1.0000
  H   H18       1.0  0.8345789066918528  0.6113616893151814  0.2695163846952937  1.0000
  H   H19       1.0  0.03266569132922829  0.3599111542238589  0.6206801144545437  1.0000
  H   H20       1.0  0.9673391282555598  0.6400895505641556  0.379326211855087  1.0000
  H   H21       1.0  0.04425117503021882  0.5513250581871602  0.6441437906596192  1.0000
  H   H22       1.0  0.9557525753172769  0.44867449555460587  0.3558642482339139  1.0000
  C   C1        1.0  0.395148094521545  0.7358522976726434  0.2447208936687204  1.0000
  C   C2        1.0  0.6048577556131393  0.2641495026685021  0.7552804226585222  1.0000
  C   C3        1.0  0.4440250787559066  0.87265546846006  0.11528334737684537  1.0000
  C   C4        1.0  0.5559746803752645  0.1273438959129365  0.8847171749548082  1.0000
  C   C5        1.0  0.5709566291325953  0.8487765822850407  0.96764140556148  1.0000
  C   C6        1.0  0.42904246273686647  0.15121928254983888  0.03235900699003478  1.0000
  C   C7        1.0  0.6264618973200128  0.9760333144236385  0.8538422873809495  1.0000
  C   C8        1.0  0.3735330539285044  0.0239636092792139  0.14615591632203725  1.0000
  C   C9        1.0  0.34781066433040303  0.7631289122244455  0.6810978265579308  1.0000
  C   C10       1.0  0.6521867293661997  0.23687621709399312  0.3189021815199241  1.0000
  C   C11       1.0  0.10610078335192699  0.783352757173418  0.9282433730680706  1.0000
  C   C12       1.0  0.8938998053413556  0.21664887699865434  0.0717530504632151  1.0000
  C   C13       1.0  0.23358432937789084  0.0163509043778518  0.7646660606981113  1.0000
  C   C14       1.0  0.7664160454318106  0.98365188554245  0.23533017488236402  1.0000
  C   C15       1.0  0.11872637282781538  0.43513613983991933  0.6276623221236264  1.0000
  C   C16       1.0  0.8812758676194437  0.5648645558543635  0.3723459543193571  1.0000
  Br  Br1       1.0  0.6632379208676933  0.6436044155267453  0.9260643755837279  1.0000
  Br  Br2       1.0  0.3367621166260263  0.35639388558652746  0.07394183036289094  1.0000
  Br  Br3       1.0  0.7976631271702459  0.9458997056470508  0.6521198662058868  1.0000
  Br  Br4       1.0  0.20231458161763527  0.054091005704485405  0.3478709455279585  1.0000
  N   N1        1.0  0.23532035322937617  0.8506250788273135  0.7876916264815464  1.0000
  N   N2        1.0  0.7646821602355158  0.1493730833980749  0.2123038362690793  1.0000
  O   O1        1.0  0.49127806971021937  0.7016337903822317  0.3346157595275159  1.0000
  O   O2        1.0  0.5087240288833002  0.29836670183732394  0.6653804264543126  1.0000
  O   O3        1.0  0.2693470433555659  0.6721580044274662  0.2512994322279313  1.0000
  O   O4        1.0  0.7306516852257019  0.32784026439239267  0.7487061000861175  1.0000
  O   O5        1.0  0.27016528202491935  0.4394690980219024  0.4868556274222726  1.0000
  O   O6        1.0  0.7298364919678023  0.5605338536757357  0.5131489757205969  1.0000
  O   O7        1.0  0.34968932131458524  0.6207487818526545  0.6930123894280201  1.0000
  O   O8        1.0  0.6503125762911496  0.3792528846128319  0.3069847077358361  1.0000
