data_image0
_chemical_formula_structural       MnH24C18S2N14
_chemical_formula_sum              "Mn1 H24 C18 S2 N14"
_cell_length_a       8.396596465953646
_cell_length_b       8.710813619638065
_cell_length_c       11.234229954417788
_cell_angle_alpha    108.43328507679367
_cell_angle_beta     91.0799557060831
_cell_angle_gamma    105.2231215414771

_space_group_name_H-M_alt    "P 1"
_space_group_IT_number       1

loop_
  _space_group_symop_operation_xyz
  'x, y, z'

loop_
  _atom_site_type_symbol
  _atom_site_label
  _atom_site_symmetry_multiplicity
  _atom_site_fract_x
  _atom_site_fract_y
  _atom_site_fract_z
  _atom_site_occupancy
  Mn  Mn1       1.0  6.529398010000408e-05  9.72540129139563e-06  0.9999017568955609  1.0000
  H   H1        1.0  0.5111923232309863  0.7205237006944644  0.18350530714738505  1.0000
  H   H2        1.0  0.4888095558143348  0.2794829315411036  0.8164995165251412  1.0000
  H   H3        1.0  0.6409381124891098  0.7913508936578068  0.07642604511671885  1.0000
  H   H4        1.0  0.35906770180722697  0.20865689960687914  0.9235826747291114  1.0000
  H   H5        1.0  0.45723230286516536  0.5643120411882805  0.8943284488149955  1.0000
  H   H6        1.0  0.5427763794732883  0.4356933487154464  0.10567610091788278  1.0000
  H   H7        1.0  0.31752388512097707  0.5007485575795485  0.9981424083116863  1.0000
  H   H8        1.0  0.6824786315338898  0.4992518014805185  0.001859884140188212  1.0000
  H   H9        1.0  0.35638414444837707  0.20674678630474116  0.1793249673606212  1.0000
  H   H10       1.0  0.6436298752169805  0.793262485485158  0.8206370128583699  1.0000
  H   H11       1.0  0.19014292372256142  0.692436812480416  0.9619064663043274  1.0000
  H   H12       1.0  0.8098918441131031  0.3075701036234903  0.03805149290691648  1.0000
  H   H13       1.0  0.7340076084957802  0.2083718365246696  0.4758128285091558  1.0000
  H   H14       1.0  0.2659685254327541  0.7916229430755093  0.5242029351431013  1.0000
  H   H15       1.0  0.7957019949183461  0.07555237536758597  0.5473376283093074  1.0000
  H   H16       1.0  0.2042566311914058  0.9244433706671484  0.4526862685531369  1.0000
  H   H17       1.0  0.5451024708471195  0.8366381105881331  0.4294229980924413  1.0000
  H   H18       1.0  0.45486340332866604  0.1633543955510035  0.5705831869472675  1.0000
  H   H19       1.0  0.4856094439483202  0.9699161127751453  0.35717253087445044  1.0000
  H   H20       1.0  0.5143634807505464  0.030089154301762695  0.6428326038406169  1.0000
  H   H21       1.0  0.9759321815703718  0.7494966829831212  0.18033478425952848  1.0000
  H   H22       1.0  0.024059743081586794  0.2505022186719898  0.819713344745864  1.0000
  H   H23       1.0  0.8296846420984707  0.19511353923265054  0.2576174226695969  1.0000
  H   H24       1.0  0.1703145981292096  0.8048697378590572  0.742402622975625  1.0000
  C   C1        1.0  0.5130354638309599  0.7310621878610561  0.0884908530517023  1.0000
  C   C2        1.0  0.48696999385681045  0.2689444264325829  0.9115148836345027  1.0000
  C   C3        1.0  0.4487965341707111  0.5567396699839049  0.9901472439087015  1.0000
  C   C4        1.0  0.551206195975432  0.44326562159740474  0.009859905700316942  1.0000
  C   C5        1.0  0.35222336410582483  0.07540666918897898  0.13554171201667486  1.0000
  C   C6        1.0  0.647794093701492  0.9246063107322725  0.8644239384061334  1.0000
  C   C7        1.0  0.2645146802464994  0.8145314053078181  0.02378502057682396  1.0000
  C   C8        1.0  0.7355097187376245  0.1854766336852407  0.9761767155235503  1.0000
  C   C9        1.0  0.727059448755924  0.07648182633917597  0.4634850084177913  1.0000
  C   C10       1.0  0.2729000153706096  0.9235127164259181  0.5365367984179983  1.0000
  C   C11       1.0  0.5466284625761517  0.9681096803515884  0.4439885127100496  1.0000
  C   C12       1.0  0.4533369328082273  0.03188518055131339  0.5560236287085729  1.0000
  C   C13       1.0  0.9248522307691615  0.8534218026571165  0.22479071821609856  1.0000
  C   C14       1.0  0.07514166661817262  0.14656707545062628  0.775253015511467  1.0000
  C   C15       1.0  0.8538731470192148  0.08089202356531187  0.2620251913083038  1.0000
  C   C16       1.0  0.1461189751756891  0.9190908772564227  0.7380062761989876  1.0000
  C   C17       1.0  0.12624427878429867  0.381979409994976  0.15341284629808874  1.0000
  C   C18       1.0  0.8737911217071216  0.6180118599389174  0.8465579303535263  1.0000
  S   S1        1.0  0.17058543339775406  0.5745223574227436  0.24861604425659317  1.0000
  S   S2        1.0  0.8294041692657002  0.42544310994559703  0.7514037074459309  1.0000
  N   N1        1.0  0.41568635234948204  0.8458501992306393  0.0837057212747751  1.0000
  N   N2        1.0  0.5843122421384095  0.15414886141569892  0.9162970909669355  1.0000
  N   N3        1.0  0.4731912610344581  0.011553779773230096  0.1557234247861317  1.0000
  N   N4        1.0  0.5268013838779241  0.9884451550737623  0.8442828705243527  1.0000
  N   N5        1.0  0.2208696757941554  0.9589303645415582  0.05411502933650775  1.0000
  N   N6        1.0  0.7791722176448843  0.041086273349918705  0.9458170425442559  1.0000
  N   N7        1.0  0.8158417005021049  0.017209045716143102  0.3558403531693273  1.0000
  N   N8        1.0  0.18412972296201255  0.9827851166784142  0.6441948009593544  1.0000
  N   N9        1.0  0.8601610421339886  0.871959072118983  0.33375975857391177  1.0000
  N   N10       1.0  0.13980852844059652  0.1280321796166888  0.6662870831477221  1.0000
  N   N11       1.0  0.922979265044418  0.9792115734589898  0.17660730851651604  1.0000
  N   N12       1.0  0.07702287253756171  0.02078066829341909  0.8234516166804156  1.0000
  N   N13       1.0  0.09189925345498304  0.2395702336750247  0.0837022638762193  1.0000
  N   N14       1.0  0.9081508354131458  0.7604596629171636  0.9162128701529467  1.0000
