data_image0
_chemical_formula_structural       Mn2H34C40N14O14
_chemical_formula_sum              "Mn2 H34 C40 N14 O14"
_cell_length_a       7.394687023625024
_cell_length_b       11.888765092178023
_cell_length_c       11.88866352547394
_cell_angle_alpha    91.88630513472465
_cell_angle_beta     93.87334825791672
_cell_angle_gamma    93.87378268752339

_space_group_name_H-M_alt    "P 1"
_space_group_IT_number       1

loop_
  _space_group_symop_operation_xyz
  'x, y, z'

loop_
  _atom_site_type_symbol
  _atom_site_label
  _atom_site_symmetry_multiplicity
  _atom_site_fract_x
  _atom_site_fract_y
  _atom_site_fract_z
  _atom_site_occupancy
  Mn  Mn1       1.0  0.15886303945982413  0.9513196664404264  0.5707427131881601  1.0000
  Mn  Mn2       1.0  0.6589132096462649  0.5707829251410887  0.9513563171908924  1.0000
  H   H1        1.0  0.1672869956827583  0.28559188944984737  0.36361525602642786  1.0000
  H   H2        1.0  0.6672367601247372  0.36356039200652657  0.2855815340342288  1.0000
  H   H3        1.0  0.39451402082031717  0.32298167492170654  0.7061233274744153  1.0000
  H   H4        1.0  0.894527463181035  0.7060653597454877  0.322920137787868  1.0000
  H   H5        1.0  0.8067539608401975  0.19622677059847154  0.22737975638336386  1.0000
  H   H6        1.0  0.3067576001337784  0.2273862317872073  0.19622757691482204  1.0000
  H   H7        1.0  0.7384908906989409  0.8207450369200872  0.611537362657067  1.0000
  H   H8        1.0  0.23856920302110043  0.6115543880694221  0.820753162529371  1.0000
  H   H9        1.0  0.6240531687296241  0.8955120968896467  0.9333577354910003  1.0000
  H   H10       1.0  0.12400832223293179  0.9333626979285086  0.8955037094542531  1.0000
  H   H11       1.0  0.40598904302090233  0.8825807405311256  0.7262804735623261  1.0000
  H   H12       1.0  0.906089653739919  0.7263018318177217  0.8825757814375235  1.0000
  H   H13       1.0  0.2329719333290471  0.7895584050570011  0.6953972624430306  1.0000
  H   H14       1.0  0.7330446158326397  0.6954392143860989  0.7895756648412229  1.0000
  H   H15       1.0  0.7398749458790519  0.24789246822211913  0.029625982479188896  1.0000
  H   H16       1.0  0.23987137366574982  0.02961980504749561  0.24787587988613063  1.0000
  H   H17       1.0  0.48021582830784854  0.09765665909895924  0.826149837087051  1.0000
  H   H18       1.0  0.9802282227148781  0.8261353030656267  0.09765848362062707  1.0000
  H   H19       1.0  0.671115221952796  0.19691320989960567  0.8364681366704684  1.0000
  H   H20       1.0  0.17113760792289417  0.8364883113243736  0.19691544395850966  1.0000
  H   H21       1.0  0.692002962255508  0.8455871304090935  0.1304789776668684  1.0000
  H   H22       1.0  0.1919752210119796  0.13049344103922783  0.8455903273186747  1.0000
  H   H23       1.0  0.45103206555108966  0.6010304519444889  0.4855395754571815  1.0000
  H   H24       1.0  0.9510001407581754  0.4855090519285313  0.6009944510057108  1.0000
  H   H25       1.0  0.5609751012962861  0.07682231958911251  0.4744721274130724  1.0000
  H   H26       1.0  0.060968872205258214  0.47446463620123325  0.07684328632920767  1.0000
  H   H27       1.0  0.30900889421483413  0.7538547625600744  0.3913248062040039  1.0000
  H   H28       1.0  0.8090178689888604  0.39135705695257184  0.7538597008594791  1.0000
  H   H29       1.0  0.8847730172433615  0.9186345330827451  0.3194629469328233  1.0000
  H   H30       1.0  0.3847722943781022  0.31947113644478264  0.9186343086360079  1.0000
  H   H31       1.0  0.8469709798394618  0.0573812915140408  0.36692783572801346  1.0000
  H   H32       1.0  0.3469672477014214  0.3669341368759974  0.05738770469550049  1.0000
  H   H33       1.0  0.9534182657631831  0.14287961988475226  0.7328801371727421  1.0000
  H   H34       1.0  0.45344306662588707  0.7328897665841224  0.14290924431231383  1.0000
  C   C1        1.0  0.431052406679811  0.4699777740939128  0.6060439519382326  1.0000
  C   C2        1.0  0.9310327631292027  0.6059923581009345  0.4699276241357919  1.0000
  C   C3        1.0  0.22329556317336605  0.16916962006143882  0.5516299051127758  1.0000
  C   C4        1.0  0.7232278480253174  0.5515932578911846  0.16913863761154593  1.0000
  C   C5        1.0  0.674001511542251  0.07565708544458262  0.9677540875066766  1.0000
  C   C6        1.0  0.17400559139535693  0.9677534490538379  0.07564704314934537  1.0000
  C   C7        1.0  0.2418218313587417  0.3365728083113098  0.43132821407673555  1.0000
  C   C8        1.0  0.7417490576500045  0.4312667232399294  0.3365489927511688  1.0000
  C   C9        1.0  0.3695096540002539  0.35836653503454846  0.6238157483756125  1.0000
  C   C10       1.0  0.8695043955164582  0.623757651142647  0.3583098087440034  1.0000
  C   C11       1.0  0.7649255355607282  0.1304066325658653  0.16298501487028005  1.0000
  C   C12       1.0  0.2649172815837631  0.16298982351376176  0.13040550456024386  1.0000
  C   C13       1.0  0.2777339710344364  0.2910100286053848  0.5363020789124986  1.0000
  C   C14       1.0  0.7776706729453124  0.5362402895747566  0.29099745003173166  1.0000
  C   C15       1.0  0.7573588261982638  0.9020559306996249  0.6564424123973109  1.0000
  C   C16       1.0  0.2574321879187025  0.656463450133238  0.9020617230636672  1.0000
  C   C17       1.0  0.6602823813032259  0.962457965759967  0.997417030750057  1.0000
  C   C18       1.0  0.16026479850015826  0.9974190538061266  0.9624460423320753  1.0000
  C   C19       1.0  0.3035919584782222  0.4479341913143814  0.4150980636250806  1.0000
  C   C20       1.0  0.8035628313695115  0.4150500041562141  0.4479146412921933  1.0000
  C   C21       1.0  0.7279438040584909  0.15919484876782522  0.0512010977071427  1.0000
  C   C22       1.0  0.2279427719335985  0.05120460284170041  0.15918417401267246  1.0000
  C   C23       1.0  0.6271219653909058  0.10834108628181845  0.8479418915270994  1.0000
  C   C24       1.0  0.12713246454153904  0.8479500078757671  0.10834708113036838  1.0000
  C   C25       1.0  0.7498687007557551  0.017598484843354405  0.19292221715035393  1.0000
  C   C26       1.0  0.24984753355067113  0.19293312908430246  0.0175958530827103  1.0000
  C   C27       1.0  0.5336893309469417  0.5412673120894171  0.6997596602878102  1.0000
  C   C28       1.0  0.03369932426308962  0.6997341330411334  0.5412103877515759  1.0000
  C   C29       1.0  0.6991142440108293  0.9341014111911436  0.10866775233089498  1.0000
  C   C30       1.0  0.19908264152761757  0.10867660778799862  0.9340999820235464  1.0000
  C   C31       1.0  0.3997957982054032  0.5152577354602599  0.5001839895777777  1.0000
  C   C32       1.0  0.8997521193900156  0.5001388609841158  0.5152179119611161  1.0000
  C   C33       1.0  0.5257430616526693  0.992230345362579  0.4392571166706602  1.0000
  C   C34       1.0  0.02574910183142982  0.43926039273033995  0.9922492154073052  1.0000
  C   C35       1.0  0.4022966744039069  0.8282491418039589  0.39493948451688243  1.0000
  C   C36       1.0  0.9022991306056554  0.3949628122596209  0.8282534835744283  1.0000
  C   C37       1.0  0.7888831641652274  0.9852231880062238  0.3135939087311924  1.0000
  C   C38       1.0  0.288878395786945  0.3136030413990413  0.9852258742823633  1.0000
  C   C39       1.0  0.8696738423071865  0.06479595474015551  0.7166893780469008  1.0000
  C   C40       1.0  0.36971516732561577  0.7167061343943786  0.06482308189952589  1.0000
  N   N1        1.0  0.2644735257555411  0.49397463138382863  0.3049548596711417  1.0000
  N   N2        1.0  0.7644845215441196  0.30492645623323983  0.493957720360214  1.0000
  N   N3        1.0  0.7118641383183261  0.041592504587100614  0.7634235771160643  1.0000
  N   N4        1.0  0.2118938597575593  0.7634293437259531  0.04160553517205299  1.0000
  N   N5        1.0  0.5477702862839565  0.8356991996848679  0.3351563990184942  1.0000
  N   N6        1.0  0.047768954424775203  0.33517705273271764  0.8357012274466058  1.0000
  N   N7        1.0  0.902544870857902  0.9779069412742633  0.6482463016452156  1.0000
  N   N8        1.0  0.4026198924904492  0.6482720467765974  0.9779255741646649  1.0000
  N   N9        1.0  0.6382761800142519  0.9378804680473397  0.7256318357766672  1.0000
  N   N10       1.0  0.1383478223418493  0.7256406404322676  0.9378777436404275  1.0000
  N   N11       1.0  0.6246726168141734  0.9408341715342345  0.36463056239413305  1.0000
  N   N12       1.0  0.12467596567069711  0.36463898642235654  0.9408419453128258  1.0000
  N   N13       1.0  0.3826980821009585  0.9228276132424115  0.4602793243530882  1.0000
  N   N14       1.0  0.8827065522635351  0.46029435961827414  0.9228481967440485  1.0000
  O   O1        1.0  0.2833546594006506  0.1222379448740298  0.6406545702261892  1.0000
  O   O2        1.0  0.7833352449405951  0.6406286790851469  0.12221456134220428  1.0000
  O   O3        1.0  0.6140321337614766  0.633540366549454  0.6758830804142659  1.0000
  O   O4        1.0  0.11402566711945643  0.675841609953679  0.6334853253548614  1.0000
  O   O5        1.0  0.1804443206299524  0.43021049744673706  0.23075508501921144  1.0000
  O   O6        1.0  0.6804991959128657  0.2306811676748383  0.4302349532353559  1.0000
  O   O7        1.0  0.53098840523014  0.49992022861476226  0.7983821010469467  1.0000
  O   O8        1.0  0.03100800132794754  0.7983530950404119  0.4998532072315454  1.0000
  O   O9        1.0  0.2712479336607815  0.8708176745234019  0.7160372783219484  1.0000
  O   O10       1.0  0.7713419801683943  0.7160718521697405  0.8708337636520792  1.0000
  O   O11       1.0  0.3145042859983036  0.5939817397813131  0.2896339884436259  1.0000
  O   O12       1.0  0.8144991045405874  0.28961570645154217  0.593985925086528  1.0000
  O   O13       1.0  0.12402735176742404  0.11448617236962383  0.473564616363184  1.0000
  O   O14       1.0  0.6239377002061418  0.4735351229032006  0.11445911872294799  1.0000
