data_image0
_chemical_formula_structural       Ni4H60C80N8O18
_chemical_formula_sum              "Ni4 H60 C80 N8 O18"
_cell_length_a       13.680250366599116
_cell_length_b       13.680281684341185
_cell_length_c       18.24528036968771
_cell_angle_alpha    103.70474492180408
_cell_angle_beta     103.7035775093455
_cell_angle_gamma    111.60292469428435

_space_group_name_H-M_alt    "P 1"
_space_group_IT_number       1

loop_
  _space_group_symop_operation_xyz
  'x, y, z'

loop_
  _atom_site_type_symbol
  _atom_site_label
  _atom_site_symmetry_multiplicity
  _atom_site_fract_x
  _atom_site_fract_y
  _atom_site_fract_z
  _atom_site_occupancy
  Ni  Ni1       1.0  0.8326736973346626  0.3539045583423785  0.46485787392063577  1.0000
  Ni  Ni2       1.0  0.6322163511781369  0.11096503044640109  0.4648439309177236  1.0000
  Ni  Ni3       1.0  0.6039002332834613  0.5826639256201318  0.964859519503058  1.0000
  Ni  Ni4       1.0  0.36096075142872047  0.38221040271428547  0.9648432038314425  1.0000
  H   H1        1.0  0.04235166098433038  0.4011458485147017  0.4311861380538033  1.0000
  H   H2        1.0  0.388692791780187  0.0301104461287593  0.4311733309791563  1.0000
  H   H3        1.0  0.6511280793137361  0.7923419801405913  0.9311905498493048  1.0000
  H   H4        1.0  0.28008764121513974  0.13868378912108884  0.9311761801158625  1.0000
  H   H5        1.0  0.14937095318770593  0.509893638182433  0.35989843367039503  1.0000
  H   H6        1.0  0.21031567198108553  0.850131306500657  0.3599065083919086  1.0000
  H   H7        1.0  0.7598736864535739  0.8993703619696446  0.8599051699709149  1.0000
  H   H8        1.0  0.10010280032385312  0.9603132371703752  0.8599074209985957  1.0000
  H   H9        1.0  0.8770360439064929  0.5972166956940085  0.2881047272439191  1.0000
  H   H10       1.0  0.4106981654195608  0.6907983863850404  0.288117139293746  1.0000
  H   H11       1.0  0.8472163614497887  0.627044650275664  0.7881075489589904  1.0000
  H   H12       1.0  0.9407908085234027  0.16071037419811748  0.7881231369825629  1.0000
  H   H13       1.0  0.7826959935216918  0.48385105869441947  0.3625744028901324  1.0000
  H   H14       1.0  0.5795840893129239  0.8785725042941194  0.36259167117341934  1.0000
  H   H15       1.0  0.7338547146574399  0.5327018761289889  0.862577913226879  1.0000
  H   H16       1.0  0.1285654240288067  0.32959145328482703  0.8626012764893076  1.0000
  H   H17       1.0  0.06552911120269307  0.7018311859580635  0.27607977751849694  1.0000
  H   H18       1.0  0.21020994013387903  0.5742645343752882  0.27616591596804335  1.0000
  H   H19       1.0  0.9518187803671836  0.8155380568233851  0.7760832798001118  1.0000
  H   H20       1.0  0.824244876109269  0.9602130365135649  0.7761663734442977  1.0000
  H   H21       1.0  0.00860481124097844  0.467003729732852  0.16645759934053223  1.0000
  H   H22       1.0  0.1576319067302023  0.699386962409001  0.1664893134751964  1.0000
  H   H23       1.0  0.7169931125369544  0.758603392195475  0.6664592767956208  1.0000
  H   H24       1.0  0.9493783854448595  0.9076311223238988  0.6664945475379015  1.0000
  H   H25       1.0  0.014149422960663582  0.7396303521566168  0.1440696133181163  1.0000
  H   H26       1.0  0.12979465081708952  0.4043712377017243  0.14403151753708704  1.0000
  H   H27       1.0  0.9896266399385354  0.7641510848508872  0.644083808231656  1.0000
  H   H28       1.0  0.6543645446388809  0.8797967408811544  0.6440312226907922  1.0000
  H   H29       1.0  0.8422517752792802  0.7403328601064771  0.05967549028260069  1.0000
  H   H30       1.0  0.2174122723368157  0.31940427659744586  0.05966054537984891  1.0000
  H   H31       1.0  0.9903370168675281  0.5922577770827429  0.5596845739693208  1.0000
  H   H32       1.0  0.5694041453484149  0.9674157159206304  0.5596623068650147  1.0000
  H   H33       1.0  0.6512606910362065  0.3998731485657172  0.004135046717713916  1.0000
  H   H34       1.0  0.3529907220793477  0.6045512859226391  0.0043916062596523935  1.0000
  H   H35       1.0  0.6498733842531337  0.40125779276803536  0.5041244036527672  1.0000
  H   H36       1.0  0.8545537475417009  0.10298728198387863  0.504393471441226  1.0000
  H   H37       1.0  0.8145544093505277  0.38353131446913824  0.08674785953347454  1.0000
  H   H38       1.0  0.27244932425719537  0.7034649038018372  0.08715423241763892  1.0000
  H   H39       1.0  0.6335208552812333  0.5645476041494388  0.5867396601574413  1.0000
  H   H40       1.0  0.9534607800146517  0.022442279370054007  0.5871529001128623  1.0000
  H   H41       1.0  0.3697387039208948  0.08165846194152943  0.29503271084425364  1.0000
  H   H42       1.0  0.9255578443025527  0.2135551544054336  0.29518562383999125  1.0000
  H   H43       1.0  0.33165606525925273  0.11972234851727133  0.7950363382204627  1.0000
  H   H44       1.0  0.46355944313680914  0.6755323525703999  0.7951804506466686  1.0000
  H   H45       1.0  0.22127591982382463  0.04001065355569718  0.1649365926084698  1.0000
  H   H46       1.0  0.9438394973483073  0.12510226381288445  0.16505718050790824  1.0000
  H   H47       1.0  0.2900022830573405  0.9712617986788388  0.6649329886046687  1.0000
  H   H48       1.0  0.3750981392498929  0.6938346109368254  0.6650624749197078  1.0000
  H   H49       1.0  0.2695240055337038  0.15677107433262447  0.08020164344637241  1.0000
  H   H50       1.0  0.8108710330230124  0.9236027299469993  0.08029188003396119  1.0000
  H   H51       1.0  0.406759878900182  0.01951448597758075  0.5801955368062223  1.0000
  H   H52       1.0  0.17359506558366178  0.5608648830763912  0.5802995786932357  1.0000
  H   H53       1.0  0.6079792167385492  0.34943847763683067  0.2514827194437714  1.0000
  H   H54       1.0  0.6437736097391991  0.902205951211549  0.2516198151508817  1.0000
  H   H55       1.0  0.5994403272529567  0.3579702741856821  0.751490485990125  1.0000
  H   H56       1.0  0.15221100192641754  0.3937449865761947  0.7516125598030996  1.0000
  H   H57       1.0  0.8439289236165096  0.27819477956335686  0.5751065645944919  1.0000
  H   H58       1.0  0.7312151635775379  0.2969643682849109  0.575041832861011  1.0000
  H   H59       1.0  0.5281923860295024  0.5939249485253839  0.07510919258255913  1.0000
  H   H60       1.0  0.5469576228355848  0.48121052829507954  0.07504028855092323  1.0000
  C   C1        1.0  0.00988132702082111  0.4462805989997349  0.3984318752544525  1.0000
  C   C2        1.0  0.38837754861238954  0.9521820760761198  0.3984637288418966  1.0000
  C   C3        1.0  0.6962632556183834  0.7598768836993415  0.8984364993049354  1.0000
  C   C4        1.0  0.20216155085557835  0.13837597570789484  0.898468429953688  1.0000
  C   C5        1.0  0.06828157162456709  0.50719675874317  0.3584566367264728  1.0000
  C   C6        1.0  0.2899538476523063  0.8513129634948058  0.3584894688525821  1.0000
  C   C7        1.0  0.7571803242926973  0.818282324126585  0.8584620921308996  1.0000
  C   C8        1.0  0.10128872493803708  0.03995366628416978  0.8584931341176584  1.0000
  C   C9        1.0  0.022216225907477873  0.5637740729009977  0.31769135335769505  1.0000
  C   C10       1.0  0.2952085576690848  0.7539292456103369  0.3177442021247714  1.0000
  C   C11       1.0  0.8137564788004428  0.7722152943698433  0.817695734561525  1.0000
  C   C12       1.0  0.003909262431477519  0.04521059032424542  0.8177445069743355  1.0000
  C   C13       1.0  0.9177038970195144  0.5559267997072012  0.3194813816942315  1.0000
  C   C14       1.0  0.4014791015865384  0.7635107704599733  0.31950874394139117  1.0000
  C   C15       1.0  0.8059220247445893  0.6677095094596905  0.8194879497772547  1.0000
  C   C16       1.0  0.013496382572881828  0.1514844273001971  0.8195135019675277  1.0000
  C   C17       1.0  0.8646280149883978  0.49344855476238786  0.3606597877525888  1.0000
  C   C18       1.0  0.4957803042089637  0.8671562882740745  0.3607087490076779  1.0000
  C   C19       1.0  0.7434430303881925  0.6146269100389574  0.8606608441211633  1.0000
  C   C20       1.0  0.11714543602195701  0.2457828444587307  0.8607140595706753  1.0000
  C   C21       1.0  0.07462430969923162  0.6237877147668058  0.2682109478683259  1.0000
  C   C22       1.0  0.19330637077919013  0.6444571605051832  0.2682852410481757  1.0000
  C   C23       1.0  0.873768568810334  0.8246215700302955  0.7682127744730707  1.0000
  C   C24       1.0  0.8944386259632253  0.9433092501095003  0.7682862932485008  1.0000
  C   C25       1.0  0.027354422323121214  0.5551135297487093  0.1749043031853645  1.0000
  C   C26       1.0  0.1473765749297158  0.6197472020762406  0.1749631743857165  1.0000
  C   C27       1.0  0.8051046753447723  0.777354383348559  0.6749086897463813  1.0000
  C   C28       1.0  0.8697368815972625  0.8973741894714704  0.6749674659264713  1.0000
  C   C29       1.0  0.9292047035008508  0.5601102274507211  0.12217133289728824  1.0000
  C   C30       1.0  0.1929868168290056  0.5621343527473641  0.12233244858293801  1.0000
  C   C31       1.0  0.8101017822711541  0.6792057109615327  0.622174304818401  1.0000
  C   C32       1.0  0.8121289666712596  0.9429853705418264  0.6223335522433684  1.0000
  C   C33       1.0  0.9359806189767569  0.6614425727755701  0.11380237073790063  1.0000
  C   C34       1.0  0.17779681409929543  0.4523883107864534  0.11386232433307701  1.0000
  C   C35       1.0  0.9114366113916078  0.6859829320502654  0.6138076216078828  1.0000
  C   C36       1.0  0.7023829066604107  0.9277996659968153  0.6138614553592703  1.0000
  C   C37       1.0  0.8412767557916041  0.663072557670567  0.06661292658900214  1.0000
  C   C38       1.0  0.22536180496049243  0.4036268966241181  0.06666257122136439  1.0000
  C   C39       1.0  0.9130747366085288  0.5912820954611958  0.5666166640719723  1.0000
  C   C40       1.0  0.6536249956317945  0.9753629927321156  0.5666612852535309  1.0000
  C   C41       1.0  0.7337976995807267  0.472541559571944  0.035336560887294845  1.0000
  C   C42       1.0  0.3017069653717854  0.5630101503058639  0.035595560382205335  1.0000
  C   C43       1.0  0.7225403737284779  0.4837991403541295  0.5353320384561044  1.0000
  C   C44       1.0  0.8130111468597719  0.05170149254747267  0.5355940334512113  1.0000
  C   C45       1.0  0.8252180173254615  0.46435592081379434  0.08160184446069958  1.0000
  C   C46       1.0  0.25660985339112596  0.6174607644190502  0.08194261940825953  1.0000
  C   C47       1.0  0.7143495413100995  0.57521577923756  0.5815990805418921  1.0000
  C   C48       1.0  0.8674567949856564  0.0066046897666535275  0.5819414113174374  1.0000
  C   C49       1.0  0.49726454741264087  0.2174729857517049  0.2812845407029272  1.0000
  C   C50       1.0  0.7842272572084568  0.06399694626721694  0.28139558993437663  1.0000
  C   C51       1.0  0.4674752584640131  0.24725163181542326  0.7812960758128611  1.0000
  C   C52       1.0  0.3140065807335617  0.5341983781038876  0.7813848202812324  1.0000
  C   C53       1.0  0.3880584917371408  0.13069857352279257  0.2565956705759831  1.0000
  C   C54       1.0  0.8687535371502121  0.12608307284641257  0.2567195713689117  1.0000
  C   C55       1.0  0.3806985189668453  0.13804287360661502  0.7565989871863437  1.0000
  C   C56       1.0  0.37609599845949054  0.6187324085289632  0.7567136278143282  1.0000
  C   C57       1.0  0.3060578367997806  0.10808438528393785  0.184281892893722  1.0000
  C   C58       1.0  0.8784422582160049  0.07634331420079818  0.18441609134752926  1.0000
  C   C59       1.0  0.358082496399689  0.05604315235233044  0.6842805995212444  1.0000
  C   C60       1.0  0.3263464916355759  0.6284254670496168  0.684415669778808  1.0000
  C   C61       1.0  0.3323805577539644  0.17291528102861511  0.1368326032800553  1.0000
  C   C62       1.0  0.8046903331761754  0.9640665552698378  0.13695084958301612  1.0000
  C   C63       1.0  0.4229126477508344  0.08237373724035274  0.636831501290601  1.0000
  C   C64       1.0  0.21406802762430743  0.5546756093039633  0.6369536545858594  1.0000
  C   C65       1.0  0.44096306505792177  0.26101075799975587  0.16110226364639144  1.0000
  C   C66       1.0  0.7204089214168051  0.9002288192166431  0.1612338073732502  1.0000
  C   C67       1.0  0.5110135344202931  0.19095594769552077  0.6611093376500676  1.0000
  C   C68       1.0  0.1502311657295863  0.4703828150856495  0.6612299468224094  1.0000
  C   C69       1.0  0.5232981315991978  0.28220352295800666  0.23312095257355742  1.0000
  C   C70       1.0  0.7100730474366161  0.9511011695250745  0.2332449746413516  1.0000
  C   C71       1.0  0.5322013709942155  0.2732877227768993  0.7331300769496139  1.0000
  C   C72       1.0  0.20110804789658945  0.46004695840967713  0.7332392354704069  1.0000
  C   C73       1.0  0.584762842549665  0.2373114581504793  0.3584149767572526  1.0000
  C   C74       1.0  0.773753509211417  0.12125580076661159  0.3584803670764103  1.0000
  C   C75       1.0  0.48731222936072544  0.334744651045483  0.8584239482285767  1.0000
  C   C76       1.0  0.3712546943056056  0.523732228018794  0.8584740820346042  1.0000
  C   C77       1.0  0.46469949068895744  0.33198216772037625  0.10955052055573589  1.0000
  C   C78       1.0  0.6450813604038218  0.7776944258759783  0.10968470895385005  1.0000
  C   C79       1.0  0.581980900622895  0.21469747359396488  0.6095508470536258  1.0000
  C   C80       1.0  0.02769211700482553  0.39507026133139805  0.6096818378457485  1.0000
  N   N1        1.0  0.9100266081561231  0.43982000276155014  0.399843386094375  1.0000
  N   N2        1.0  0.48964197127673265  0.9600146329861728  0.3998781138483524  1.0000
  N   N3        1.0  0.6898122967928586  0.6600242788301001  0.8998455201948161  1.0000
  N   N4        1.0  0.2100019506741689  0.23964091268278767  0.8998831098236054  1.0000
  N   N5        1.0  0.7415471763958692  0.5703046536368744  0.02785907246130388  1.0000
  N   N6        1.0  0.2863589566089217  0.457680807353924  0.02794691700585619  1.0000
  N   N7        1.0  0.8203056975102997  0.49154934974841774  0.5278562504561606  1.0000
  N   N8        1.0  0.7076849078273071  0.03636045567178305  0.5279477347000849  1.0000
  O   O1        1.0  0.6859602290745883  0.3059556518877499  0.37256923372286377  1.0000
  O   O2        1.0  0.686664020452703  0.06676904172358887  0.3725852963824323  1.0000
  O   O3        1.0  0.5559513265578391  0.43594460557072523  0.8725749601571807  1.0000
  O   O4        1.0  0.3167692481749996  0.436641883505331  0.8725785609318351  1.0000
  O   O5        1.0  0.5509441580322019  0.18434996594450573  0.4032296462828526  1.0000
  O   O6        1.0  0.8523874165459092  0.2190259996253302  0.40331771140509437  1.0000
  O   O7        1.0  0.4343461764242205  0.3009256919241067  0.9032375955955557  1.0000
  O   O8        1.0  0.4690247706213457  0.6023692015183288  0.903313833028925  1.0000
  O   O9        1.0  0.5617480552155527  0.41280242051250576  0.1305052017445192  1.0000
  O   O10       1.0  0.5691298477244403  0.7178040232423513  0.13073235847499384  1.0000
  O   O11       1.0  0.6627987911196414  0.31174661394996406  0.6305121733820869  1.0000
  O   O12       1.0  0.967801355675654  0.3191128798035619  0.6307233640585181  1.0000
  O   O13       1.0  0.37996785548827466  0.3043281160809315  0.04674539076825109  1.0000
  O   O14       1.0  0.6668342903922024  0.7425432881283739  0.04679903200078432  1.0000
  O   O15       1.0  0.5543298302081681  0.1299688077505293  0.5467417773947645  1.0000
  O   O16       1.0  0.9925536132531079  0.4168420472821664  0.5468032863012695  1.0000
  O   O17       1.0  0.7687544855930427  0.2687223285105488  0.5374156354243951  1.0000
  O   O18       1.0  0.5187119292945539  0.5187474587408261  0.03741301391877271  1.0000
