data_image0
_chemical_formula_structural       Ag8H48C56N8O16
_chemical_formula_sum              "Ag8 H48 C56 N8 O16"
_cell_length_a       7.509913396
_cell_length_b       12.013096298219256
_cell_length_c       16.314
_cell_angle_alpha    90.0
_cell_angle_beta     90.0
_cell_angle_gamma    93.71176620253455

_space_group_name_H-M_alt    "P 1"
_space_group_IT_number       1

loop_
  _space_group_symop_operation_xyz
  'x, y, z'

loop_
  _atom_site_type_symbol
  _atom_site_label
  _atom_site_symmetry_multiplicity
  _atom_site_fract_x
  _atom_site_fract_y
  _atom_site_fract_z
  _atom_site_occupancy
  Ag  Ag1       1.0  0.0061870380986875076  0.46570220079750874  0.1053236484001445  1.0000
  Ag  Ag2       1.0  0.9938164219428671  0.0343004282707966  0.6053248743410578  1.0000
  Ag  Ag3       1.0  0.9938157347818191  0.5342972181164143  0.8946763515998553  1.0000
  Ag  Ag4       1.0  0.0061876825109195  0.9656989906431264  0.3946769645703085  1.0000
  Ag  Ag5       1.0  0.6312573366841505  0.4291503350913928  0.0298406276817431  1.0000
  Ag  Ag6       1.0  0.36874337382726446  0.0708514598022418  0.5298430795635625  1.0000
  Ag  Ag7       1.0  0.3687414414765228  0.5708490838225302  0.9701575334068906  1.0000
  Ag  Ag8       1.0  0.6312584993978516  0.9291521299850345  0.4701569204364375  1.0000
  H   H1        1.0  0.4465660812983998  0.7258537527206812  0.5222974132646812  1.0000
  H   H2        1.0  0.5534375087614904  0.7741441243882009  0.0222980262351342  1.0000
  H   H3        1.0  0.5534396138793979  0.2741481687172538  0.4776989089125934  1.0000
  H   H4        1.0  0.4465622554381383  0.2258519578270466  0.9777019737648658  1.0000
  H   H5        1.0  0.28781772000192507  0.8110588560759242  0.4884442809856537  1.0000
  H   H6        1.0  0.7121832932949844  0.6889398552076288  0.9884436680152006  1.0000
  H   H7        1.0  0.7121828216499181  0.1889447337113523  0.5115563319847993  1.0000
  H   H8        1.0  0.2878193068183634  0.3110578953569529  0.0115563319847993  1.0000
  H   H9        1.0  0.22076989488103746  0.9773665917575443  0.7092969228883135  1.0000
  H   H10       1.0  0.779230045993337  0.5226346220500204  0.2092963099178604  1.0000
  H   H11       1.0  0.7792372182536125  0.0226361638550614  0.2907043030525925  1.0000
  H   H12       1.0  0.2207631467234847  0.4773622943398906  0.7907012382003202  1.0000
  H   H13       1.0  0.031766673628709406  0.9023142283153334  0.7377203628785125  1.0000
  H   H14       1.0  0.9682320220559646  0.597687819666902  0.2377191369375993  1.0000
  H   H15       1.0  0.9682376899758084  0.09768769312260163  0.2622802500919477  1.0000
  H   H16       1.0  0.03176366104025871  0.40230742837367484  0.7622802500919477  1.0000
  H   H17       1.0  0.24711416976652603  0.7393081559790247  0.2031022434718679  1.0000
  H   H18       1.0  0.7528806175818941  0.7606947261778815  0.7031010175309547  1.0000
  H   H19       1.0  0.7528835359716055  0.2606937654589103  0.7968959176167729  1.0000
  H   H20       1.0  0.24712099649249097  0.23930636108538295  0.2968983694985923  1.0000
  H   H21       1.0  0.23067706750026662  0.8302548835903991  0.3396935147725912  1.0000
  H   H22       1.0  0.7693216281844144  0.6697471643918362  0.8396904499203115  1.0000
  H   H23       1.0  0.7693141531386303  0.1697487061968772  0.6603046463160496  1.0000
  H   H24       1.0  0.23068114469609205  0.33025225452208673  0.160307711168322  1.0000
  H   H25       1.0  0.5696607841253255  0.5878954432114725  0.4405823219320837  1.0000
  H   H26       1.0  0.4303402291715912  0.9121032680720802  0.9405835478729898  1.0000
  H   H27       1.0  0.4303345176169843  0.4121089807504746  0.55941583915655  1.0000
  H   H28       1.0  0.5696611257520559  0.0878953166671721  0.0594164521270102  1.0000
  H   H29       1.0  0.5816844731857032  0.4966859505789288  0.3052494789751137  1.0000
  H   H30       1.0  0.4183123289894652  0.0033166784893766  0.8052531567978392  1.0000
  H   H31       1.0  0.41831490966002594  0.5033193075576889  0.6947492950839802  1.0000
  H   H32       1.0  0.5816904438910413  0.9966827404245466  0.19474868211352  1.0000
  H   H33       1.0  0.2110055917406797  0.3081591383774338  0.8673237709942399  1.0000
  H   H34       1.0  0.788995032387156  0.1918418223415372  0.3673237709942399  1.0000
  H   H35       1.0  0.7889973539069854  0.6918419488858305  0.1326774549466734  1.0000
  H   H36       1.0  0.2109994055193596  0.8081542598737101  0.6326786808875795  1.0000
  H   H37       1.0  0.2614393922028242  0.179771314861334  0.7510628907686652  1.0000
  H   H38       1.0  0.7385625634982915  0.320229645857637  0.2510628907686652  1.0000
  H   H39       1.0  0.7385687933543749  0.8202289382272596  0.2489395611131542  1.0000
  H   H40       1.0  0.2614262889643797  0.6797639338335983  0.7489389481427011  1.0000
  H   H41       1.0  0.8578013173837036  0.9448613073773728  0.8497701360794423  1.0000
  H   H42       1.0  0.14219853710709168  0.5551390722555212  0.3497707490498954  1.0000
  H   H43       1.0  0.14220021030710228  0.05513894571122081  0.1502274120387384  1.0000
  H   H44       1.0  0.8577905745063177  0.4448570099597262  0.6502267990682853  1.0000
  H   H45       1.0  0.8002273385506838  0.07795862799376611  0.9618940787054056  1.0000
  H   H46       1.0  0.1997719540038787  0.4220423327251979  0.4618946916758588  1.0000
  H   H47       1.0  0.1997715259935688  0.9220416250948276  0.0381034694127749  1.0000
  H   H48       1.0  0.8002229158205338  0.5779579203633958  0.5381034694127749  1.0000
  C   C1        1.0  0.438755099946846  0.5636309703998492  0.1617365452985169  1.0000
  C   C2        1.0  0.5612355199145752  0.9363702434077155  0.66173715826897  1.0000
  C   C3        1.0  0.5612411014508467  0.4363692826887444  0.8382640676719362  1.0000
  C   C4        1.0  0.4387704344139535  0.0636341805542315  0.3382640676719362  1.0000
  C   C5        1.0  0.4193205315397819  0.6134295298713894  0.2441822974132677  1.0000
  C   C6        1.0  0.5806755873819185  0.8865733522855166  0.7441829103837208  1.0000
  C   C7        1.0  0.5806757562414903  0.386571557391882  0.7558164766458262  1.0000
  C   C8        1.0  0.4193287762226063  0.11342856915241843  0.2558177025867323  1.0000
  C   C9        1.0  0.3170660110440195  0.7062389695216853  0.2554922152752255  1.0000
  C   C10       1.0  0.6829299351105149  0.7937622442858725  0.7554922152752255  1.0000
  C   C11       1.0  0.6829287723968136  0.2937604493922379  0.7445047198725021  1.0000
  C   C12       1.0  0.3170716789638703  0.2062388429773918  0.2445077847247745  1.0000
  C   C13       1.0  0.30791606572798  0.7569075731744164  0.3317782272894476  1.0000
  C   C14       1.0  0.692082629956694  0.743094474807819  0.8317788402599007  1.0000
  C   C15       1.0  0.6920776452903112  0.2430943482635186  0.668219320828733  1.0000
  C   C16       1.0  0.30791881135053256  0.256904944106104  0.1682223856810126  1.0000
  C   C17       1.0  0.4000222663331741  0.7155283386508914  0.3995703077111656  1.0000
  C   C18       1.0  0.5999787469637354  0.7844703726326615  0.8995709206816258  1.0000
  C   C19       1.0  0.5999739350645186  0.2844719144377096  0.6004278533774681  1.0000
  C   C20       1.0  0.4000251847228853  0.2155273779319202  0.1004290793183742  1.0000
  C   C21       1.0  0.4983539512061199  0.6206484774687411  0.3885674880470731  1.0000
  C   C22       1.0  0.5016498980045156  0.8793519021641529  0.8885693269584394  1.0000
  C   C23       1.0  0.501643840915591  0.37935427814387174  0.6114312860120137  1.0000
  C   C24       1.0  0.4983541200656915  0.1206466825750994  0.1114306730415606  1.0000
  C   C25       1.0  0.5080184693351342  0.5712328041708972  0.3121840137305369  1.0000
  C   C26       1.0  0.49197889477626683  0.9287692438113311  0.8121883045237226  1.0000
  C   C27       1.0  0.4919752416831641  0.4287691172670378  0.6878135343876437  1.0000
  C   C28       1.0  0.5080240508713985  0.07123184345193322  0.1878135343876437  1.0000
  C   C29       1.0  0.9576973379488578  0.2817224747241767  0.987821503003552  1.0000
  C   C30       1.0  0.042306381243435  0.2182826568681406  0.4878239548853713  1.0000
  C   C31       1.0  0.04230285816867511  0.7182777783644172  0.0121791099669011  1.0000
  C   C32       1.0  0.9576978959775033  0.7817184303951238  0.5121791099669011  1.0000
  C   C33       1.0  0.9994210149534479  0.20237411172958286  0.9214012504597306  1.0000
  C   C34       1.0  0.000575787221713104  0.2976285173387296  0.42140370234155  1.0000
  C   C35       1.0  0.0005791811640776207  0.7976261413590109  0.07859752359936317  1.0000
  C   C36       1.0  0.9994214865985214  0.7023692332258591  0.57859629765845  1.0000
  C   C37       1.0  0.1321984391299083  0.2289701027448743  0.8625554738261627  1.0000
  C   C38       1.0  0.8678010261918132  0.271032526323431  0.3625554738261627  1.0000
  C   C39       1.0  0.8678045065177571  0.7710309845183902  0.1374457521147505  1.0000
  C   C40       1.0  0.1321947432879895  0.7289635558918093  0.6374457521147505  1.0000
  C   C41       1.0  0.1619441709272422  0.1567539331819106  0.7979594213558912  1.0000
  C   C42       1.0  0.8380564532005933  0.3432470275370534  0.2979606472967973  1.0000
  C   C43       1.0  0.8380613514833968  0.8432463199066832  0.2020418045850221  1.0000
  C   C44       1.0  0.1619352351757897  0.6567482205035163  0.7020411916145619  1.0000
  C   C45       1.0  0.0612312278114686  0.05414878037749561  0.7927050386171359  1.0000
  C   C46       1.0  0.938768064743094  0.44585218034146834  0.2927062645580492  1.0000
  C   C47       1.0  0.9387730494094696  0.9458523068857689  0.2072949613828641  1.0000
  C   C48       1.0  0.06122220567643669  0.5541422335244306  0.7072937354419508  1.0000
  C   C49       1.0  0.9330804438279329  0.025335553088368105  0.8528441829103812  1.0000
  C   C50       1.0  0.0669203530670686  0.4746670759799372  0.3528454088512945  1.0000
  C   C51       1.0  0.06692391977659183  0.974666368349567  0.1471545911487055  1.0000
  C   C52       1.0  0.9330715080764731  0.5253298404099738  0.6471539781782525  1.0000
  C   C53       1.0  0.901430349160357  0.0993627158606998  0.915706754934412  1.0000
  C   C54       1.0  0.09856795735524321  0.4006415815569469  0.4157073679048651  1.0000
  C   C55       1.0  0.09857001972432762  0.9006392055772353  0.0842920191246748  1.0000
  C   C56       1.0  0.9014268260855972  0.5993578373569761  0.5842914061542217  1.0000
  N   N1        1.0  0.4001079020278481  0.7697438530020124  0.4745108495770508  1.0000
  N   N2        1.0  0.5998945292259208  0.7302556924562114  0.9745096236361377  1.0000
  N   N3        1.0  0.5998939711972682  0.23025973678526415  0.525487924482043  1.0000
  N   N4        1.0  0.400106739314147  0.26974205810837765  0.0254897633934021  1.0000
  N   N5        1.0  0.08736989784907931  0.9806423956880721  0.7263068530096817  1.0000
  N   N6        1.0  0.9126273798787422  0.5193588181194926  0.2263056270687756  1.0000
  N   N7        1.0  0.9126344657554455  0.019359525749862903  0.2736937599607714  1.0000
  N   N8        1.0  0.08736555368734139  0.4806355957464135  0.7736931469903183  1.0000
  O   O1        1.0  0.0713557455285496  0.36808207582320324  0.9973194802010567  1.0000
  O   O2        1.0  0.9286491324698645  0.1319213874197729  0.49732315802378213  1.0000
  O   O3        1.0  0.9286456957786768  0.6319173430907199  0.0026811327694034  1.0000
  O   O4        1.0  0.0713591394709141  0.8680796998434914  0.5026811327694034  1.0000
  O   O5        1.0  0.8198698377442497  0.2641672687863164  0.030536962118425492  1.0000
  O   O6        1.0  0.1801313910686417  0.2358395311553423  0.5305369621184255  1.0000
  O   O7        1.0  0.18013027198969672  0.7358321501276068  0.9694642638224806  1.0000
  O   O8        1.0  0.8198719864969207  0.7641657269812754  0.4694618119406613  1.0000
  O   O9        1.0  0.5805840583014827  0.5114166410829313  0.149280985656489  1.0000
  O   O10       1.0  0.4194067343271044  0.9885862410739679  0.6492828245678552  1.0000
  O   O11       1.0  0.4194077164584867  0.48857944113230906  0.8507202402844172  1.0000
  O   O12       1.0  0.580606828087191  0.0114273588093496  0.3507208532548702  1.0000
  O   O13       1.0  0.3185347607525841  0.5773840081901797  0.1081469903150634  1.0000
  O   O14       1.0  0.6814542683848259  0.9226147030933731  0.6081457643741572  1.0000
  O   O15       1.0  0.6814667669382215  0.4226162448984141  0.8918517837440234  1.0000
  O   O16       1.0  0.31854833172852176  0.0773830474712156  0.3918542356258428  1.0000
