data_image0
_chemical_formula_structural       Cd6H66C102N18O24
_chemical_formula_sum              "Cd6 H66 C102 N18 O24"
_cell_length_a       13.654133246151755
_cell_length_b       17.68424703632915
_cell_length_c       17.701700092085172
_cell_angle_alpha    113.61657947551296
_cell_angle_beta     104.95124886708479
_cell_angle_gamma    104.90674588219656

_space_group_name_H-M_alt    "P 1"
_space_group_IT_number       1

loop_
  _space_group_symop_operation_xyz
  'x, y, z'

loop_
  _atom_site_type_symbol
  _atom_site_label
  _atom_site_symmetry_multiplicity
  _atom_site_fract_x
  _atom_site_fract_y
  _atom_site_fract_z
  _atom_site_occupancy
  Cd  Cd1       1.0  0.14755316378035843  0.5876973913642232  0.22009996618314892  1.0000
  Cd  Cd2       1.0  0.5598699374916835  0.632015938694373  0.41214374437871026  1.0000
  Cd  Cd3       1.0  0.9278944487441834  0.7798660577851207  0.3677225231225663  1.0000
  Cd  Cd4       1.0  0.8524500896537293  0.4123051502748893  0.77990693353636  1.0000
  Cd  Cd5       1.0  0.4401344829865864  0.36797984604613276  0.5878595489668116  1.0000
  Cd  Cd6       1.0  0.07210239742477852  0.22013580790977727  0.6322794462129195  1.0000
  H   H1        1.0  0.2724312273245744  0.5076729895932814  0.4806151783828342  1.0000
  H   H2        1.0  0.9154038399635669  0.4172947673419857  0.35684903046565364  1.0000
  H   H3        1.0  0.9458723441845012  0.4917703622619953  0.26627103234133653  1.0000
  H   H4        1.0  0.9229786413870473  0.29830684601743945  0.38215524981246335  1.0000
  H   H5        1.0  0.2382226497835519  0.5120118658980247  0.5983284408796197  1.0000
  H   H6        1.0  0.2235586206244662  0.42616089707481564  0.6788681497770527  1.0000
  H   H7        1.0  0.2550627648842223  0.44453734323523253  0.18187382917720646  1.0000
  H   H8        1.0  0.22233988150175324  0.2889831203507427  0.06727963089198852  1.0000
  H   H9        1.0  0.04744863929754222  0.20098752751879087  0.9242216084399929  1.0000
  H   H10       1.0  0.9134642198344666  0.27422326273327974  0.903096886724079  1.0000
  H   H11       1.0  0.9590124687304783  0.4282674645896237  0.02374347807413822  1.0000
  H   H12       1.0  0.7653212059134304  0.9728624844903847  0.49227776963781633  1.0000
  H   H13       1.0  0.49808181186001127  0.9395076089185679  0.5817249038351165  1.0000
  H   H14       1.0  0.45379883235172275  0.774282432913047  0.5071423313716751  1.0000
  H   H15       1.0  0.6251842476538203  0.0837226052707294  0.7011372527369206  1.0000
  H   H16       1.0  0.7265323572389806  0.08646097684138708  0.4877323615678437  1.0000
  H   H17       1.0  0.79775393814122  0.2529740313371249  0.5736525421749692  1.0000
  H   H18       1.0  0.810330635243112  0.7370804082437559  0.5551314593515216  1.0000
  H   H19       1.0  0.9336845013601476  0.7780070665760943  0.7104631135033728  1.0000
  H   H20       1.0  0.847318402030169  0.7229352180714342  0.7985794744621302  1.0000
  H   H21       1.0  0.6400843068263172  0.6286466518278218  0.7256953704690334  1.0000
  H   H22       1.0  0.5309908031596963  0.5952984252539153  0.5718452993396356  1.0000
  H   H23       1.0  0.7920140087926414  0.5195258326103342  0.027029507151738172  1.0000
  H   H24       1.0  0.5582984736007788  0.6426937629320406  0.06014882508170417  1.0000
  H   H25       1.0  0.6794641118572285  0.7334854027934907  0.22524882441751262  1.0000
  H   H26       1.0  0.5411190922758422  0.6178951101328634  0.9160654588142735  1.0000
  H   H27       1.0  0.6399615969575195  0.4016068630226997  0.9134492537012096  1.0000
  H   H28       1.0  0.544867522509982  0.3211352489869483  0.7470446927979637  1.0000
  H   H29       1.0  0.07333772148160739  0.8186715030490888  0.2630451007862647  1.0000
  H   H30       1.0  0.15461922365899752  0.9334276380532459  0.2220904704769141  1.0000
  H   H31       1.0  0.12220994499602972  0.07621601571467812  0.2770918002862288  1.0000
  H   H32       1.0  0.00958746351061281  0.09697653647327088  0.371511100587334  1.0000
  H   H33       1.0  0.9350641933295949  0.9761996445323149  0.4048841611813288  1.0000
  H   H34       1.0  0.7275744668288768  0.49232684913466335  0.5193928166626521  1.0000
  H   H35       1.0  0.08460142281873576  0.5827057487318897  0.6431506767597102  1.0000
  H   H36       1.0  0.05413874158891473  0.5082342083171056  0.7337348434329628  1.0000
  H   H37       1.0  0.07700833691382057  0.7016889372036771  0.6178400663533453  1.0000
  H   H38       1.0  0.761766017158003  0.4879812134133061  0.401672340484396  1.0000
  H   H39       1.0  0.7764282593164825  0.5738240740314212  0.3211250735577523  1.0000
  H   H40       1.0  0.7449307178108953  0.555457762250441  0.8181371924875195  1.0000
  H   H41       1.0  0.7776528318206175  0.7110119867057136  0.9327227651369442  1.0000
  H   H42       1.0  0.9525485396096087  0.799015014733257  0.07577674355654547  1.0000
  H   H43       1.0  0.08653650627795884  0.7257833339326608  0.09690605286378677  1.0000
  H   H44       1.0  0.040986403328858466  0.5717323730823478  0.9762637292531338  1.0000
  H   H45       1.0  0.23468186392575063  0.0271366799350687  0.5077203963251621  1.0000
  H   H46       1.0  0.5019200877907934  0.0605043958613223  0.41826970224947513  1.0000
  H   H47       1.0  0.5462010662219399  0.2257315962032251  0.4928656824500166  1.0000
  H   H48       1.0  0.37480439809755955  0.9162765601775575  0.29884280184460016  1.0000
  H   H49       1.0  0.2734813235239812  0.9135442723970327  0.5122613074275436  1.0000
  H   H50       1.0  0.20226152223970223  0.7470332442145349  0.4263479407927805  1.0000
  H   H51       1.0  0.18966275996126572  0.2629221324782804  0.4448712263214177  1.0000
  H   H52       1.0  0.06631450733294032  0.2219779063205252  0.28953194968100604  1.0000
  H   H53       1.0  0.1526805866342329  0.2770375918234791  0.20141014545394853  1.0000
  H   H54       1.0  0.35990956677299124  0.3713416993354528  0.27429833398711884  1.0000
  H   H55       1.0  0.4690004079880269  0.4047088454881234  0.42815771917193507  1.0000
  H   H56       1.0  0.2079936171297234  0.48047333132748793  0.9729752108589979  1.0000
  H   H57       1.0  0.4417111773235193  0.3573094561035504  0.93985565973469  1.0000
  H   H58       1.0  0.32054275446729724  0.26651376126284276  0.7747546132445606  1.0000
  H   H59       1.0  0.4588729441548907  0.3821047284939779  0.08393079039719709  1.0000
  H   H60       1.0  0.36005655027864963  0.5983997382906097  0.08654584244790445  1.0000
  H   H61       1.0  0.45514448540252067  0.6788727018152797  0.2529553764630564  1.0000
  H   H62       1.0  0.9266673070589492  0.181333065573547  0.7369652227730799  1.0000
  H   H63       1.0  0.8453900094286485  0.0665762563174468  0.7779158969169304  1.0000
  H   H64       1.0  0.87778436797246  0.9237838228917779  0.7229065949049416  1.0000
  H   H65       1.0  0.9904017815530962  0.9030192481797312  0.6284790162710368  1.0000
  H   H66       1.0  0.06491620826112411  0.023798166417364503  0.595103320099561  1.0000
  C   C1        1.0  0.20584656914837754  0.5382436068401404  0.37854219480147583  1.0000
  C   C2        1.0  0.19703283512440353  0.5023164963109038  0.434674538127446  1.0000
  C   C3        1.0  0.0917188212594979  0.45635145608863326  0.4274176378878921  1.0000
  C   C4        1.0  0.9992943282537895  0.4515390856807359  0.36515751231575444  1.0000
  C   C5        1.0  0.015568844379778606  0.49260456853848206  0.3141321831381704  1.0000
  C   C6        1.0  0.3175162985062698  0.5789720093381304  0.37786319665839596  1.0000
  C   C7        1.0  0.9926123222071226  0.2851802723822914  0.4967850390187537  1.0000
  C   C8        1.0  0.9918046264008851  0.33046384384581273  0.4477772518873452  1.0000
  C   C9        1.0  0.08168516213228831  0.4121164150505336  0.48178251893543944  1.0000
  C   C10       1.0  0.16608495778187668  0.44863710065492773  0.567382244540596  1.0000
  C   C11       1.0  0.15886690017444494  0.4007361552937851  0.6129566059937943  1.0000
  C   C12       1.0  0.9007988438475042  0.19177310763361533  0.45828438331325594  1.0000
  C   C13       1.0  0.18046047597108847  0.40334425030895465  0.11897814828684262  1.0000
  C   C14       1.0  0.1614636102648674  0.3170122344893399  0.05510593539354149  1.0000
  C   C15       1.0  0.06450776118332872  0.2686220702665096  0.9757961566676273  1.0000
  C   C16       1.0  0.9903431902913837  0.3084141446675588  0.9633998308846617  1.0000
  C   C17       1.0  0.01532363046911916  0.395148003956308  0.03065016442801046  1.0000
  C   C18       1.0  0.667835230208283  0.8401074166475412  0.4614403176465132  1.0000
  C   C19       1.0  0.6951429303941056  0.9322601765626218  0.49745036081550625  1.0000
  C   C20       1.0  0.6357183681801432  0.9710081516390332  0.5431860265429052  1.0000
  C   C21       1.0  0.5478191315876302  0.9135157157289412  0.5476718969434134  1.0000
  C   C22       1.0  0.5228747134744297  0.821343437710638  0.5065529350937581  1.0000
  C   C23       1.0  0.7386816321235443  0.7985938169005634  0.42076778347197324  1.0000
  C   C24       1.0  0.7078402292375898  0.21159059426091884  0.7143609842574252  1.0000
  C   C25       1.0  0.6617974723189664  0.11725965194199259  0.6690582028954283  1.0000
  C   C26       1.0  0.6699940020574645  0.06967179197523173  0.5874947406964424  1.0000
  C   C27       1.0  0.7178198848340858  0.11884928641872247  0.5510666923578712  1.0000
  C   C28       1.0  0.7585028876902984  0.2123934961345029  0.599005566770572  1.0000
  C   C29       1.0  0.7093936836051784  0.2663729149519796  0.80765480711991  1.0000
  C   C30       1.0  0.7771548795267835  0.7154082131770708  0.5963785953481706  1.0000
  C   C31       1.0  0.844770691970311  0.7378472295009076  0.6825932188567878  1.0000
  C   C32       1.0  0.7965045653470855  0.7069235240571244  0.7310595737812734  1.0000
  C   C33       1.0  0.6825401788328024  0.6547880548617186  0.6914540941560575  1.0000
  C   C34       1.0  0.6204652825856061  0.6353235470644379  0.6048176181165136  1.0000
  C   C35       1.0  0.8273048839390926  0.6213894421031296  0.15965910667466693  1.0000
  C   C36       1.0  0.7624526466709299  0.5653204367114313  0.06757521907531593  1.0000
  C   C37       1.0  0.6643398480439162  0.5724611339739953  0.028791988483597382  1.0000
  C   C38       1.0  0.6340080920862544  0.6345480737399284  0.08618102809941064  1.0000
  C   C39       1.0  0.7013374042743123  0.685633620816013  0.17829646051219336  1.0000
  C   C40       1.0  0.9395626939892028  0.6220100560352506  0.2011211294413969  1.0000
  C   C41       1.0  0.49620622677792886  0.5033315563649409  0.7883227251075128  1.0000
  C   C42       1.0  0.5443181560272947  0.5522798202740589  0.8825882714619127  1.0000
  C   C43       1.0  0.6000614757027449  0.5182026461936431  0.9301684754322183  1.0000
  C   C44       1.0  0.5988855848050109  0.43260815461891877  0.8810456950699435  1.0000
  C   C45       1.0  0.5461634211513059  0.38708445204340347  0.7875810997654612  1.0000
  C   C46       1.0  0.4429780594865492  0.5419052265988143  0.7335518594082376  1.0000
  C   C47       1.0  0.06139914002896058  0.881449291603019  0.2847237880391091  1.0000
  C   C48       1.0  0.10592123885219015  0.9454115685118866  0.2622775633116846  1.0000
  C   C49       1.0  0.08799104196771881  0.024602689215399196  0.29317729761815065  1.0000
  C   C50       1.0  0.026344969766697115  0.03679684289461701  0.3453638557105948  1.0000
  C   C51       1.0  0.9844184893844955  0.9694531117465887  0.3648449110270563  1.0000
  C   C52       1.0  0.7941612432400335  0.46176501687346433  0.6214686108900979  1.0000
  C   C53       1.0  0.802968809640568  0.49768131511876124  0.5653295821647718  1.0000
  C   C54       1.0  0.9082803716438906  0.5436429769189175  0.5725818179110648  1.0000
  C   C55       1.0  0.0007076447378721673  0.5484594029763625  0.6348396005049963  1.0000
  C   C56       1.0  0.9844373548280176  0.5073993256359656  0.6858724529935858  1.0000
  C   C57       1.0  0.6824986082926828  0.42104472320328074  0.622156784215818  1.0000
  C   C58       1.0  0.007376752796176404  0.7148121330462162  0.5032065144806596  1.0000
  C   C59       1.0  0.008186980299058148  0.6695305888945595  0.5522167457122152  1.0000
  C   C60       1.0  0.9183096433810221  0.5878753148835897  0.5182127242945782  1.0000
  C   C61       1.0  0.8339082539641183  0.551355979844466  0.43261661353984954  1.0000
  C   C62       1.0  0.8411212466744403  0.5992528708053015  0.38703623384219554  1.0000
  C   C63       1.0  0.09919477821598842  0.8082192986478207  0.5417069419688617  1.0000
  C   C64       1.0  0.8195298854899635  0.5966522072078604  0.8810277122880382  1.0000
  C   C65       1.0  0.838527503274861  0.6829842240261002  0.944895555309117  1.0000
  C   C66       1.0  0.9354853758544978  0.7313784435701294  0.02420397079652043  1.0000
  C   C67       1.0  0.009652652263078177  0.6915917751468755  0.03660412914900487  1.0000
  C   C68       1.0  0.984670691522368  0.6048518333095886  0.9693550110282133  1.0000
  C   C69       1.0  0.3321631313967686  0.1598944493689061  0.5385613872758415  1.0000
  C   C70       1.0  0.3048566824651644  0.06773966378367652  0.5025440013082233  1.0000
  C   C71       1.0  0.3642788837948103  0.028993040508183295  0.4568050198617258  1.0000
  C   C72       1.0  0.4521815026590731  0.0864922338346616  0.4523242226841619  1.0000
  C   C73       1.0  0.47712517170126745  0.17866451040749345  0.49344981449439734  1.0000
  C   C74       1.0  0.2613205282226048  0.20140804841162205  0.5792408882157363  1.0000
  C   C75       1.0  0.2921679748069297  0.7884112750185751  0.2856330692476592  1.0000
  C   C76       1.0  0.33820213226922397  0.8827401896331537  0.33092994398533904  1.0000
  C   C77       1.0  0.33000906689328274  0.9303334555709172  0.412497954080422  1.0000
  C   C78       1.0  0.28219144256372186  0.881157313503472  0.44892931113928836  1.0000
  C   C79       1.0  0.24151265252567808  0.7876124283069075  0.40099269580404956  1.0000
  C   C80       1.0  0.29059883860312413  0.7336188160079471  0.19233320493161443  1.0000
  C   C81       1.0  0.22284061538769617  0.2845909493054961  0.4036225877467246  1.0000
  C   C82       1.0  0.15522545891867884  0.26214112153027  0.3174031966011484  1.0000
  C   C83       1.0  0.20349081705759892  0.2930587454241333  0.26893368722699057  1.0000
  C   C84       1.0  0.3174553885340928  0.3452036746187517  0.3085441244888757  1.0000
  C   C85       1.0  0.3795296280548613  0.36467899397914755  0.39518480314329457  1.0000
  C   C86       1.0  0.17269684442052122  0.3786070176577212  0.8403456183348725  1.0000
  C   C87       1.0  0.23755244905862583  0.4346766996910958  0.9324281848794558  1.0000
  C   C88       1.0  0.33566845012206414  0.42753938207269476  0.9712105800480375  1.0000
  C   C89       1.0  0.3659991122398765  0.36545176609155305  0.9138227473783334  1.0000
  C   C90       1.0  0.29866769145524336  0.31436351558651404  0.8217069434425712  1.0000
  C   C91       1.0  0.06044215697177445  0.3779911344800198  0.7988849805381266  1.0000
  C   C92       1.0  0.5037987793416577  0.49666693260010675  0.21167555395323495  1.0000
  C   C93       1.0  0.4556844131325094  0.44772137104359194  0.1174117373832929  1.0000
  C   C94       1.0  0.3999463993631736  0.48179854597013616  0.0698320205222487  1.0000
  C   C95       1.0  0.401126330626383  0.5673950661836997  0.11895189537274582  1.0000
  C   C96       1.0  0.4538450455712564  0.6129194434512185  0.2124189020809411  1.0000
  C   C97       1.0  0.5570234060584911  0.45809528995589927  0.2664420110959469  1.0000
  C   C98       1.0  0.9385998199999791  0.1185552767388458  0.7152825079739673  1.0000
  C   C99       1.0  0.8940806707100536  0.0545943518067489  0.7377292942240815  1.0000
  C   C100      1.0  0.912003959650022  0.9754045820512189  0.7068264724158126  1.0000
  C   C101      1.0  0.9736476598245148  0.9632056988396371  0.654633029436987  1.0000
  C   C102      1.0  0.015570345977117508  0.030549430021650902  0.6351483974876901  1.0000
  N   N1        1.0  0.11643506241978943  0.53398466953265  0.31959142696871373  1.0000
  N   N2        1.0  0.07586243286031194  0.3201495620225431  0.5773736083400466  1.0000
  N   N3        1.0  0.10874282366021502  0.44163583644230897  0.10708033362009674  1.0000
  N   N4        1.0  0.5824580333717932  0.7853673143653805  0.46541404203912157  1.0000
  N   N5        1.0  0.7560915532699041  0.2573396102875449  0.6795091121024158  1.0000
  N   N6        1.0  0.6671202440127432  0.6652464347142979  0.5582418805078646  1.0000
  N   N7        1.0  0.7968068688833938  0.6802730128602689  0.21430557405146547  1.0000
  N   N8        1.0  0.4988379321203952  0.42274392395305677  0.7426650616505273  1.0000
  N   N9        1.0  0.0016433201476289468  0.8931292335907912  0.3348977941172395  1.0000
  N   N10       1.0  0.8835728328113391  0.4660226026238519  0.6804194184180902  1.0000
  N   N11       1.0  0.9241265511657133  0.6798381131829243  0.42261659638521115  1.0000
  N   N12       1.0  0.8912466961121979  0.5583619726384015  0.8929247719329967  1.0000
  N   N13       1.0  0.4175409244014007  0.2146372543116257  0.534590558907688  1.0000
  N   N14       1.0  0.24392162544636883  0.7426615830575115  0.32049017589505274  1.0000
  N   N15       1.0  0.332873829450577  0.3347574572229065  0.4417631758626755  1.0000
  N   N16       1.0  0.20319671141007237  0.3197241232207091  0.7856980943164305  1.0000
  N   N17       1.0  0.501169186355348  0.5772572678823806  0.25733641404363544  1.0000
  N   N18       1.0  0.9983481350167623  0.10687398315021568  0.6651019533474952  1.0000
  O   O1        1.0  0.3190621717642302  0.593495361737766  0.313771187735263  1.0000
  O   O2        1.0  0.4026303919973488  0.5937051983085126  0.44164946497976143  1.0000
  O   O3        1.0  0.923091559869242  0.14462257478000853  0.4947153755088537  1.0000
  O   O4        1.0  0.8130181647269482  0.16890364548207507  0.39480231335665655  1.0000
  O   O5        1.0  0.7255512229413271  0.7198488943287131  0.40609124410335085  1.0000
  O   O6        1.0  0.8091663217642094  0.8477189766467178  0.40618685452062675  1.0000
  O   O7        1.0  0.7789712582649599  0.3499701341480659  0.8549986594708869  1.0000
  O   O8        1.0  0.6443536722421684  0.22566331316173924  0.83030862816063  1.0000
  O   O9        1.0  0.005265693376188094  0.6859811564608123  0.27986427788179213  1.0000
  O   O10       1.0  0.9608427562718092  0.5582587982272429  0.15200666111472572  1.0000
  O   O11       1.0  0.42892013795335526  0.5056054402559553  0.6500391231786724  1.0000
  O   O12       1.0  0.41865992478363984  0.6053258143335114  0.7741866080133378  1.0000
  O   O13       1.0  0.6809511367559153  0.4065227220391988  0.6862490178568523  1.0000
  O   O14       1.0  0.5973810675966007  0.4063122087014718  0.5583740573423412  1.0000
  O   O15       1.0  0.07689591384757921  0.8553711823309057  0.5052741426201238  1.0000
  O   O16       1.0  0.18696937542696918  0.8310826795204423  0.6051797201456497  1.0000
  O   O17       1.0  0.2744623289800857  0.280159052549955  0.5939300315838738  1.0000
  O   O18       1.0  0.1908321234354774  0.15228153770090816  0.5938154551190495  1.0000
  O   O19       1.0  0.22103324204837096  0.6500242994821904  0.14500241348150683  1.0000
  O   O20       1.0  0.3556304995168276  0.7743345013287808  0.16966434904628608  1.0000
  O   O21       1.0  0.9947496064461845  0.3140349044320415  0.720135174686071  1.0000
  O   O22       1.0  0.039154352096325326  0.44173292777652057  0.8480105038680608  1.0000
  O   O23       1.0  0.5710813941652972  0.4943815611813846  0.34995216886288466  1.0000
  O   O24       1.0  0.5813466690879353  0.39467132495997237  0.22580353602027978  1.0000
