data_image0
_chemical_formula_structural       V8Zn4H36C40N12O24
_chemical_formula_sum              "V8 Zn4 H36 C40 N12 O24"
_cell_length_a       9.381062522912778
_cell_length_b       10.678571493246842
_cell_length_c       15.163657033533614
_cell_angle_alpha    105.39820622725404
_cell_angle_beta     104.82580053320221
_cell_angle_gamma    93.28959578940042

_space_group_name_H-M_alt    "P 1"
_space_group_IT_number       1

loop_
  _space_group_symop_operation_xyz
  'x, y, z'

loop_
  _atom_site_type_symbol
  _atom_site_label
  _atom_site_symmetry_multiplicity
  _atom_site_fract_x
  _atom_site_fract_y
  _atom_site_fract_z
  _atom_site_occupancy
  V   V1        1.0  0.3325928908957109  0.347715412630194  0.7043089917841456  1.0000
  V   V2        1.0  0.6673943393487746  0.6522906967611987  0.29568754557247706  1.0000
  V   V3        1.0  0.14138467837421592  0.16075859355863997  0.7948492470456117  1.0000
  V   V4        1.0  0.8586189074641126  0.8392464544635131  0.20515235526293904  1.0000
  V   V5        1.0  0.9036824747204265  0.962961515289372  0.5791991628646044  1.0000
  V   V6        1.0  0.0963207953989951  0.0370346930089127  0.4208040203931134  1.0000
  V   V7        1.0  0.4192375471898089  0.452474425559295  0.08307883089019438  1.0000
  V   V8        1.0  0.5807637032071541  0.5475296648031501  0.9169189184462992  1.0000
  Zn  Zn1       1.0  0.2323145136030575  0.15193139444128428  0.017118770817233998  1.0000
  Zn  Zn2       1.0  0.7676914438757336  0.8480677555673353  0.9828827604973398  1.0000
  Zn  Zn3       1.0  0.3317632815011038  0.2969724239556371  0.4848791488337127  1.0000
  Zn  Zn4       1.0  0.6682385967296653  0.7030287158166288  0.5151194643018114  1.0000
  H   H1        1.0  0.43706561722228093  0.43105526972067304  0.2697165511640094  1.0000
  H   H2        1.0  0.5629315480502726  0.5689439311003566  0.7302802801256902  1.0000
  H   H3        1.0  0.09434570686172354  0.06673763183970043  0.2389053635574783  1.0000
  H   H4        1.0  0.9056552103174554  0.9332644849751545  0.7610952577616387  1.0000
  H   H5        1.0  0.2313722636044985  0.9122086071622346  0.2664470610857208  1.0000
  H   H6        1.0  0.7686298917434087  0.0877944746485326  0.7335565788649205  1.0000
  H   H7        1.0  0.006436146016348196  0.3260823372986366  0.9816628009690263  1.0000
  H   H8        1.0  0.9935751581308455  0.6739226803760943  0.018339375858140418  1.0000
  H   H9        1.0  0.3908023728477731  0.9244823469242649  0.9841066128786906  1.0000
  H   H10       1.0  0.6092084197851123  0.07551970386468551  0.015901517505270128  1.0000
  H   H11       1.0  0.2718706472128929  0.57022031209069  0.25424076621494857  1.0000
  H   H12       1.0  0.7281125154060677  0.4297740415830163  0.7457535620614165  1.0000
  H   H13       1.0  0.5715998964740407  0.2817518823632382  0.21642155286991027  1.0000
  H   H14       1.0  0.42839524667338946  0.7182414471633435  0.7835725282968014  1.0000
  H   H15       1.0  0.18246405832206852  0.5199718373331733  0.5494806292639325  1.0000
  H   H16       1.0  0.8175364081184926  0.48002734673074343  0.4505173885810976  1.0000
  H   H17       1.0  0.8471713561811498  0.45082048415765275  0.07161401731536193  1.0000
  H   H18       1.0  0.15283115455847712  0.5491777076501948  0.928384801386045  1.0000
  H   H19       1.0  0.965647877496174  0.22749008375772203  0.2740627996486324  1.0000
  H   H20       1.0  0.0343491550290622  0.7725012733033978  0.7259318727829083  1.0000
  H   H21       1.0  0.8302976794014897  0.4034643856377257  0.2243143203960187  1.0000
  H   H22       1.0  0.1697029641342667  0.5965289150850737  0.7756819577739549  1.0000
  H   H23       1.0  0.39167603116728594  0.7513879415278664  0.21061663622581508  1.0000
  H   H24       1.0  0.6083259412090385  0.2486141443189567  0.7893907435321381  1.0000
  H   H25       1.0  0.5321623601635037  0.0989805482563  0.47576045457657296  1.0000
  H   H26       1.0  0.4678398185596749  0.9010225466832578  0.5242398942083426  1.0000
  H   H27       1.0  0.11166255702315911  0.714609819206082  0.3290366923799581  1.0000
  H   H28       1.0  0.8883276773706469  0.285387444207359  0.6709599795485701  1.0000
  H   H29       1.0  0.06718213916825988  0.6933568029592435  0.482755110480383  1.0000
  H   H30       1.0  0.9328154581426915  0.3066453201096948  0.5172469572159812  1.0000
  H   H31       1.0  0.4766288981377969  0.7571926524646883  0.06517940418095243  1.0000
  H   H32       1.0  0.5233791943118931  0.242813325415959  0.9348310109464677  1.0000
  H   H33       1.0  0.7038680273626882  0.09089600581513929  0.23676329686580996  1.0000
  H   H34       1.0  0.29612710643463197  0.9090973184599349  0.7632321007671975  1.0000
  H   H35       1.0  0.6856183878870112  0.9977293633311531  0.3713799633399404  1.0000
  H   H36       1.0  0.3143808123344982  0.0022688399822997003  0.628618985272432  1.0000
  C   C1        1.0  0.22335524079081642  0.0031612669538035013  0.15350876674386876  1.0000
  C   C2        1.0  0.7766538360857355  0.9968437470130455  0.8464963490342325  1.0000
  C   C3        1.0  0.4811569017781849  0.29087434651878397  0.3353431772610023  1.0000
  C   C4        1.0  0.5188412198709074  0.7091238746339101  0.6646523040782525  1.0000
  C   C5        1.0  0.0579930163239553  0.1849290555414456  0.1543883444126806  1.0000
  C   C6        1.0  0.9420090249768408  0.8150661930124341  0.845610503747217  1.0000
  C   C7        1.0  0.3180877282246258  0.47259083918287814  0.36477214120039037  1.0000
  C   C8        1.0  0.6819000111315033  0.5274044837356868  0.6352211263976741  1.0000
  C   C9        1.0  0.2672781489523928  0.911227665332042  0.20347198208320802  1.0000
  C   C10       1.0  0.7327313646376086  0.0887802735084691  0.7965377118684174  1.0000
  C   C11       1.0  0.9932879521477178  0.3077690696069483  0.04669399558596876  1.0000
  C   C12       1.0  0.006715815460857763  0.6922300976998484  0.9533052088143847  1.0000
  C   C13       1.0  0.35906804771060064  0.9181521794095888  0.0472569997156215  1.0000
  C   C14       1.0  0.6409454042313242  0.0818527973351451  0.9527534281240689  1.0000
  C   C15       1.0  0.253715494753699  0.5653506570824548  0.32149096328056004  1.0000
  C   C16       1.0  0.7462730367076064  0.4346427007068528  0.6785020612417938  1.0000
  C   C17       1.0  0.5671436320827395  0.23931994833033332  0.27368296982635343  1.0000
  C   C18       1.0  0.4328494574155215  0.7606743682008031  0.7263116269502703  1.0000
  C   C19       1.0  0.20210580879984263  0.5383336317515203  0.48581026184066894  1.0000
  C   C20       1.0  0.797891834060316  0.46166164089569156  0.5141865654233655  1.0000
  C   C21       1.0  0.904112555864657  0.3757483792790168  0.09692186155737663  1.0000
  C   C22       1.0  0.09589200384908741  0.6242488228985152  0.9030770997672732  1.0000
  C   C23       1.0  0.9696805396475554  0.25125493698122625  0.20904984033164448  1.0000
  C   C24       1.0  0.03031553650114197  0.7487373997482293  0.790946182050341  1.0000
  C   C25       1.0  0.894028163609562  0.3477052882891342  0.1804599863086338  1.0000
  C   C26       1.0  0.1059694792505965  0.6522899843580773  0.8195368409554077  1.0000
  C   C27       1.0  0.3580040741237127  0.8226491826611736  0.17238067507049953  1.0000
  C   C28       1.0  0.6420071785978863  0.1773558061302225  0.8276287423212522  1.0000
  C   C29       1.0  0.543537200791576  0.1354336555529798  0.41708293308003874  1.0000
  C   C30       1.0  0.45646341589519335  0.8645665060945761  0.582915952589687  1.0000
  C   C31       1.0  0.16423241026311083  0.6452216622546698  0.3635781929974867  1.0000
  C   C32       1.0  0.8357548503040846  0.3547707121584125  0.6364164205253501  1.0000
  C   C33       1.0  0.1388248657061553  0.6333184811114592  0.4484588300614973  1.0000
  C   C34       1.0  0.8611703996371534  0.3666758102442316  0.5515400683287764  1.0000
  C   C35       1.0  0.4053074467812082  0.8250330837045324  0.09227852698612789  1.0000
  C   C36       1.0  0.5947025397213395  0.1749709243363995  0.9077318211729732  1.0000
  C   C37       1.0  0.6399778254473603  0.13326362284433907  0.285483701974428  1.0000
  C   C38       1.0  0.3600177684386808  0.8667326394331808  0.7145129826663704  1.0000
  C   C39       1.0  0.6298249260726507  0.08063860406591772  0.35939300944417596  1.0000
  C   C40       1.0  0.3701726665632493  0.9193635163772598  0.6406097164853364  1.0000
  N   N1        1.0  0.2907314529943648  0.4590635564645638  0.4451869913135765  1.0000
  N   N2        1.0  0.7092643098380977  0.5409336938996319  0.5548079282193399  1.0000
  N   N3        1.0  0.4096137588563309  0.3963902498337574  0.3210403987728654  1.0000
  N   N4        1.0  0.5903807424321313  0.6036060224057352  0.6789547932942526  1.0000
  N   N5        1.0  0.4684383866099184  0.23731343950115757  0.4048304882719194  1.0000
  N   N6        1.0  0.5315609778829612  0.7626857492732099  0.5951673534657117  1.0000
  N   N7        1.0  0.2706144770779844  0.006672042970535601  0.07711832382546648  1.0000
  N   N8        1.0  0.7293978916164647  0.9933329489876853  0.9228892949742543  1.0000
  N   N9        1.0  0.13104455975724957  0.08927564112190112  0.18609836777730485  1.0000
  N   N10       1.0  0.8689561931505665  0.910725490232032  0.8139033604165461  1.0000
  N   N11       1.0  0.07090272914827271  0.21467237030975636  0.07512228458467259  1.0000
  N   N12       1.0  0.9291038795395892  0.7853238422374743  0.924876819363206  1.0000
  O   O1        1.0  0.4049036399591516  0.28742940915592646  0.0643677386938961  1.0000
  O   O2        1.0  0.59509522824591  0.7125736972892369  0.935632740001978  1.0000
  O   O3        1.0  0.2555777258657699  0.49835086700588255  0.07378296321805781  1.0000
  O   O4        1.0  0.7444227604763398  0.5016552042403646  0.9262110797952728  1.0000
  O   O5        1.0  0.5000055076314425  0.5000010898133666  7.553786573835217e-07  1.0000
  O   O6        1.0  0.21427263112434505  0.0928069185350893  0.8832800975933209  1.0000
  O   O7        1.0  0.7857331632844122  0.9071981226919091  0.11672119869687232  1.0000
  O   O8        1.0  0.053719418425401996  0.28047558635083897  0.8337440759494683  1.0000
  O   O9        1.0  0.9462805517273478  0.7195275153838665  0.16625657885380454  1.0000
  O   O10       1.0  0.014237131516551902  0.0314398512685727  0.7010985952539811  1.0000
  O   O11       1.0  0.9857639393825438  0.9685563690763743  0.29890357755580516  1.0000
  O   O12       1.0  0.7460477459403165  0.0219453782500025  0.566096744722067  1.0000
  O   O13       1.0  0.2539575404278479  0.9780498220376682  0.43391118879089413  1.0000
  O   O14       1.0  5.15382609499735e-07  3.8603573600001066e-06  0.5000031608298059  1.0000
  O   O15       1.0  0.2856582692860457  0.21737950423868568  0.7504923076720047  1.0000
  O   O16       1.0  0.7143357415909861  0.7826275649766572  0.24950352122109357  1.0000
  O   O17       1.0  0.5315982223907626  0.5264606216162447  0.2041365377155344  1.0000
  O   O18       1.0  0.46839181620763537  0.4735425146352766  0.7958645068206279  1.0000
  O   O19       1.0  0.18767469503919904  0.41513142495391975  0.6660687868103138  1.0000
  O   O20       1.0  0.8123171072674041  0.5848756510565708  0.3339273481011488  1.0000
  O   O21       1.0  0.40802006973842  0.2888885264767751  0.6132578820174572  1.0000
  O   O22       1.0  0.5919717138679701  0.7111185390306858  0.3867408858265762  1.0000
  O   O23       1.0  0.8704610603783042  0.7989770798376554  0.5613334417069779  1.0000
  O   O24       1.0  0.12954348063522758  0.20102011183685417  0.43866815255024955  1.0000
