data_image0
_chemical_formula_structural       Na4P4H32C32O12
_chemical_formula_sum              "Na4 P4 H32 C32 O12"
_cell_length_a       5.90682448437207
_cell_length_b       7.650147371891183
_cell_length_c       18.735493697165314
_cell_angle_alpha    87.50848122355357
_cell_angle_beta     88.44118103556349
_cell_angle_gamma    89.83200073475629

_space_group_name_H-M_alt    "P 1"
_space_group_IT_number       1

loop_
  _space_group_symop_operation_xyz
  'x, y, z'

loop_
  _atom_site_type_symbol
  _atom_site_label
  _atom_site_symmetry_multiplicity
  _atom_site_fract_x
  _atom_site_fract_y
  _atom_site_fract_z
  _atom_site_occupancy
  Na  Na1       1.0  0.87978513344396  0.16316480064308791  0.5269953417153631  1.0000
  Na  Na2       1.0  0.12026927159729443  0.836796525116277  0.47301202898989214  1.0000
  Na  Na3       1.0  0.6191538482495887  0.6696826322601552  0.47318718202648585  1.0000
  Na  Na4       1.0  0.3808732173860463  0.330251266740305  0.5268184749711224  1.0000
  P   P1        1.0  0.37335210739649227  0.9270645098087157  0.6059428100320262  1.0000
  P   P2        1.0  0.6266832277883482  0.07286021976425869  0.3940607275350772  1.0000
  P   P3        1.0  0.12309512470095292  0.447830645712095  0.39557789849442326  1.0000
  P   P4        1.0  0.8769126823836116  0.5521242023071906  0.6044394744521001  1.0000
  H   H1        1.0  0.7368049532263682  0.8792159924366347  0.5971062711082029  1.0000
  H   H2        1.0  0.2632513069323963  0.12072572976435228  0.4028843236763607  1.0000
  H   H3        1.0  0.37393087699796024  0.8130409803466208  0.7316956470891756  1.0000
  H   H4        1.0  0.626104668283773  0.18697530580472935  0.268327109185151  1.0000
  H   H5        1.0  0.9926598003718397  0.06261723887362788  0.6820961596359254  1.0000
  H   H6        1.0  0.0073859842783577075  0.9373506744395215  0.3178904216598539  1.0000
  H   H7        1.0  0.2476930816682241  0.8128315881853395  0.8425529095000003  1.0000
  H   H8        1.0  0.7523077539099816  0.1871913123305546  0.15746072440407496  1.0000
  H   H9        1.0  0.0634950462661408  0.8028669950316499  0.9623055433704408  1.0000
  H   H10       1.0  0.9364711085719009  0.19721485584445725  0.03769805195464931  1.0000
  H   H11       1.0  0.6911614786959818  0.9471066086708573  0.9825193547655433  1.0000
  H   H12       1.0  0.3088161721204443  0.05296609853573388  0.017461240180907105  1.0000
  H   H13       1.0  0.5010165438378991  0.1031836424217332  0.8799010828321203  1.0000
  H   H14       1.0  0.49899745387148187  0.896898178049035  0.12006857440059801  1.0000
  H   H15       1.0  0.6865765994744707  0.11275185743099311  0.7594401870286591  1.0000
  H   H16       1.0  0.3134730126885472  0.887272332299446  0.24053092612834362  1.0000
  H   H17       1.0  0.7605428083385563  0.3975406781651217  0.4040149063345808  1.0000
  H   H18       1.0  0.23947184659154175  0.6023801383887529  0.5960040106852774  1.0000
  H   H19       1.0  0.1294591562770719  0.3607831495193068  0.2697546867930996  1.0000
  H   H20       1.0  0.870567551115727  0.6391900085019487  0.7302460178921281  1.0000
  H   H21       1.0  0.4936311242730369  0.6112900376893647  0.3208937611635747  1.0000
  H   H22       1.0  0.506343696439629  0.3887263746618713  0.6791134979557045  1.0000
  H   H23       1.0  0.27028007151606903  0.3748967152346339  0.16061979578937982  1.0000
  H   H24       1.0  0.7296679532417657  0.6251302042965392  0.8393909499601835  1.0000
  H   H25       1.0  0.47345164249922783  0.38117661598811026  0.0440606538750146  1.0000
  H   H26       1.0  0.5264824516916562  0.6188372491925733  0.9559462912734917  1.0000
  H   H27       1.0  0.8342124401931629  0.5465468557638926  0.025528577486234407  1.0000
  H   H28       1.0  0.1657266744010713  0.45344737581226  0.9744780897825934  1.0000
  H   H29       1.0  0.9984104727038953  0.6994462072626887  0.12729455637112613  1.0000
  H   H30       1.0  0.00152225424974974  0.30058600097857635  0.8726966069144313  1.0000
  H   H31       1.0  0.7973921689243183  0.6879160006474335  0.24567117940053154  1.0000
  H   H32       1.0  0.2025734935790169  0.31213445741129675  0.754327634205012  1.0000
  C   C1        1.0  0.27515809826500265  0.9005051962832837  0.696844853897659  1.0000
  C   C2        1.0  0.7248893458372835  0.099457452700193  0.30316047907575694  1.0000
  C   C3        1.0  0.0844252507519343  0.979054873869174  0.7203639898916023  1.0000
  C   C4        1.0  0.9156145416988578  0.0209483635052194  0.27963062102624303  1.0000
  C   C5        1.0  0.9805080105405539  0.9648708188651655  0.7921907184743092  1.0000
  C   C6        1.0  0.019487197487912108  0.03513511937437389  0.20779821428273956  1.0000
  C   C7        1.0  0.08409715549996123  0.8765076577744751  0.8502248352029727  1.0000
  C   C8        1.0  0.915925130400872  0.1235374593109526  0.14978162888695584  1.0000
  C   C9        1.0  0.980040815083548  0.8705924762874631  0.9178389594916253  1.0000
  C   C10       1.0  0.019930754040942102  0.1294396686646309  0.0821504604350594  1.0000
  C   C11       1.0  0.7702775852747834  0.9520043750915262  0.9291529173253752  1.0000
  C   C12       1.0  0.22967782444656848  0.04807622366909919  0.07082525715906482  1.0000
  C   C13       1.0  0.6642737977160351  0.03888832225470651  0.87200133890412  1.0000
  C   C14       1.0  0.33571050734283153  0.9611438149990333  0.12797878206384183  1.0000
  C   C15       1.0  0.7685994027435185  0.04493592527825291  0.8041822885205789  1.0000
  C   C16       1.0  0.2314524867693066  0.9551144190859375  0.1957947348279845  1.0000
  C   C17       1.0  0.22212570527617706  0.4439765960697883  0.3048527507998387  1.0000
  C   C18       1.0  0.7778846990483785  0.5560122796166382  0.6951549042792211  1.0000
  C   C19       1.0  0.40917742473739344  0.5325547108845966  0.2822598421963818  1.0000
  C   C20       1.0  0.590817618921406  0.4674669028856043  0.7177459057591948  1.0000
  C   C21       1.0  0.519193228965335  0.5331725628147055  0.21150472769207346  1.0000
  C   C22       1.0  0.4807695038283128  0.4668438737229081  0.7885000717695761  1.0000
  C   C23       1.0  0.42932860546850565  0.44657233050327255  0.15384926595495332  1.0000
  C   C24       1.0  0.5706257642327729  0.5534558940176096  0.8461565408377968  1.0000
  C   C25       1.0  0.5430936094409091  0.45115942367503686  0.08781893661130623  1.0000
  C   C26       1.0  0.4568690765811568  0.548858322140468  0.9121853068006376  1.0000
  C   C27       1.0  0.7470415645015221  0.5428957806008724  0.07765618292575031  1.0000
  C   C28       1.0  0.25290028837154915  0.4571298592086349  0.922342411719498  1.0000
  C   C29       1.0  0.839044361336626  0.6284391691913809  0.13442414609184541  1.0000
  C   C30       1.0  0.16089715979084224  0.37158778516403856  0.8655706936368261  1.0000
  C   C31       1.0  0.7260672462554112  0.6226974954117778  0.20083739252138602  1.0000
  C   C32       1.0  0.2738795990756131  0.3773438384682847  0.7991597726588111  1.0000
  O   O1        1.0  0.6319674639913799  0.9877107490218932  0.6085973975326766  1.0000
  O   O2        1.0  0.3680710779122265  0.012233604405373903  0.3914036050025942  1.0000
  O   O3        1.0  0.3768573657664618  0.7487865242937699  0.5712951567804796  1.0000
  O   O4        1.0  0.623193919582441  0.251140783456492  0.42871606720297  1.0000
  O   O5        1.0  0.23412310993640523  0.065427024753987  0.5666488600565317  1.0000
  O   O6        1.0  0.7659168210871032  0.9344833127160541  0.43334950970972136  1.0000
  O   O7        1.0  0.864420223634994  0.5088653608119172  0.3931294420218735  1.0000
  O   O8        1.0  0.1356032377783549  0.4910724446542858  0.6068927620523895  1.0000
  O   O9        1.0  0.12273234937340763  0.2606342046474452  0.42871890233137583  1.0000
  O   O10       1.0  0.8773457456879185  0.7393074555208227  0.5712883998226417  1.0000
  O   O11       1.0  0.2616535813333059  0.5761532661220838  0.43569792175767225  1.0000
  O   O12       1.0  0.7383723261440168  0.42380286884656465  0.5643132398783167  1.0000
