data_image0
_chemical_formula_structural       Cu12H48C87N24O12
_chemical_formula_sum              "Cu12 H48 C87 N24 O12"
_cell_length_a       21.342877712934925
_cell_length_b       22.38638699712255
_cell_length_c       23.25843717468527
_cell_angle_alpha    90.8944056695246
_cell_angle_beta     89.97373789104482
_cell_angle_gamma    90.50309056904885

_space_group_name_H-M_alt    "P 1"
_space_group_IT_number       1

loop_
  _space_group_symop_operation_xyz
  'x, y, z'

loop_
  _atom_site_type_symbol
  _atom_site_label
  _atom_site_symmetry_multiplicity
  _atom_site_fract_x
  _atom_site_fract_y
  _atom_site_fract_z
  _atom_site_occupancy
  Cu  Cu1       1.0  0.8075159279602605  0.7859254908553837  0.1374810170909697  1.0000
  Cu  Cu2       1.0  0.8258756033434977  0.9083135059488259  0.20007265691184267  1.0000
  Cu  Cu3       1.0  0.9011830975374195  0.8061941800385667  0.2508099871946783  1.0000
  Cu  Cu4       1.0  0.19379510840196448  0.7430144326408624  0.8849700751525093  1.0000
  Cu  Cu5       1.0  0.20028879470349645  0.862052724733616  0.8027002318614294  1.0000
  Cu  Cu6       1.0  0.09083560287709248  0.7698199357425327  0.7973337046628329  1.0000
  Cu  Cu7       1.0  0.7146133075856865  0.23492561129905454  0.8507547319354033  1.0000
  Cu  Cu8       1.0  0.7545287502080028  0.13706768596913582  0.7548199804685751  1.0000
  Cu  Cu9       1.0  0.8490487731925072  0.2373865470421066  0.8055099868209936  1.0000
  Cu  Cu10      1.0  0.24894217296847637  0.19816249152824386  0.11823578999280218  1.0000
  Cu  Cu11      1.0  0.2708611054200105  0.1414946319085075  0.23143797229446514  1.0000
  Cu  Cu12      1.0  0.14374589859967557  0.21375524660055592  0.2219212902604397  1.0000
  H   H1        1.0  0.69647482555645  0.8219182072002768  0.0451627057012942  1.0000
  H   H2        1.0  0.7499218101323495  0.9921810587309567  0.1225450740920095  1.0000
  H   H3        1.0  0.9725851928075072  0.6853267607360324  0.24569389663158597  1.0000
  H   H4        1.0  0.8528886414814637  0.6596348493454302  0.09690864583440371  1.0000
  H   H5        1.0  0.8485106913312775  0.012110273046232602  0.2899642807510077  1.0000
  H   H6        1.0  0.9571480600941983  0.8721435868901327  0.36794722202549934  1.0000
  H   H7        1.0  0.33385299443867217  0.7425809163549317  0.9267934495203108  1.0000
  H   H8        1.0  0.33058328045163415  0.9138647130966575  0.8428683308039806  1.0000
  H   H9        1.0  0.984451687231349  0.6793990984396601  0.8325127406396575  1.0000
  H   H10       1.0  0.1243186200848427  0.6393611914219761  0.9611029244934316  1.0000
  H   H11       1.0  0.16096075854944303  0.9490854154537803  0.6961687809463939  1.0000
  H   H12       1.0  0.0258794648837437  0.803881528632907  0.6824941050621051  1.0000
  H   H13       1.0  0.5748667036342212  0.20227740461713492  0.8682852216875502  1.0000
  H   H14       1.0  0.6359801415924197  0.04845887793086941  0.76880487262666  1.0000
  H   H15       1.0  0.9163174142904608  0.3263423848876742  0.8972082374731513  1.0000
  H   H16       1.0  0.7268489682364389  0.31860372487567906  0.9641537119400566  1.0000
  H   H17       1.0  0.8433836209930307  0.07873206407241183  0.6567464780829582  1.0000
  H   H18       1.0  0.9613357225405038  0.22301463916024752  0.7218629207501907  1.0000
  H   H19       1.0  0.3474023387803911  0.1244868318037859  0.035488463972107795  1.0000
  H   H20       1.0  0.38132294409506773  0.0517401120387646  0.20421746827729947  1.0000
  H   H21       1.0  0.060304581364370294  0.3161819568604614  0.1644726796786102  1.0000
  H   H22       1.0  0.20493072366461723  0.29317495770261814  0.03549861848311049  1.0000
  H   H23       1.0  0.26185998170394237  0.09124932975822733  0.3516569256012545  1.0000
  H   H24       1.0  0.07408210126644829  0.1616810229885743  0.33830388712766535  1.0000
  H   H25       1.0  0.7147585629659616  0.042386304342080905  0.022488993907117595  1.0000
  H   H26       1.0  0.6104107439021292  0.0713593054991719  0.9616902575150872  1.0000
  H   H27       1.0  0.4814350681810851  0.7649746834781014  0.911705115837499  1.0000
  H   H28       1.0  0.5724226778849654  0.8440153735614901  0.9492560973194416  1.0000
  H   H29       1.0  0.4391071301873595  0.12825831116380473  0.844036670569423  1.0000
  H   H30       1.0  0.40292215334579135  0.05123713425367531  0.928710760048162  1.0000
  H   H31       1.0  0.42173654130849064  0.9489493367928791  0.14712077850209943  1.0000
  H   H32       1.0  0.49144930410461274  0.8935006956784479  0.0631291296605667  1.0000
  H   H33       1.0  0.0236500750960076  0.5703038248338786  0.2202748338643516  1.0000
  H   H34       1.0  0.051545315185982994  0.47685072932245026  0.14770489224591898  1.0000
  H   H35       1.0  0.16130790527498823  0.38523151914385795  0.977609123299196  1.0000
  H   H36       1.0  0.0796483698288242  0.4737378378681926  0.9499864447176379  1.0000
  H   H37       1.0  0.9061552316179232  0.5985409506918985  0.8794895782572355  1.0000
  H   H38       1.0  0.8711627804604374  0.5083151425877404  0.9508787934103468  1.0000
  H   H39       1.0  0.7780433852470594  0.3803078589484201  0.0670739449458111  1.0000
  H   H40       1.0  0.8598527527350157  0.461267901145739  0.1164335683567543  1.0000
  H   H41       1.0  0.8473586579059501  0.0678382898089822  0.4004427433326825  1.0000
  H   H42       1.0  0.9118998393653897  0.10753236606325343  0.49568190633385706  1.0000
  H   H43       1.0  0.04263331538750491  0.20346394313827434  0.6370589994868823  1.0000
  H   H44       1.0  0.10091931266543241  0.13903616493459484  0.5518377624854693  1.0000
  H   H45       1.0  0.2365337050266376  0.0430010420417801  0.4494877977411278  1.0000
  H   H46       1.0  0.16143450550892166  0.9919999516338793  0.531002931599879  1.0000
  H   H47       1.0  0.019314244817906  0.8246542698965555  0.5699324463113484  1.0000
  H   H48       1.0  0.9820720304990757  0.9033908323146564  0.4882809394735546  1.0000
  C   C1        1.0  0.7163623452386858  0.8586204812067708  0.07030097266702032  1.0000
  C   C2        1.0  0.7053020667565449  0.920304436529527  0.06710238336329159  1.0000
  C   C3        1.0  0.7444735153510607  0.9456911552504083  0.10949254449291602  1.0000
  C   C4        1.0  0.9380888917606356  0.6880198618675806  0.21159706179968651  1.0000
  C   C5        1.0  0.9255153468165743  0.6479145270571891  0.1659250485895996  1.0000
  C   C6        1.0  0.8768708601450327  0.6750539477931455  0.13553984334468083  1.0000
  C   C7        1.0  0.8721014456061766  0.9712889778201728  0.30150819225065817  1.0000
  C   C8        1.0  0.9090623523988056  0.9592870589364467  0.34975178492825176  1.0000
  C   C9        1.0  0.9280305202809487  0.8997640217421577  0.34115569572571053  1.0000
  C   C10       1.0  0.3229320713853454  0.7821823885077068  0.9025291683537091  1.0000
  C   C11       1.0  0.3601978351543522  0.832671206614336  0.8915993122088041  1.0000
  C   C12       1.0  0.32076565028415865  0.8700974033124  0.86027347452616  1.0000
  C   C13       1.0  0.025419001126401504  0.676745086061942  0.8598874608871441  1.0000
  C   C14       1.0  0.036189354410453206  0.6405888416843695  0.9076128692116894  1.0000
  C   C15       1.0  0.0971197593299848  0.6562744030206957  0.9255950694020997  1.0000
  C   C16       1.0  0.13185471735840792  0.9095498061422592  0.701282604733507  1.0000
  C   C17       1.0  0.08337102772854621  0.8867424994643971  0.666121968714876  1.0000
  C   C18       1.0  0.06329600548019701  0.8348550607268949  0.6941548558278897  1.0000
  C   C19       1.0  0.5988200661331575  0.17050030225900065  0.8404255901340177  1.0000
  C   C20       1.0  0.580043110949248  0.1125905052891696  0.8236919428023837  1.0000
  C   C21       1.0  0.6302360309625072  0.09145538612644802  0.7902260946286432  1.0000
  C   C22       1.0  0.8670401510484211  0.3180648097919915  0.9055496714205801  1.0000
  C   C23       1.0  0.8298820989036957  0.3383825162617313  0.9516641185619789  1.0000
  C   C24       1.0  0.7701931547863907  0.31405370136521077  0.9401498358568432  1.0000
  C   C25       1.0  0.8643870795153247  0.11656510233523683  0.6794320459360391  1.0000
  C   C26       1.0  0.9229956277458983  0.14422236856638193  0.6710657677930528  1.0000
  C   C27       1.0  0.9246156244282987  0.1904919974012317  0.7125419100681044  1.0000
  C   C28       1.0  0.3487787291587381  0.11385110106365912  0.08080070883630701  1.0000
  C   C29       1.0  0.3825036249048139  0.06933794123987981  0.1090139721108088  1.0000
  C   C30       1.0  0.365902037112413  0.07643161180870091  0.16712571279963842  1.0000
  C   C31       1.0  0.10015953697146783  0.30291548707648985  0.1384432670889453  1.0000
  C   C32       1.0  0.1207114348240452  0.32515393151425803  0.0853757709201233  1.0000
  C   C33       1.0  0.1740429394422023  0.29124350498229756  0.0725057691663054  1.0000
  C   C34       1.0  0.2189355907082344  0.11369805769651012  0.3401214984139003  1.0000
  C   C35       1.0  0.16068012376199897  0.1138067579295736  0.3680561535889026  1.0000
  C   C36       1.0  0.12280687414246932  0.14935176557264646  0.33299170937014827  1.0000
  C   C37       1.0  0.026015646702475696  0.0297578433558385  0.5172531579572706  1.0000
  C   C38       1.0  0.5142867361019015  0.9709339753325209  0.9623044821725344  1.0000
  C   C39       1.0  0.9730838454360722  0.4817047230514931  0.0375088271217123  1.0000
  C   C40       1.0  0.6665333705576587  0.9560818028040929  0.0307185686595588  1.0000
  C   C41       1.0  0.6741641948133364  0.014183538570250703  0.013803562645911401  1.0000
  C   C42       1.0  0.6200244988840993  0.0290564839904022  0.981607910104465  1.0000
  C   C43       1.0  0.5823183775194778  0.9791955802109416  0.9799471155266842  1.0000
  C   C44       1.0  0.4236295420212316  0.8455217964451479  0.9097262778299254  1.0000
  C   C45       1.0  0.47679545311475385  0.8127701288922539  0.9186349771603586  1.0000
  C   C46       1.0  0.524651390059809  0.8540217287394829  0.937291886280775  1.0000
  C   C47       1.0  0.4980066450367461  0.9093871366121958  0.9384941215473573  1.0000
  C   C48       1.0  0.5280879185137906  0.0804691621147242  0.849818299703017  1.0000
  C   C49       1.0  0.4668327074329354  0.09314368100231718  0.8627944283396333  1.0000
  C   C50       1.0  0.4479008427305189  0.0530675633400719  0.9071604675237593  1.0000
  C   C51       1.0  0.49863507946994906  0.018256724002384307  0.918835153058204  1.0000
  C   C52       1.0  0.4211415510283559  0.022508278798874  0.08582485899479052  1.0000
  C   C53       1.0  0.43619502698224016  0.967110974383914  0.10616122064384831  1.0000
  C   C54       1.0  0.47162282385027515  0.9378857273092861  0.06232764934144091  1.0000
  C   C55       1.0  0.476545861519142  0.9770048245291607  0.0178157796453107  1.0000
  C   C56       1.0  0.9571702931421769  0.5930299872217264  0.1520553976087058  1.0000
  C   C57       1.0  0.0027571554414436  0.5603759424629189  0.1786488041191561  1.0000
  C   C58       1.0  0.017474823191996298  0.5116008388298214  0.14083132712366359  1.0000
  C   C59       1.0  0.9800181496468313  0.5168765152189325  0.09347121174023698  1.0000
  C   C60       1.0  0.09696580073450889  0.37225506892403365  0.05024365700883491  1.0000
  C   C61       1.0  0.119082364089472  0.3976999781718078  0.0006802727381015002  1.0000
  C   C62       1.0  0.0765137153582387  0.44388617099456723  0.9861080856786443  1.0000
  C   C63       1.0  0.030908620500468897  0.4443169250079606  0.0274051125059955  1.0000
  C   C64       1.0  0.992913177392751  0.5973558032947325  0.9302791489579934  1.0000
  C   C65       1.0  0.9333934695198848  0.580012456597416  0.9142194993657925  1.0000
  C   C66       1.0  0.9151132064521691  0.5328957346016097  0.9513895013300556  1.0000
  C   C67       1.0  0.9641752756055197  0.5240132418539005  0.9880028626661  1.0000
  C   C68       1.0  0.8490194944935539  0.37710200926397164  0.998620630176248  1.0000
  C   C69       1.0  0.8226818975050636  0.3952696054669644  0.04991752460622221  1.0000
  C   C70       1.0  0.865492236652578  0.4371292477021528  0.0760070074040442  1.0000
  C   C71       1.0  0.9153405567970411  0.44199858727968433  0.039428071438131  1.0000
  C   C72       1.0  0.9208826455781888  0.999924413676041  0.39721369148402635  1.0000
  C   C73       1.0  0.8899125073173977  0.04930371981830461  0.41806005516601624  1.0000
  C   C74       1.0  0.9231975462324796  0.06974656071451342  0.4680070952546983  1.0000
  C   C75       1.0  0.9723436805977314  0.0318021435356428  0.47492772079165485  1.0000
  C   C76       1.0  0.9720491276290275  0.1316822300876339  0.6302260282801129  1.0000
  C   C77       1.0  0.026508760031880695  0.16191202627479845  0.6172910830749387  1.0000
  C   C78       1.0  0.056871659321615205  0.1285612814937593  0.572793832020963  1.0000
  C   C79       1.0  0.019476111326348192  0.08005192787156551  0.5608803452852199  1.0000
  C   C80       1.0  0.14789577453747432  0.08111925275683521  0.4197007353053621  1.0000
  C   C81       1.0  0.18627687777913593  0.04795039529836491  0.4542269208743335  1.0000
  C   C82       1.0  0.1472929381492705  0.0210305996010618  0.4965312553538154  1.0000
  C   C83       1.0  0.08755986405000019  0.039488169793557404  0.4859167388056776  1.0000
  C   C84       1.0  0.057639095387969505  0.9053523048267776  0.6120257639955397  1.0000
  C   C85       1.0  0.0265246379636253  0.8726886671759218  0.5702793227891333  1.0000
  C   C86       1.0  0.007065149094430001  0.9135811364181594  0.5277341475978758  1.0000
  C   C87       1.0  0.027545291458700695  0.9690040335568428  0.5453512643885218  1.0000
  N   N1        1.0  0.7765049471121586  0.9025318546098546  0.1357112306592327  1.0000
  N   N2        1.0  0.7593612475096877  0.8484541898205507  0.11168219736648409  1.0000
  N   N3        1.0  0.861798854561144  0.7274722867798854  0.1612502803426068  1.0000
  N   N4        1.0  0.8998938574441337  0.7355984623333783  0.20842803569463803  1.0000
  N   N5        1.0  0.9035878720519791  0.878080993992839  0.2913949927083194  1.0000
  N   N6        1.0  0.8691495515728249  0.9225168931188394  0.2670454357091145  1.0000
  N   N7        1.0  0.26433562480668377  0.8435717138952159  0.8527436337775214  1.0000
  N   N8        1.0  0.26558998174932213  0.7890404580173326  0.8791678727271375  1.0000
  N   N9        1.0  0.12063522790377589  0.698737910950129  0.8907923239186674  1.0000
  N   N10       1.0  0.0761164820018436  0.7112988116685203  0.8502985804040363  1.0000
  N   N11       1.0  0.0973471990956725  0.8272105862074284  0.7420125941336835  1.0000
  N   N12       1.0  0.13993467095875192  0.8733561697449872  0.7467175290632398  1.0000
  N   N13       1.0  0.6755096811515388  0.1337839022503644  0.7874747831527316  1.0000
  N   N14       1.0  0.656047619728149  0.18290991959309372  0.8188693173571552  1.0000
  N   N15       1.0  0.7719079408615668  0.28176340370463043  0.8907254728973654  1.0000
  N   N16       1.0  0.8318615978967685  0.28411799372128144  0.8694472888340243  1.0000
  N   N17       1.0  0.8711093621838942  0.19037711674297236  0.7431721788750849  1.0000
  N   N18       1.0  0.8335724931851872  0.14461471853100252  0.7227831816408922  1.0000
  N   N19       1.0  0.32497549117594826  0.1215381503372868  0.17290603338285848  1.0000
  N   N20       1.0  0.31419444703669797  0.1447109323406366  0.1195917747031956  1.0000
  N   N21       1.0  0.18448604047005554  0.2520012046187148  0.1146037885148772  1.0000
  N   N22       1.0  0.13877604715322184  0.25898788448716203  0.1557297911997253  1.0000
  N   N23       1.0  0.1564862193337646  0.1685745606527789  0.2873677886732366  1.0000
  N   N24       1.0  0.21602605422809518  0.14635048920942492  0.2921751430491923  1.0000
  O   O1        1.0  0.6101799198439722  0.9339125249443613  0.010022217136935302  1.0000
  O   O2        1.0  0.4364930941900909  0.9048775413720662  0.9213996783243346  1.0000
  O   O3        1.0  0.546944191386487  0.03302591700686011  0.8827481458695343  1.0000
  O   O4        1.0  0.44624579055648184  0.029192395061450303  0.0314847995109275  1.0000
  O   O5        1.0  0.9425972648287838  0.5663318903330888  0.09980879311107319  1.0000
  O   O6        1.0  0.042501744739368505  0.40038152308360253  0.06692036081398102  1.0000
  O   O7        1.0  0.0121326418829142  0.5635095189203412  0.9759800559869731  1.0000
  O   O8        1.0  0.9062959660265621  0.40522816059574046  0.9921891744350475  1.0000
  O   O9        1.0  0.9719238571640362  0.989095657219039  0.4316572667996327  1.0000
  O   O10       1.0  0.9671924169754715  0.08110255268656631  0.5957356666348445  1.0000
  O   O11       1.0  0.08709144369571221  0.07660065365846691  0.4392213471610802  1.0000
  O   O12       1.0  0.05906254756953899  0.9648229963342416  0.5969619081799209  1.0000
