data_image0
_chemical_formula_structural       Cd2H28C34N12O10
_chemical_formula_sum              "Cd2 H28 C34 N12 O10"
_cell_length_a       8.888503671628676
_cell_length_b       10.206687765801577
_cell_length_c       12.489915766940868
_cell_angle_alpha    103.95142145524882
_cell_angle_beta     104.16890123765471
_cell_angle_gamma    115.3912983736902

_space_group_name_H-M_alt    "P 1"
_space_group_IT_number       1

loop_
  _space_group_symop_operation_xyz
  'x, y, z'

loop_
  _atom_site_type_symbol
  _atom_site_label
  _atom_site_symmetry_multiplicity
  _atom_site_fract_x
  _atom_site_fract_y
  _atom_site_fract_z
  _atom_site_occupancy
  Cd  Cd1       1.0  0.6794101631050893  0.6386759358396503  0.7251231468891037  1.0000
  Cd  Cd2       1.0  0.3205802380235525  0.36131475431015053  0.27487760144367007  1.0000
  H   H1        1.0  0.4505953230818562  0.7765409746462594  0.06826073819418355  1.0000
  H   H2        1.0  0.5493953069112578  0.2234662332307096  0.9317350768674971  1.0000
  H   H3        1.0  0.31075328319005996  0.39339594685971235  0.5505526963377109  1.0000
  H   H4        1.0  0.6892410746696954  0.6065953751354272  0.4494432501785895  1.0000
  H   H5        1.0  0.3529078101507822  0.54815562913047  0.5347488335628726  1.0000
  H   H6        1.0  0.6470835909373635  0.4518346309484684  0.4652480254757237  1.0000
  H   H7        1.0  0.8946747998951639  0.5865861535987662  0.9622000200153026  1.0000
  H   H8        1.0  0.10532428713255373  0.4134237162270508  0.03779853211894142  1.0000
  H   H9        1.0  0.008533703518438008  0.5921515685817552  0.16734510869117264  1.0000
  H   H10       1.0  0.9914698993963071  0.4078642188604604  0.8326550894996673  1.0000
  H   H11       1.0  0.8840569736517309  0.6593687484149343  0.31565116288003753  1.0000
  H   H12       1.0  0.11593937311027964  0.34063622969549817  0.6843446064009842  1.0000
  H   H13       1.0  0.6435012575440241  0.7275127020600962  0.2633883539431779  1.0000
  H   H14       1.0  0.3564877977501268  0.2724857626037931  0.7366107953720517  1.0000
  H   H15       1.0  0.5098858131377639  0.8759076885045759  0.8284492876126779  1.0000
  H   H16       1.0  0.4901031247270923  0.12408416364878858  0.1715417083199356  1.0000
  H   H17       1.0  0.36448984612272284  0.6700097540097404  0.74177439333063  1.0000
  H   H18       1.0  0.6355162310320636  0.3299899251010245  0.25822406661310293  1.0000
  H   H19       1.0  0.03594713999638096  0.6033290482026389  0.6814788471920112  1.0000
  H   H20       1.0  0.9640328711651449  0.3966372337021156  0.31851824790560107  1.0000
  H   H21       1.0  0.8375093635273388  0.9146911737116029  0.44467567538265496  1.0000
  H   H22       1.0  0.16250225792037304  0.08531214240545643  0.5553243104534148  1.0000
  H   H23       1.0  0.8669719917265298  0.1249034105335411  0.36946834470464307  1.0000
  H   H24       1.0  0.13304805923244342  0.8751088071740513  0.6305392407317927  1.0000
  H   H25       1.0  0.7877283829067848  0.3204883677562337  0.46141417044157157  1.0000
  H   H26       1.0  0.2122860884441522  0.6795245088302977  0.5385996980465466  1.0000
  H   H27       1.0  0.659623757116897  0.09508333104962222  0.7028334493558505  1.0000
  H   H28       1.0  0.3403904922382992  0.904910582463735  0.29717377432942277  1.0000
  C   C1        1.0  0.7190378591123832  0.6686046635251728  0.002676253782503695  1.0000
  C   C2        1.0  0.2809605894143701  0.3314021794411702  0.9973257831252057  1.0000
  C   C3        1.0  0.845823389792571  0.6221722987282803  0.028937917698236514  1.0000
  C   C4        1.0  0.154170146073497  0.377836379437241  0.9710706866176085  1.0000
  C   C5        1.0  0.904396384909056  0.6217874161407054  0.14278947219123256  1.0000
  C   C6        1.0  0.09561271919172748  0.3782343604366006  0.8572230072521949  1.0000
  C   C7        1.0  0.8351168940934599  0.6615585736547374  0.2274974643290478  1.0000
  C   C8        1.0  0.16487010438891758  0.3384444522293463  0.7725019253146999  1.0000
  C   C9        1.0  0.7047536793087517  0.7035076507997645  0.20138145874089028  1.0000
  C   C10       1.0  0.2952395735207817  0.2964978362820646  0.798608985791404  1.0000
  C   C11       1.0  0.650678466334611  0.7083472307640193  0.08846855283356808  1.0000
  C   C12       1.0  0.34931356131470176  0.2916561833289606  0.9115237911269177  1.0000
  C   C13       1.0  0.5247792877668687  0.7289306391407565  0.9209076375973668  1.0000
  C   C14       1.0  0.4752240293906382  0.2710723316527535  0.07908995560472223  1.0000
  C   C15       1.0  0.4185970396337312  0.7632193487982663  0.8308722627743425  1.0000
  C   C16       1.0  0.5814009093505775  0.23678813288356793  0.1691153097253278  1.0000
  C   C17       1.0  0.09317603069388992  0.6922864282144305  0.7713345982858332  1.0000
  C   C18       1.0  0.9068162011027641  0.3076928085530142  0.22865528819471595  1.0000
  C   C19       1.0  0.7315439336854582  0.8656509351012576  0.6236214126514172  1.0000
  C   C20       1.0  0.2684550607156098  0.13433645700733624  0.3763796783672221  1.0000
  C   C21       1.0  0.7443827178201944  0.9903220527261993  0.5769444467547375  1.0000
  C   C22       1.0  0.25562279745797406  0.009662715048499125  0.42306312011072594  1.0000
  C   C23       1.0  0.8018021069585686  0.9992311683977703  0.4827276671901829  1.0000
  C   C24       1.0  0.1982141235070998  0.000774457474435133  0.5172823256760284  1.0000
  C   C25       1.0  0.8169026470058823  0.117010814905413  0.44045550158340063  1.0000
  C   C26       1.0  0.18310866208429402  0.8829903133070759  0.559555373449449  1.0000
  C   C27       1.0  0.7747565067971607  0.22664403145805784  0.4924902854720799  1.0000
  C   C28       1.0  0.22525133911022277  0.7733591188997269  0.5075186157489782  1.0000
  C   C29       1.0  0.7175355117995892  0.21922756147543507  0.5873508003037884  1.0000
  C   C30       1.0  0.2824642229481925  0.7807655824902754  0.4126608521564422  1.0000
  C   C31       1.0  0.7023611346194726  0.10051688006747381  0.6287193010151597  1.0000
  C   C32       1.0  0.2976635001360534  0.8994830379210298  0.37128986738463254  1.0000
  C   C33       1.0  0.6822508023324332  0.3417044818825801  0.6490014044023412  1.0000
  C   C34       1.0  0.31774268493691693  0.6582837555393795  0.35100761509539075  1.0000
  N   N1        1.0  0.6367823936796881  0.6823947110568938  0.899281557458693  1.0000
  N   N2        1.0  0.3632172722355165  0.3176122611418535  0.10072152643704163  1.0000
  N   N3        1.0  0.5282709636120657  0.7461049777118589  0.03310041764740395  1.0000
  N   N4        1.0  0.4717264280624249  0.2539059964038159  0.9668979702946388  1.0000
  N   N5        1.0  0.26610755241600975  0.7683055734347733  0.8502846264979101  1.0000
  N   N6        1.0  0.7338916346113676  0.2316982431837857  0.1497107085359275  1.0000
  N   N7        1.0  0.2839888252651477  0.8688467144051089  0.9532297629878316  1.0000
  N   N8        1.0  0.7160095250596115  0.13117141823105535  0.04675130456774214  1.0000
  N   N9        1.0  0.12555971116605502  0.8524540898539  0.9356352998203764  1.0000
  N   N10       1.0  0.8744312224697808  0.1475489730687443  0.06434394080301331  1.0000
  N   N11       1.0  0.004325491663372896  0.743721743931282  0.8231065258827217  1.0000
  N   N12       1.0  0.9956655667747611  0.256259400577413  0.17688018990727272  1.0000
  O   O1        1.0  0.7778913478999598  0.7700926919965241  0.5788128113491596  1.0000
  O   O2        1.0  0.22210836434711476  0.22989546805996502  0.42117486224946543  1.0000
  O   O3        1.0  0.6750946119281593  0.8596895553752831  0.708101780539039  1.0000
  O   O4        1.0  0.3249188938553473  0.140315066294427  0.2918995366415161  1.0000
  O   O5        1.0  0.6545915880877332  0.348027598417005  0.7432614611202057  1.0000
  O   O6        1.0  0.34540226064015656  0.6519571820746249  0.25674715385681424  1.0000
  O   O7        1.0  0.6909156504664722  0.44419386343162875  0.6017736910341684  1.0000
  O   O8        1.0  0.3090644290233443  0.5557846758185578  0.3982210727699781  1.0000
  O   O9        1.0  0.3610515954608077  0.5067341974402453  0.5995220441379631  1.0000
  O   O10       1.0  0.6389468727975186  0.4932644621279679  0.40047807665816754  1.0000
