data_image0
_chemical_formula_structural       Ag4H16C24N8
_chemical_formula_sum              "Ag4 H16 C24 N8"
_cell_length_a       7.526006757316635
_cell_length_b       7.528885703951693
_cell_length_c       11.14821667690772
_cell_angle_alpha    100.06347497369212
_cell_angle_beta     103.08946272488099
_cell_angle_gamma    113.88180111420331

_space_group_name_H-M_alt    "P 1"
_space_group_IT_number       1

loop_
  _space_group_symop_operation_xyz
  'x, y, z'

loop_
  _atom_site_type_symbol
  _atom_site_label
  _atom_site_symmetry_multiplicity
  _atom_site_fract_x
  _atom_site_fract_y
  _atom_site_fract_z
  _atom_site_occupancy
  Ag  Ag1       1.0  0.3555853418636588  0.6053496078904246  0.7498604142086195  1.0000
  Ag  Ag2       1.0  0.6444152842206706  0.39464803289443745  0.2501410128083918  1.0000
  Ag  Ag3       1.0  0.5000020380393619  0.4999995343592331  0.49999837179864676  1.0000
  Ag  Ag4       1.0  0.5000014376525145  6.738375261993925e-07  3.1201064274008974e-06  1.0000
  H   H1        1.0  0.1482765438188026  0.8553749143370056  0.34481527688893726  1.0000
  H   H2        1.0  0.010581326595726675  0.8032472540377997  0.15511763954582855  1.0000
  H   H3        1.0  0.8517243102664838  0.1446318037341143  0.6551827057630606  1.0000
  H   H4        1.0  0.9894159330323334  0.19675190934842124  0.8448825313085565  1.0000
  H   H5        1.0  0.44763079191911714  0.019678870054519793  0.27567518652731593  1.0000
  H   H6        1.0  0.24350309034085887  0.1716775326918736  0.22431695169550642  1.0000
  H   H7        1.0  0.5523693429920513  0.9803263399006353  0.7243234134449354  1.0000
  H   H8        1.0  0.7564976136282412  0.8283231150482918  0.7756821293346619  1.0000
  H   H9        1.0  0.8873671924484512  0.5127557380633689  0.7239136092566271  1.0000
  H   H10       1.0  0.28938237037991843  0.1639196341256834  0.7760953570820776  1.0000
  H   H11       1.0  0.11263559115820952  0.4872464270693726  0.2760859657996307  1.0000
  H   H12       1.0  0.7106209058132436  0.8360749477316743  0.22390614662005956  1.0000
  H   H13       1.0  0.8865103323978261  0.8269446495412894  0.44719529735172614  1.0000
  H   H14       1.0  0.8797718773223624  0.4397441068804611  0.05319726069140534  1.0000
  H   H15       1.0  0.11349309391152221  0.17305600264703003  0.5528051079722403  1.0000
  H   H16       1.0  0.1202296095722345  0.5602611969818269  0.946807841020437  1.0000
  C   C1        1.0  0.32620179942324506  0.902440240004843  0.5389462261087631  1.0000
  C   C2        1.0  0.8638153123618367  0.7872966224675082  0.9610015648512235  1.0000
  C   C3        1.0  0.6737975440823972  0.09756039845870386  0.46105174357507656  1.0000
  C   C4        1.0  0.13618331055634772  0.2127025219851575  0.038997920551743406  1.0000
  C   C5        1.0  0.30310519019113974  0.9213569826018145  0.41369996034598705  1.0000
  C   C6        1.0  0.007636216445376816  0.8892340675336214  0.0862432085533769  1.0000
  C   C7        1.0  0.6968942283725923  0.0786466910272026  0.5862974601487636  1.0000
  C   C8        1.0  0.9923624801175636  0.11076812618960472  0.9137566260593745  1.0000
  C   C9        1.0  0.47209528215398683  0.0159703961967637  0.3752067320040454  1.0000
  C   C10       1.0  0.14046929452815254  0.09675792228966879  0.12481168680123743  1.0000
  C   C11       1.0  0.5279054968732027  0.984033286708879  0.6247917998370482  1.0000
  C   C12       1.0  0.85953069026683  0.9032412173345322  0.8751880115491917  1.0000
  C   C13       1.0  0.9425879431022325  0.606783557437133  0.6637718325780356  1.0000
  C   C14       1.0  0.4435069128158986  0.2791253780076133  0.8362681045680632  1.0000
  C   C15       1.0  0.05741196804800097  0.3932125329165004  0.33622751656259453  1.0000
  C   C16       1.0  0.5564929912676392  0.7208707828714509  0.1637357365669487  1.0000
  C   C17       1.0  0.9453232242360274  0.7679304980358382  0.5199191761303654  1.0000
  C   C18       1.0  0.7481620520567349  0.42570222654531165  0.9802987190383804  1.0000
  C   C19       1.0  0.054677479733065575  0.23207014970432735  0.4800799048998032  1.0000
  C   C20       1.0  0.2518407230698969  0.574300023217944  0.01970624641113973  1.0000
  C   C21       1.0  0.14446072037335253  0.7978862732631952  0.5741470011478071  1.0000
  C   C22       1.0  0.7241689380733901  0.570433562587077  0.9257831812232598  1.0000
  C   C23       1.0  0.8555399099509913  0.20211132520640973  0.4258517306725765  1.0000
  C   C24       1.0  0.27582832014132913  0.4295656149042272  0.07421788802999879  1.0000
  N   N1        1.0  0.13974618620722604  0.6951811261194576  0.6667107216135761  1.0000
  N   N2        1.0  0.5290632992949397  0.4731697325502892  0.8331096546747291  1.0000
  N   N3        1.0  0.8602565237546858  0.3048179897427232  0.33328850423288975  1.0000
  N   N4        1.0  0.47093388386169016  0.5268264097755376  0.16689196376761836  1.0000
  N   N5        1.0  0.8195239579998488  0.6469442283993981  0.5764403784054153  1.0000
  N   N6        1.0  0.5707375215052509  0.24349933165332524  0.9238497177876753  1.0000
  N   N7        1.0  0.1804766723244953  0.3530533700701994  0.4235583534149684  1.0000
  N   N8        1.0  0.42926453444727025  0.756501409993966  0.07615586498209127  1.0000
