data_image0
_chemical_formula_structural       Zn2H76C62N16O8
_chemical_formula_sum              "Zn2 H76 C62 N16 O8"
_cell_length_a       17.058056642220933
_cell_length_b       16.836556354182886
_cell_length_c       17.722824664386984
_cell_angle_alpha    90.3192476936305
_cell_angle_beta     92.70503214360033
_cell_angle_gamma    95.50659826503579

_space_group_name_H-M_alt    "P 1"
_space_group_IT_number       1

loop_
  _space_group_symop_operation_xyz
  'x, y, z'

loop_
  _atom_site_type_symbol
  _atom_site_label
  _atom_site_symmetry_multiplicity
  _atom_site_fract_x
  _atom_site_fract_y
  _atom_site_fract_z
  _atom_site_occupancy
  Zn  Zn1       1.0  0.5012921633592385  0.40925461003455144  0.503598240664644  1.0000
  Zn  Zn2       1.0  0.4904784084956688  0.5890832337179575  0.4966659417342215  1.0000
  H   H1        1.0  0.1119846616735174  0.3992336214164355  0.3509631335504722  1.0000
  H   H2        1.0  0.9136933281742757  0.6070502893210303  0.5146283417960476  1.0000
  H   H3        1.0  0.8404401268585249  0.4438276257560076  0.33136689126185104  1.0000
  H   H4        1.0  0.08870080154576242  0.5209412650574164  0.5616417341183606  1.0000
  H   H5        1.0  0.5758064074220144  0.3981445725927912  0.7377936638811704  1.0000
  H   H6        1.0  0.4986525302190188  0.624032322670935  0.27027165991197694  1.0000
  H   H7        1.0  0.20472136171858327  0.5514896951727123  0.6413826276406241  1.0000
  H   H8        1.0  0.2985930572313436  0.5524281694666158  0.6082833657210642  1.0000
  H   H9        1.0  0.6311520387535339  0.4346456556339575  0.3675639817731096  1.0000
  H   H10       1.0  0.7000369684254935  0.4169981403415265  0.3042541852682845  1.0000
  H   H11       1.0  0.24444205524774532  0.0725971803100407  0.342395137599695  1.0000
  H   H12       1.0  0.28203250686122766  0.9811029848469704  0.3664664765294391  1.0000
  H   H13       1.0  0.20609297613329863  0.016447756058575205  0.4190500224506977  1.0000
  H   H14       1.0  0.33392983728334974  0.04337431038798909  0.49396130322782733  1.0000
  H   H15       1.0  0.29883950743244014  0.1337526926903294  0.46601138133299713  1.0000
  H   H16       1.0  0.3889868329673263  0.1350424646548802  0.3534557054005703  1.0000
  H   H17       1.0  0.4273456224499625  0.04967658748302031  0.3895386597990154  1.0000
  H   H18       1.0  0.6989522025452146  0.9352593006779769  0.7501711853589157  1.0000
  H   H19       1.0  0.7735109146903272  0.9450262170628037  0.6833498863527937  1.0000
  H   H20       1.0  0.7294995757053471  0.030576721054934804  0.7134337541211622  1.0000
  H   H21       1.0  0.674203496029456  0.9855345406487998  0.5844017239454331  1.0000
  H   H22       1.0  0.5999102183568896  0.9765390144644567  0.6516916933866099  1.0000
  H   H23       1.0  0.6284409465049235  0.8312409225607241  0.6678110719591217  1.0000
  H   H24       1.0  0.6929681605853447  0.8438883807049677  0.5943482126902495  1.0000
  H   H25       1.0  0.355379316287717  0.23719304740611594  0.3933655809603068  1.0000
  H   H26       1.0  0.3831716475806104  0.32666853516875693  0.435865616428636  1.0000
  H   H27       1.0  0.6585178288021325  0.7206166032659878  0.605644462467545  1.0000
  H   H28       1.0  0.5825684583234293  0.6460486046020433  0.6052725101218359  1.0000
  H   H29       1.0  0.7384715881957077  0.4311761888532288  0.62753661489689  1.0000
  H   H30       1.0  0.7654648229773856  0.34659962474052713  0.6787019495730959  1.0000
  H   H31       1.0  0.8198974125876788  0.38138791205258826  0.6003175441803421  1.0000
  H   H32       1.0  0.7296943840448405  0.2611459824511613  0.5605112475108245  1.0000
  H   H33       1.0  0.7012707019459228  0.346167113267235  0.5128195113576267  1.0000
  H   H34       1.0  0.5995593243392533  0.36459550407840874  0.6062072344836693  1.0000
  H   H35       1.0  0.6241556450901199  0.279360191170376  0.655249007433028  1.0000
  H   H36       1.0  0.23122675744246382  0.7119396926824706  0.3474879915040391  1.0000
  H   H37       1.0  0.24491897639243373  0.6152082784388426  0.3826190927109607  1.0000
  H   H38       1.0  0.1768081819720848  0.672933681214829  0.42426627121351873  1.0000
  H   H39       1.0  0.3008218725506212  0.675052400930177  0.506013859180861  1.0000
  H   H40       1.0  0.28660243641094496  0.7716310590030063  0.4734800737581324  1.0000
  H   H41       1.0  0.3793444488519455  0.7467149477139188  0.36632150606560293  1.0000
  H   H42       1.0  0.3946172735120967  0.6547505344416963  0.40745087992249307  1.0000
  H   H43       1.0  0.6713980264407128  0.1725300698093477  0.6152783700262461  1.0000
  H   H44       1.0  0.6283297883814783  0.0803492869028517  0.591974219774059  1.0000
  H   H45       1.0  0.40966103948535704  0.9431712621975308  0.4429348913144367  1.0000
  H   H46       1.0  0.3531783197385749  0.8586929428903362  0.4154727918632944  1.0000
  H   H47       1.0  0.8166489706283642  0.6293842193664503  0.6017475557308174  1.0000
  H   H48       1.0  0.7206678954350989  0.5992926706125202  0.5881972847230017  1.0000
  H   H49       1.0  0.2411563239470027  0.3951408698938579  0.30933161390603914  1.0000
  H   H50       1.0  0.32439474702908916  0.41692338755180464  0.36462421728768396  1.0000
  H   H51       1.0  0.039018196525177004  0.7148607267665311  0.27445860444916553  1.0000
  H   H52       1.0  0.10809093450502158  0.6468101549463583  0.2527535345568594  1.0000
  H   H53       1.0  0.02797809454285981  0.660326323917083  0.1878830502917452  1.0000
  H   H54       1.0  0.00232347095669641  0.5319264499195527  0.2596242909713027  1.0000
  H   H55       1.0  0.9321903328228626  0.5987869257029457  0.2791823695070478  1.0000
  H   H56       1.0  0.008443417671550426  0.6425275250659725  0.3981752077248402  1.0000
  H   H57       1.0  0.0807533266773461  0.5773768075540602  0.3786652117947824  1.0000
  H   H58       1.0  0.9274128990629363  0.23847261469409636  0.5450590514950875  1.0000
  H   H59       1.0  0.8447115543281641  0.2565529640877173  0.4852557131226405  1.0000
  H   H60       1.0  0.9086378423608537  0.18515777255635163  0.4582390494172301  1.0000
  H   H61       1.0  0.9342767699826098  0.3143044322982149  0.3869284186504701  1.0000
  H   H62       1.0  0.017911489905550602  0.2937077347976711  0.44314361741760433  1.0000
  H   H63       1.0  0.9817722803145441  0.3861252906007309  0.5436100979471592  1.0000
  H   H64       1.0  0.8957292893241231  0.4051689077856153  0.4891244027419362  1.0000
  H   H65       1.0  0.6084400456249099  0.3979875868135139  0.9441920427618483  1.0000
  H   H66       1.0  0.613713480446826  0.3433723829840005  0.8637279324575007  1.0000
  H   H67       1.0  0.5602468690294062  0.658436734766262  0.07927107058591083  1.0000
  H   H68       1.0  0.536379596798824  0.7018141743278292  0.15968729271116192  1.0000
  H   H69       1.0  0.452766605700795  0.6282418783430258  0.6766188768867067  1.0000
  H   H70       1.0  0.42803003542876883  0.6697869199619647  0.7579539421382223  1.0000
  H   H71       1.0  0.5390802274844475  0.31358124040455226  0.23561349400126372  1.0000
  H   H72       1.0  0.4991146658939059  0.3487061816604752  0.31321280712251115  1.0000
  H   H73       1.0  0.4543666160271727  0.6801369373280866  0.8675893526737398  1.0000
  H   H74       1.0  0.470020125758289  0.6263567524867993  0.9460550838172069  1.0000
  H   H75       1.0  0.48899304320720927  0.31795886714029814  0.12379070955761053  1.0000
  H   H76       1.0  0.5172167295964484  0.3745533790119069  0.0497359147360541  1.0000
  C   C1        1.0  0.4913773493588849  0.49489766004046487  0.3528193346859397  1.0000
  C   C2        1.0  0.5042113342158174  0.4951487947765685  0.6472841254444648  1.0000
  C   C3        1.0  0.34337318738199224  0.4819262307686854  0.49441082473820336  1.0000
  C   C4        1.0  0.6446772358516668  0.5244914481889965  0.4828320644819827  1.0000
  C   C5        1.0  0.2566920435951445  0.47221881240216856  0.48134502459293327  1.0000
  C   C6        1.0  0.7279398527521009  0.5278801787556163  0.4591744028031783  1.0000
  C   C7        1.0  0.20821242885012478  0.5050900816728898  0.5343721860503621  1.0000
  C   C8        1.0  0.7463560008157587  0.4808962662632864  0.39716609080910104  1.0000
  C   C9        1.0  0.1260255842176718  0.49546173512153757  0.5213674027199034  1.0000
  C   C10       1.0  0.8255842640714023  0.48198657743390777  0.3775094024489435  1.0000
  C   C11       1.0  0.0914413609855842  0.45866099338935845  0.45552600192950626  1.0000
  C   C12       1.0  0.8853417375961001  0.5263481708189132  0.42008754016252686  1.0000
  C   C13       1.0  0.138690020993586  0.4272601495131099  0.4028431729339205  1.0000
  C   C14       1.0  0.8664347353116993  0.5741627984528181  0.4802810208874391  1.0000
  C   C15       1.0  0.22108177245153374  0.4325738051681967  0.4155976650535322  1.0000
  C   C16       1.0  0.788174379801454  0.5746941387017941  0.5005255479938171  1.0000
  C   C17       1.0  0.003955159453475709  0.45756936559661193  0.4457379900925389  1.0000
  C   C18       1.0  0.9708385626790772  0.5184917934742826  0.41119280382800133  1.0000
  C   C19       1.0  0.5654181890243848  0.449705887811298  0.8482461457905758  1.0000
  C   C20       1.0  0.519526316585491  0.5804602985939907  0.15894421912017262  1.0000
  C   C21       1.0  0.5528910644033547  0.44531302554872093  0.7701394777493037  1.0000
  C   C22       1.0  0.5045390281587602  0.571969304613674  0.2349041198909987  1.0000
  C   C23       1.0  0.512356945689568  0.5023554761345821  0.7311547273760581  1.0000
  C   C24       1.0  0.49961758700204945  0.496710242044756  0.26967017235963914  1.0000
  C   C25       1.0  0.4813656215271962  0.5654516174049108  0.7691766148997276  1.0000
  C   C26       1.0  0.5077216926350019  0.42684814501541263  0.22713808881934483  1.0000
  C   C27       1.0  0.4907176148912882  0.5686757151645523  0.8487336903050888  1.0000
  C   C28       1.0  0.5190199372824863  0.43462595106380053  0.148987896531942  1.0000
  C   C29       1.0  0.5325680156685523  0.5112980063354938  0.8879502481548869  1.0000
  C   C30       1.0  0.5260918334647967  0.5105410143533078  0.1150066158359166  1.0000
  C   C31       1.0  0.537447442365128  0.5135212789328705  0.9674171248426688  1.0000
  C   C32       1.0  0.535158947566309  0.5151861973385509  0.03654588407857061  1.0000
  C   C33       1.0  0.4587292945927075  0.154407779005254  0.4570580321145172  1.0000
  C   C34       1.0  0.5706087536429721  0.835134266246186  0.5607268932089369  1.0000
  C   C35       1.0  0.45565863312740623  0.23793607098190253  0.4605222106358369  1.0000
  C   C36       1.0  0.5549953982445714  0.7508306257242622  0.5568390750793029  1.0000
  C   C37       1.0  0.5635059504064087  0.2537086291005935  0.5495288662170382  1.0000
  C   C38       1.0  0.44698185427640885  0.7571876591075722  0.4702418809383816  1.0000
  C   C39       1.0  0.5679942950369534  0.1709579866182693  0.5517528653630068  1.0000
  C   C40       1.0  0.4571758481921719  0.8409245689374316  0.47197365206676517  1.0000
  C   C41       1.0  0.5149030423771848  0.12054917048619979  0.5042139239675621  1.0000
  C   C42       1.0  0.5209010158987654  0.8809893065225226  0.5172414172505813  1.0000
  C   C43       1.0  0.51893466280238  0.0368655133236118  0.507109913092755  1.0000
  C   C44       1.0  0.5262602476755518  0.9656135165663712  0.5156326597559939  1.0000
  C   C45       1.0  0.4006455366098223  0.103596617319873  0.4066296983691728  1.0000
  C   C46       1.0  0.32211215136673843  0.07981651976343332  0.4439804077734593  1.0000
  C   C47       1.0  0.26033892201486714  0.034966316155461606  0.3902218992433291  1.0000
  C   C48       1.0  0.6380591118124315  0.8646551651176682  0.6150158546084157  1.0000
  C   C49       1.0  0.6544496476017586  0.9529108662488142  0.634859992532192  1.0000
  C   C50       1.0  0.7176463301763717  0.966872061036632  0.6989047931140677  1.0000
  C   C51       1.0  0.6213773130821139  0.3062447033511972  0.5985634742447914  1.0000
  C   C52       1.0  0.7050893119058871  0.3187092473221043  0.5687825351939397  1.0000
  C   C53       1.0  0.7604352423946352  0.372241805862565  0.6218426949294837  1.0000
  C   C54       1.0  0.381422278401999  0.715572338374571  0.42094534151375745  1.0000
  C   C55       1.0  0.29970675647331285  0.7117635167144698  0.4549884529998778  1.0000
  C   C56       1.0  0.23459339037252394  0.6762240218006212  0.39920034954921146  1.0000
  C   C57       1.0  0.017595467380353103  0.584853725061933  0.37148347314965247  1.0000
  C   C58       1.0  0.9951324063653787  0.589726491187328  0.2867294164473506  1.0000
  C   C59       1.0  0.04516479827804431  0.6564867055529008  0.2482042208005169  1.0000
  C   C60       1.0  0.9569591175229206  0.3909243236346285  0.4852984861951485  1.0000
  C   C61       1.0  0.956870207157401  0.30934315646010185  0.44585155965988593  1.0000
  C   C62       1.0  0.9067460756783701  0.2436333618650791  0.4856496432312696  1.0000
  N   N1        1.0  0.5080567790297155  0.2858925410844577  0.5047609707891496  1.0000
  N   N2        1.0  0.4959019306341189  0.7134417966252473  0.5116986437255449  1.0000
  N   N3        1.0  0.23948645034801072  0.5472360702563749  0.597235596068451  1.0000
  N   N4        1.0  0.6890803513540363  0.4310492248892857  0.3580818870607558  1.0000
  N   N5        1.0  0.4005656577528782  0.27367405445418314  0.4169260826230712  1.0000
  N   N6        1.0  0.5993669864356832  0.7058912891684486  0.6037359025648783  1.0000
  N   N7        1.0  0.6203711742427699  0.1383089573986069  0.6022430277671802  1.0000
  N   N8        1.0  0.40839994607225805  0.8848805169129081  0.4273442088914408  1.0000
  N   N9        1.0  0.7707008043187643  0.6204561382163973  0.5630565432891004  1.0000
  N   N10       1.0  0.2658606494159557  0.39875197692767733  0.3625484654477376  1.0000
  N   N11       1.0  0.6115083033124264  0.39809000651897714  0.8871438583946158  1.0000
  N   N12       1.0  0.5242048266878213  0.6547792876119586  0.1235124179039175  1.0000
  N   N13       1.0  0.43589260278260167  0.6185087863057177  0.73039918137858  1.0000
  N   N14       1.0  0.49965738630267964  0.3492942331107685  0.255626547757295  1.0000
  N   N15       1.0  0.4548600523791251  0.6247273731515223  0.8897777582288102  1.0000
  N   N16       1.0  0.5247975370757842  0.3656298081809338  0.1063269875172779  1.0000
  O   O1        1.0  0.510759552544492  0.4324267381007161  0.3878176947554835  1.0000
  O   O2        1.0  0.5135499528820091  0.5601702500226224  0.6098617281852656  1.0000
  O   O3        1.0  0.46771014011781636  0.555588764478891  0.38504988585433614  1.0000
  O   O4        1.0  0.49013338989629307  0.4262195957852128  0.6175322461886168  1.0000
  O   O5        1.0  0.382568068034523  0.4229327996899386  0.4791973780470472  1.0000
  O   O6        1.0  0.6087492595136795  0.5870775988779116  0.47617049580725995  1.0000
  O   O7        1.0  0.37558118808347984  0.5489371767018697  0.5201205070111216  1.0000
  O   O8        1.0  0.6157152268290034  0.45782966066825986  0.5084103081484698  1.0000
