data_image0
_chemical_formula_structural       Cd2H38C32N4O10
_chemical_formula_sum              "Cd2 H38 C32 N4 O10"
_cell_length_a       8.699883571099958
_cell_length_b       10.307555390269801
_cell_length_c       10.927362753590035
_cell_angle_alpha    64.05336991313737
_cell_angle_beta     70.78948951693563
_cell_angle_gamma    78.38809402579106

_space_group_name_H-M_alt    "P 1"
_space_group_IT_number       1

loop_
  _space_group_symop_operation_xyz
  'x, y, z'

loop_
  _atom_site_type_symbol
  _atom_site_label
  _atom_site_symmetry_multiplicity
  _atom_site_fract_x
  _atom_site_fract_y
  _atom_site_fract_z
  _atom_site_occupancy
  Cd  Cd1       1.0  0.22731954619369796  0.08429554064180418  0.08741582326565832  1.0000
  Cd  Cd2       1.0  0.7726815448665151  0.9157055680578735  0.9125822481216089  1.0000
  H   H1        1.0  0.2538174338296457  0.7930386041590365  0.3272322234195927  1.0000
  H   H2        1.0  0.7461826343583483  0.20696033206934317  0.6727688453109195  1.0000
  H   H3        1.0  0.40460609826411803  0.6442847475054663  0.34022863479120247  1.0000
  H   H4        1.0  0.5953937760297235  0.35571635580962635  0.6597697638692709  1.0000
  H   H5        1.0  0.23247234471455153  0.9493487220544807  0.4518301659557978  1.0000
  H   H6        1.0  0.7675301398952854  0.05065022929930049  0.5481684206923205  1.0000
  H   H7        1.0  0.4795422520635952  0.7998040537445019  0.7775793432297251  1.0000
  H   H8        1.0  0.5204543340530847  0.20019270577778764  0.2224226360864208  1.0000
  H   H9        1.0  0.6187483312964163  0.5971385381199211  0.708528207846797  1.0000
  H   H10       1.0  0.38125060851682246  0.40285931135863956  0.29147360942393163  1.0000
  H   H11       1.0  0.5749996698040505  0.5775436541162476  0.5026633089488115  1.0000
  H   H12       1.0  0.42500271785871757  0.42245638078088626  0.4973339426642839  1.0000
  H   H13       1.0  0.2563160724657223  0.10993701003359747  0.5632504935638423  1.0000
  H   H14       1.0  0.7436839073306347  0.8900630075600233  0.43675015389964494  1.0000
  H   H15       1.0  0.330317140330152  0.03341562927935371  0.7160524086761341  1.0000
  H   H16       1.0  0.6696841360687672  0.9665833145117302  0.28394741901318094  1.0000
  H   H17       1.0  0.9582176885896275  0.28830886921456067  0.2511654759714546  1.0000
  H   H18       1.0  0.041779840563094695  0.7116911419661419  0.7488339985024268  1.0000
  H   H19       1.0  0.2515425248159389  0.645115707801615  0.0031350742101494936  1.0000
  H   H20       1.0  0.7484574635358712  0.35488430761388656  0.9968664870213358  1.0000
  H   H21       1.0  0.4148325853541762  0.40309798947951947  0.9519579491280084  1.0000
  H   H22       1.0  0.5851685228169358  0.5969031148639131  0.048041949795262384  1.0000
  H   H23       1.0  0.8270744560627465  0.530187294752572  0.2414794534648692  1.0000
  H   H24       1.0  0.1729256206806866  0.46981163929768827  0.7585225290336411  1.0000
  H   H25       1.0  0.9275893958668248  0.6847486170229402  0.10780465789633796  1.0000
  H   H26       1.0  0.0724106010404313  0.3152513962144353  0.8921978171031456  1.0000
  H   H27       1.0  0.09247461798170058  0.6709315523106909  0.26263713845725084  1.0000
  H   H28       1.0  0.9075254673171784  0.3290673795614509  0.7373657578092576  1.0000
  H   H29       1.0  0.8807722909233603  0.6950547715064771  0.33418858683820934  1.0000
  H   H30       1.0  0.11922768887299637  0.30494524608713647  0.665812060625278  1.0000
  H   H31       1.0  0.07955484083511521  0.40190945462808253  0.42020679694188356  1.0000
  H   H32       1.0  0.9204428023755753  0.5980894686530148  0.5797958401030172  1.0000
  H   H33       1.0  0.8683674619349376  0.4297990069787331  0.488473318270387  1.0000
  H   H34       1.0  0.13163001304793906  0.5702020768547269  0.5115293900084695  1.0000
  H   H35       1.0  0.19132690631244736  0.8943492551589284  0.9748251609294132  1.0000
  H   H36       1.0  0.8086730734839167  0.10565076243469208  0.025175486534074254  1.0000
  H   H37       1.0  0.37500102124552376  0.9178367731825287  0.9562985804442266  1.0000
  H   H38       1.0  0.6249976448373928  0.08216432256987356  0.04370105925743672  1.0000
  C   C1        1.0  0.4976035280681047  0.8515620379098505  0.20403730277021026  1.0000
  C   C2        1.0  0.5023964346173672  0.14843798404000805  0.7959615171572807  1.0000
  C   C3        1.0  0.37849844963499624  0.7544637437465481  0.3359388971082142  1.0000
  C   C4        1.0  0.6215014246588454  0.24553735956855144  0.6640595015522522  1.0000
  C   C5        1.0  0.3990796861736358  0.7608218397879014  0.4652559073810068  1.0000
  C   C6        1.0  0.6009226130975096  0.23917927647447354  0.5347409229650709  1.0000
  C   C7        1.0  0.31738571181272585  0.8720201620545109  0.5081501312002814  1.0000
  C   C8        1.0  0.6826155816970784  0.1279787773803278  0.49185152402503723  1.0000
  C   C9        1.0  0.3459239057024845  0.8874378649772012  0.619840765304872  1.0000
  C   C10       1.0  0.6540747347140865  0.11256323730955843  0.3801561330927967  1.0000
  C   C11       1.0  0.45427130990140097  0.7871351199366857  0.6921825889754558  1.0000
  C   C12       1.0  0.545731174708436  0.21286383141709553  0.3078159976726625  1.0000
  C   C13       1.0  0.5339537767867955  0.674258534323478  0.6519438316456814  1.0000
  C   C14       1.0  0.4660473941096017  0.32574149518907786  0.3480537472406127  1.0000
  C   C15       1.0  0.5080729762878917  0.6621006355341945  0.5379495892103064  1.0000
  C   C16       1.0  0.4919293400941386  0.33790047637194215  0.4620490686717673  1.0000
  C   C17       1.0  0.26163217430145386  0.012678594315168799  0.6593030459446965  1.0000
  C   C18       1.0  0.7383690137058352  0.9873214308411488  0.34069636047760116  1.0000
  C   C19       1.0  0.08859120112594349  0.980294250847443  0.75213151279182  1.0000
  C   C20       1.0  0.9114099954367916  0.019705772130755892  0.2478688073984757  1.0000
  C   C21       1.0  0.0625415051855853  0.3496699958082985  0.17718450299445013  1.0000
  C   C22       1.0  0.9374582892720796  0.6503321866939087  0.8228143881669964  1.0000
  C   C23       1.0  0.21839551000631025  0.53461579315681  0.04673416294368587  1.0000
  C   C24       1.0  0.7816045496262306  0.46538314524968866  0.953265992018828  1.0000
  C   C25       1.0  0.29739066433069894  0.4143759885091569  0.023518938757497717  1.0000
  C   C26       1.0  0.7026054798278454  0.5856261778393159  0.9764809342235382  1.0000
  C   C27       1.0  0.9412635837305885  0.5843361985537356  0.1983754308251732  1.0000
  C   C28       1.0  0.0587364930128444  0.4156627354965251  0.801626551673337  1.0000
  C   C29       1.0  0.9778193155741304  0.6162708468603241  0.3092427940136703  1.0000
  C   C30       1.0  0.022180664222233287  0.38372917073328944  0.6907578534498171  1.0000
  C   C31       1.0  0.984262180282599  0.4824871240436791  0.4443359031620346  1.0000
  C   C32       1.0  0.015735471483537794  0.5175117970592992  0.5556676476508714  1.0000
  N   N1        1.0  0.1989812514834597  0.29967397332479345  0.10573142703940162  1.0000
  N   N2        1.0  0.8010174145994567  0.7003271224276019  0.8942682126622615  1.0000
  N   N3        1.0  0.06958778356450783  0.4917074273154822  0.1437707645725297  1.0000
  N   N4        1.0  0.9304121962318491  0.5082925902781382  0.8562298828909577  1.0000
  O   O1        1.0  0.46215682936185243  0.9891282233647161  0.1590151688641583  1.0000
  O   O2        1.0  0.537843133323612  0.010871798585142797  0.8409836510633327  1.0000
  O   O3        1.0  0.6276859523305236  0.7931817244607515  0.1491778061933856  1.0000
  O   O4        1.0  0.37231289909109216  0.20681720638305018  0.8508235898103251  1.0000
  O   O5        1.0  0.06453551825683228  0.9081591633309072  0.8864705634759389  1.0000
  O   O6        1.0  0.9354656697504568  0.09184086182541049  0.11352884294635142  1.0000
  O   O7        1.0  0.9723139300311204  0.020921066903525794  0.69468698262601  1.0000
  O   O8        1.0  0.02768716958453871  0.9790800396180255  0.30531200252926294  1.0000
  O   O9        1.0  0.2697870565372398  0.88331313799209  0.02962533490779145  1.0000
  O   O10       1.0  0.7302129147036709  0.11668688177964981  0.9703743987876976  1.0000
