data_image0
_chemical_formula_structural       Cd2H48C24N4O8
_chemical_formula_sum              "Cd2 H48 C24 N4 O8"
_cell_length_a       4.988260699598866
_cell_length_b       9.874061043742374
_cell_length_c       14.64723204222463
_cell_angle_alpha    103.07248880715467
_cell_angle_beta     89.99961541254494
_cell_angle_gamma    90.00045305526437

_space_group_name_H-M_alt    "P 1"
_space_group_IT_number       1

loop_
  _space_group_symop_operation_xyz
  'x, y, z'

loop_
  _atom_site_type_symbol
  _atom_site_label
  _atom_site_symmetry_multiplicity
  _atom_site_fract_x
  _atom_site_fract_y
  _atom_site_fract_z
  _atom_site_occupancy
  Cd  Cd1       1.0  0.40847002843270275  0.2530411474517464  0.5035554048154154  1.0000
  Cd  Cd2       1.0  0.9084545618537802  0.7469497574790936  0.49643804305063105  1.0000
  H   H1        1.0  0.7495263696500487  0.3400029023581085  0.6598114436248893  1.0000
  H   H2        1.0  0.2495279053220827  0.6599892597987138  0.34018961596686387  1.0000
  H   H3        1.0  0.8150013315887961  0.4289122976914613  0.5807181128405077  1.0000
  H   H4        1.0  0.3149963800807711  0.5710768567135744  0.41928417592368566  1.0000
  H   H5        1.0  0.5324857933623759  0.4400453561071416  0.7957777914034594  1.0000
  H   H6        1.0  0.0324752920152065  0.5599613450608703  0.20422645723247262  1.0000
  H   H7        1.0  0.2515581220128951  0.37519449234490315  0.7258016636750568  1.0000
  H   H8        1.0  0.7515476655154812  0.6248070161660949  0.2742055947471158  1.0000
  H   H9        1.0  0.0330838116273569  0.6096137510315104  0.7743353128575664  1.0000
  H   H10       1.0  0.5330760883905085  0.39038563803866577  0.2256610083772301  1.0000
  H   H11       1.0  0.9251888642529806  0.5891132776702436  0.9357863880321204  1.0000
  H   H12       1.0  0.4251982922211043  0.41089714291948104  0.06421008497152772  1.0000
  H   H13       1.0  0.2185250279950424  0.48904959968211176  0.9397315641108648  1.0000
  H   H14       1.0  0.7185437143546166  0.5109606766250893  0.06027139507039439  1.0000
  H   H15       1.0  0.9543507017507337  0.42031765156072265  0.8617286748656456  1.0000
  H   H16       1.0  0.45435938865852415  0.5796923660856239  0.13827129237267852  1.0000
  H   H17       1.0  0.6315679943448059  0.6037539724280309  0.6933172718771986  1.0000
  H   H18       1.0  0.1315763973373976  0.39623256284534153  0.306674174248684  1.0000
  H   H19       1.0  0.5264563938390411  0.6837536696092243  0.9009491060679196  1.0000
  H   H20       1.0  0.026454399758932802  0.31626036451397255  0.09904802685920089  1.0000
  H   H21       1.0  0.22950739847325957  0.7850032084208607  0.9103644897312009  1.0000
  H   H22       1.0  0.7295088739742894  0.2150058332018787  0.08962809552778589  1.0000
  H   H23       1.0  0.42862000411155776  0.7619371103071233  0.8079223353888807  1.0000
  H   H24       1.0  0.9286212446623309  0.23806805780569112  0.1920719964252626  1.0000
  H   H25       1.0  0.3777723862722979  0.8146150741107406  0.23226264182383013  1.0000
  H   H26       1.0  0.8778101815280478  0.18537940005617776  0.7677346093849948  1.0000
  H   H27       1.0  0.06895432481204719  0.8470705258333452  0.2930382762523537  1.0000
  H   H28       1.0  0.5689800912416629  0.15292422102496772  0.7069650286681367  1.0000
  H   H29       1.0  0.14019310946224553  0.7348972072021668  0.0812526380934386  1.0000
  H   H30       1.0  0.6402659349458943  0.2651037809179614  0.9187464920764726  1.0000
  H   H31       1.0  0.8914050681763045  0.8396413225955187  0.044860509315412904  1.0000
  H   H32       1.0  0.3914775976184614  0.16038623747700603  0.9551445301147938  1.0000
  H   H33       1.0  0.8291875800267049  0.7627731322356439  0.141660733026967  1.0000
  H   H34       1.0  0.32927295946953444  0.23724597813114207  0.858348191888439  1.0000
  H   H35       1.0  0.21731536437492585  0.032603714217302106  0.0575406298283383  1.0000
  H   H36       1.0  0.7173697813653702  0.967401385741866  0.9424629081520379  1.0000
  H   H37       1.0  0.48208248973335804  0.9437680133730669  0.10045904776497853  1.0000
  H   H38       1.0  0.9821339211007895  0.0562218415124462  0.8995345987855219  1.0000
  H   H39       1.0  0.37834062355140924  0.11048742017517549  0.1641478798527984  1.0000
  H   H40       1.0  0.8783505469822329  0.8895070563617724  0.83585210530093  1.0000
  H   H41       1.0  0.9379888497290808  0.013911923263336205  0.19810785589200464  1.0000
  H   H42       1.0  0.4380224681706649  0.9861014928091126  0.8019048337873188  1.0000
  H   H43       1.0  0.0300947683577348  0.06747552654614  0.417152031595066  1.0000
  H   H44       1.0  0.5300991241988556  0.9325260024249434  0.5828493770628428  1.0000
  H   H45       1.0  0.0716238575283583  0.16969039083249274  0.34429530503310707  1.0000
  H   H46       1.0  0.5716310502403558  0.8303022361366958  0.6557070102677615  1.0000
  H   H47       1.0  0.49639470571077027  0.06971772957448513  0.2933406089173475  1.0000
  H   H48       1.0  0.9964228568917263  0.9302760699216537  0.7066509711325325  1.0000
  C   C1        1.0  0.28117264377975465  0.5556674751296812  0.6070287851128882  1.0000
  C   C2        1.0  0.7811682196420903  0.44432837152324833  0.39296683920414927  1.0000
  C   C3        1.0  0.36984902701851036  0.4699050281864815  0.7531642653173592  1.0000
  C   C4        1.0  0.8698582679448562  0.530095812738196  0.2468380042037168  1.0000
  C   C5        1.0  0.19453776478663798  0.5791459661709198  0.8171602297874473  1.0000
  C   C6        1.0  0.6945322833165903  0.42086361262413163  0.1828425078054821  1.0000
  C   C7        1.0  0.06551691060861489  0.5158468464460811  0.8926662381886814  1.0000
  C   C8        1.0  0.565523319736883  0.48416247704607684  0.1073317389850246  1.0000
  C   C9        1.0  0.5014152805333154  0.5126323949384501  0.668942253123582  1.0000
  C   C10       1.0  0.0014179371456038  0.48736746099837824  0.3310580813630111  1.0000
  C   C11       1.0  0.35350511376877586  0.7098688260966955  0.8614683185904397  1.0000
  C   C12       1.0  0.8535054146042566  0.29014364861740927  0.13852606851497742  1.0000
  C   C13       1.0  0.5538455444843535  0.9572592814130234  0.39702060213259227  1.0000
  C   C14       1.0  0.05385588815209989  0.04272008554454491  0.6029803093750206  1.0000
  C   C15       1.0  0.22600065288888527  0.895288289371962  0.2579965185568156  1.0000
  C   C16       1.0  0.7260352296206776  0.10471254352158609  0.7420105141342149  1.0000
  C   C17       1.0  0.9827918906128161  0.8124281102941354  0.10664734425963472  1.0000
  C   C18       1.0  0.4828719189781481  0.18758360383419875  0.8933591615000367  1.0000
  C   C19       1.0  0.30636887787378697  0.0110158122898909  0.12142544551220172  1.0000
  C   C20       1.0  0.8064043937130803  0.9889859412540573  0.8785787021225177  1.0000
  C   C21       1.0  0.10255628112810199  0.9398558109402377  0.17326361800636653  1.0000
  C   C22       1.0  0.6025779108205285  0.0601488692146077  0.8267454446560124  1.0000
  C   C23       1.0  0.3611770936781227  0.0110385744317512  0.3298922431265581  1.0000
  C   C24       1.0  0.8611894873682218  0.9889519880237574  0.6701070683578579  1.0000
  N   N1        1.0  0.6604354305146956  0.3946544153109529  0.616459365110444  1.0000
  N   N2        1.0  0.16042446935435353  0.6053483795917887  0.38354423191526626  1.0000
  N   N3        1.0  0.1740281554655354  0.11426036128768406  0.3842959055861783  1.0000
  N   N4        1.0  0.6740436339198721  0.8857318221198869  0.6157006948264011  1.0000
  O   O1        1.0  0.16550521191602027  0.46013881611656166  0.54641354543012  1.0000
  O   O2        1.0  0.665516545292462  0.5398348077105481  0.4535890892869219  1.0000
  O   O3        1.0  0.21636357102227063  0.6828203600826229  0.6233788708799963  1.0000
  O   O4        1.0  0.716356961397473  0.317156643579807  0.376610183028717  1.0000
  O   O5        1.0  0.6146913448877528  0.8294605891110791  0.3791420927681628  1.0000
  O   O6        1.0  0.11469979986993908  0.17054383592947894  0.6208451430188904  1.0000
  O   O7        1.0  0.6558311534391592  0.048426083157473016  0.4637938096119002  1.0000
  O   O8        1.0  0.1558391708478624  0.9515704928553391  0.5361965379426792  1.0000
