data_image0
_chemical_formula_structural       Zn3H42C30N12
_chemical_formula_sum              "Zn3 H42 C30 N12"
_cell_length_a       8.322543146141152
_cell_length_b       8.324627496883952
_cell_length_c       13.246784616047766
_cell_angle_alpha    89.9997861985127
_cell_angle_beta     89.99991376216283
_cell_angle_gamma    120.0151884570071

_space_group_name_H-M_alt    "P 1"
_space_group_IT_number       1

loop_
  _space_group_symop_operation_xyz
  'x, y, z'

loop_
  _atom_site_type_symbol
  _atom_site_label
  _atom_site_symmetry_multiplicity
  _atom_site_fract_x
  _atom_site_fract_y
  _atom_site_fract_z
  _atom_site_occupancy
  Zn  Zn1       1.0  0.5000025851269712  1.4156318002568534e-06  0.17165273120051688  1.0000
  Zn  Zn2       1.0  0.5000028013686875  0.5000029331585055  0.8383014712508938  1.0000
  Zn  Zn3       1.0  1.159094082863529e-06  0.4999971091131101  0.5049294955666639  1.0000
  H   H1        1.0  0.9195958486625385  0.7908437096106341  0.39433507605712487  1.0000
  H   H2        1.0  0.12909394718744244  0.9192393640145795  0.060806828409773986  1.0000
  H   H3        1.0  0.20919205130735463  0.12873003284786222  0.727501573720815  1.0000
  H   H4        1.0  0.08040004326040423  0.20914798130201015  0.3943391848300237  1.0000
  H   H5        1.0  0.8709101248669313  0.08076409257411395  0.0608044238766396  1.0000
  H   H6        1.0  0.7908062442920851  0.8712729587135045  0.7274890994637531  1.0000
  H   H7        1.0  0.12337142272394892  0.9821914054847342  0.2264560125678727  1.0000
  H   H8        1.0  0.14151677121353862  0.12279751686107693  0.892870800581683  1.0000
  H   H9        1.0  0.017637114902726132  0.14099973577434352  0.5597228249633304  1.0000
  H   H10       1.0  0.8766266716019687  0.017805670674278153  0.22645903360950828  1.0000
  H   H11       1.0  0.8584848405617577  0.8772042261742924  0.892869569756243  1.0000
  H   H12       1.0  0.9823588101226194  0.8589915851994265  0.5597109467800081  1.0000
  H   H13       1.0  0.3293013554139891  0.5305777798026841  0.37906705759491627  1.0000
  H   H14       1.0  0.7989837302118091  0.32981251555369795  0.04615080130358959  1.0000
  H   H15       1.0  0.4694761618113861  0.7986778152281107  0.7123347204036604  1.0000
  H   H16       1.0  0.6706987577911718  0.469419555942885  0.3790669618795377  1.0000
  H   H17       1.0  0.20102025968270001  0.6701936686871904  0.0461499419576654  1.0000
  H   H18       1.0  0.530522426640914  0.201322731999376  0.7123361422301215  1.0000
  H   H19       1.0  0.4911444078678002  0.700560819928299  0.29643314246939667  1.0000
  H   H20       1.0  0.7909369213018851  0.49138169130019116  0.9633196017170744  1.0000
  H   H21       1.0  0.29949790007314897  0.7905222575399621  0.6296958911394626  1.0000
  H   H22       1.0  0.5088588785632169  0.2994371158103349  0.2964343566008836  1.0000
  H   H23       1.0  0.20906761225052153  0.5086255754189325  0.9633206212266925  1.0000
  H   H24       1.0  0.7004983607637384  0.20947477681187385  0.6296978824952149  1.0000
  H   H25       1.0  0.6396833554524833  0.9226296146173355  0.4373855063742411  1.0000
  H   H26       1.0  0.7172219834318979  0.6402059493587373  0.103954695303301  1.0000
  H   H27       1.0  0.07732668398507776  0.7167819765968774  0.7706102815866414  1.0000
  H   H28       1.0  0.36031426437568115  0.07736924716655122  0.4373866290492216  1.0000
  H   H29       1.0  0.2827704105032325  0.3597940481545479  0.1039537251840983  1.0000
  H   H30       1.0  0.9226754203153575  0.2832261050005229  0.770608863865604  1.0000
  H   H31       1.0  0.6216244859338717  0.7074071533068037  0.47120378421760717  1.0000
  H   H32       1.0  0.9143873093167867  0.62231776137061  0.1379726861928319  1.0000
  H   H33       1.0  0.29255510294315457  0.9139747924049433  0.8044611798132448  1.0000
  H   H34       1.0  0.378374282419358  0.29259000031182575  0.4712043871188172  1.0000
  H   H35       1.0  0.0856110388586018  0.3776853324038712  0.1379711123911491  1.0000
  H   H36       1.0  0.7074471335786966  0.08602779072550981  0.8044634523728006  1.0000
  H   H37       1.0  0.465083044487784  0.7697752518000628  0.5225075587327338  1.0000
  H   H38       1.0  0.6954248257782182  0.4660319446415572  0.1893333638188182  1.0000
  H   H39       1.0  0.2301296949439617  0.695091748862602  0.8557410795408984  1.0000
  H   H40       1.0  0.5349122640046815  0.2302197045478778  0.5225081539397677  1.0000
  H   H41       1.0  0.3045680300064291  0.5339613713628566  0.1893349856379132  1.0000
  H   H42       1.0  0.7698718077621151  0.30491552377242215  0.8557412705604364  1.0000
  C   C1        1.0  0.27668976681288604  0.7491652099695469  0.34566174080202927  1.0000
  C   C2        1.0  0.5277551762359565  0.27694128659207007  0.012455271567929999  1.0000
  C   C3        1.0  0.2508702885714769  0.5274702449539604  0.678899105261074  1.0000
  C   C4        1.0  0.7233098886935849  0.25083313660174894  0.34566436824986374  1.0000
  C   C5        1.0  0.4722473419554093  0.7230621212645972  0.0124562881423742  1.0000
  C   C6        1.0  0.7491273343903799  0.4725294184326074  0.6788966608372033  1.0000
  C   C7        1.0  0.0438045752240584  0.7996553881498373  0.36258741264519756  1.0000
  C   C8        1.0  0.24443703897085095  0.043562301528460495  0.0291140645533403  1.0000
  C   C9        1.0  0.2003529350293647  0.24410338560157643  0.6957790283911078  1.0000
  C   C10       1.0  0.9561920490856153  0.20033849944173457  0.3625891750765859  1.0000
  C   C11       1.0  0.7555679507934343  0.9564407628103881  0.0291127495966137  1.0000
  C   C12       1.0  0.7996514570500892  0.7558988435176701  0.695771344042086  1.0000
  C   C13       1.0  0.14284249086806258  0.8926723732570636  0.2782452789388259  1.0000
  C   C14       1.0  0.25049617695630394  0.14254970715176546  0.944754258213699  1.0000
  C   C15       1.0  0.10725112429059895  0.25005198177642285  0.6114801195764343  1.0000
  C   C16       1.0  0.857161432108114  0.10732763028259745  0.2782496199871076  1.0000
  C   C17       1.0  0.7495076574631128  0.8574513576318809  0.9447531801216797  1.0000
  C   C18       1.0  0.8927461447727295  0.7499419439105495  0.6114746227045131  1.0000
  C   C19       1.0  0.4096068868236814  0.6811818327278376  0.3652951987655725  1.0000
  C   C20       1.0  0.7286673585151532  0.4100532227528147  0.032214530016617  1.0000
  C   C21       1.0  0.31881688241418266  0.7283783700472457  0.6985745557717633  1.0000
  C   C22       1.0  0.5903900406566152  0.318816512509244  0.365297042792882  1.0000
  C   C23       1.0  0.2713305352198674  0.589949674388457  0.032216808659939  1.0000
  C   C24       1.0  0.681178012214758  0.271621291592645  0.6985741563529899  1.0000
  C   C25       1.0  0.5417125734175414  0.7764283125428052  0.45405920497747587  1.0000
  C   C26       1.0  0.7654295736077827  0.54235970994646  0.12083737332076079  1.0000
  C   C27       1.0  0.22351310973791524  0.7650687840671395  0.7873198690607593  1.0000
  C   C28       1.0  0.4582844205533405  0.2235684958120245  0.4540606455965913  1.0000
  C   C29       1.0  0.23456598405763177  0.45763924849924825  0.1208377319102922  1.0000
  C   C30       1.0  0.7764871666649711  0.23493604217233613  0.787320216860877  1.0000
  N   N1        1.0  0.2888332253199762  0.8595356302631245  0.26739506596643275  1.0000
  N   N2        1.0  0.42953987886113515  0.2888598726692067  0.9340819761887287  1.0000
  N   N3        1.0  0.1403846817782011  0.42916614190639996  0.6006546259490619  1.0000
  N   N4        1.0  0.7111674912997329  0.14046535502480145  0.2673972078826806  1.0000
  N   N5        1.0  0.5704654184731126  0.711139906708283  0.9340829244527739  1.0000
  N   N6        1.0  0.8596143735914198  0.57083098321084  0.6006503342621627  1.0000
  N   N7        1.0  0.1289441176075528  0.7095099404422456  0.4051872478060545  1.0000
  N   N8        1.0  0.4196477766634885  0.12904238035997653  0.07188274841655579  1.0000
  N   N9        1.0  0.2905552520405124  0.4193980754076634  0.7383959141501748  1.0000
  N   N10       1.0  0.8710528994146216  0.29048284893683296  0.40518963815650005  1.0000
  N   N11       1.0  0.5803593144263673  0.8709626807227624  0.0718833141474562  1.0000
  N   N12       1.0  0.709447959387326  0.5806070305167383  0.7383932564287504  1.0000
