data_image0
_chemical_formula_structural       Ag4Mo8H42C36N18O26
_chemical_formula_sum              "Ag4 Mo8 H42 C36 N18 O26"
_cell_length_a       11.361489248523007
_cell_length_b       11.731201598940954
_cell_length_c       12.17722287268068
_cell_angle_alpha    115.02903442555187
_cell_angle_beta     94.07373436165585
_cell_angle_gamma    100.54720343615108

_space_group_name_H-M_alt    "P 1"
_space_group_IT_number       1

loop_
  _space_group_symop_operation_xyz
  'x, y, z'

loop_
  _atom_site_type_symbol
  _atom_site_label
  _atom_site_symmetry_multiplicity
  _atom_site_fract_x
  _atom_site_fract_y
  _atom_site_fract_z
  _atom_site_occupancy
  Ag  Ag1       1.0  0.1756382955934298  0.9838655656026769  0.6909818851851451  1.0000
  Ag  Ag2       1.0  0.8243606121131465  0.016133521907803997  0.3090163180443071  1.0000
  Ag  Ag3       1.0  0.6209748514334379  0.9459894564630105  0.7314733718214085  1.0000
  Ag  Ag4       1.0  0.37902339388177353  0.054010601401579095  0.2685260072766836  1.0000
  Mo  Mo1       1.0  0.020969748577307667  0.6642832123674791  0.34141540859556574  1.0000
  Mo  Mo2       1.0  0.9790320294907888  0.33570910001853344  0.6585711712896865  1.0000
  Mo  Mo3       1.0  0.1887344126925257  0.3798906564559346  0.8884385878945692  1.0000
  Mo  Mo4       1.0  0.8112647309624281  0.6201093565977087  0.11157643405203284  1.0000
  Mo  Mo5       1.0  0.9855230401632512  0.37906477014244905  0.058587293062309635  1.0000
  Mo  Mo6       1.0  0.014479181284201515  0.6209333167314168  0.9414164634842874  1.0000
  Mo  Mo7       1.0  0.22310310308317569  0.6671337648954034  0.1580769959331788  1.0000
  Mo  Mo8       1.0  0.7769002196789145  0.33286913673980206  0.8419386594306315  1.0000
  H   H1        1.0  0.7332300989091252  0.09432593985293637  0.5759147175661139  1.0000
  H   H2        1.0  0.266769245936672  0.905675081639039  0.42408512768886186  1.0000
  H   H3        1.0  0.5933246172213273  0.7520581633618305  0.24685459174884966  1.0000
  H   H4        1.0  0.40667649043763987  0.24794284927790497  0.7531453641894572  1.0000
  H   H5        1.0  0.3881918624029481  0.704300126784787  0.4084363283094276  1.0000
  H   H6        1.0  0.6118085819734347  0.2957018583345742  0.5915639831024249  1.0000
  H   H7        1.0  0.4935428893248002  0.6137308289538126  0.34158439764546944  1.0000
  H   H8        1.0  0.5064564564122094  0.3862701904126453  0.6584162680046006  1.0000
  H   H9        1.0  0.7395935911944278  0.3555100312125035  0.5226030758623564  1.0000
  H   H10       1.0  0.26040663684039334  0.644490981602317  0.4773984655244802  1.0000
  H   H11       1.0  0.7779526957105602  0.3344114112303558  0.37929921150509927  1.0000
  H   H12       1.0  0.22204753054182186  0.6655896058354995  0.6207006890915421  1.0000
  H   H13       1.0  0.7021740774896444  0.20028068199200527  0.39604245587664616  1.0000
  H   H14       1.0  0.2978268129365418  0.7997193604686997  0.6039579096415506  1.0000
  H   H15       1.0  0.666813309006791  0.7213909643755158  0.935720878100234  1.0000
  H   H16       1.0  0.33318779597851744  0.27861005464077226  0.06427661665278345  1.0000
  H   H17       1.0  0.5153600930864214  0.6434971288355128  0.9263285017665691  1.0000
  H   H18       1.0  0.48464233311835864  0.3565058133596039  0.07367315153893364  1.0000
  H   H19       1.0  0.6170674946272071  0.55199595363586  0.857140483170255  1.0000
  H   H20       1.0  0.3829344980032232  0.44800504607568553  0.14286280969010776  1.0000
  H   H21       1.0  0.19382734097459314  0.43085032134143103  0.3422067281619546  1.0000
  H   H22       1.0  0.8061706960184126  0.5691448897039847  0.6577914725968482  1.0000
  H   H23       1.0  0.2173046449113514  0.3561533706620493  0.18935198615314158  1.0000
  H   H24       1.0  0.7826933902992225  0.6438418446343945  0.8106445738154661  1.0000
  H   H25       1.0  0.22788410799767428  0.25262911749132394  0.48680389935474006  1.0000
  H   H26       1.0  0.7721152386305618  0.7473718997496162  0.5131975866904311  1.0000
  H   H27       1.0  0.2240856242680706  0.40888659441863934  0.505567209735652  1.0000
  H   H28       1.0  0.7759154833908966  0.591114418221096  0.49443274620265487  1.0000
  H   H29       1.0  0.32561715001529024  0.38945737905634564  0.6087369427658443  1.0000
  H   H30       1.0  0.6743839576436841  0.6105436335833899  0.39126301317246953  1.0000
  H   H31       1.0  0.35502340254862474  0.6053510975425098  0.8485677744112932  1.0000
  H   H32       1.0  0.6449768254861965  0.3946499152723105  0.15143376697554337  1.0000
  H   H33       1.0  0.2530347537431794  0.6261241149999961  0.7484664250452298  1.0000
  H   H34       1.0  0.7469665738222276  0.3738778614422173  0.2515355824984836  1.0000
  H   H35       1.0  0.021766573577394862  0.7036439988357442  0.6919620448690225  1.0000
  H   H36       1.0  0.9782327801789846  0.2963531460160738  0.3080362124667743  1.0000
  H   H37       1.0  0.06848837773971173  0.9352331245152496  0.20173864575991712  1.0000
  H   H38       1.0  0.9315078937664651  0.0647621017589515  0.7982569831302583  1.0000
  H   H39       1.0  0.7174331951204068  0.9333799231468305  0.004295819313291806  1.0000
  H   H40       1.0  0.2825698934757384  0.06662204869417111  0.9957046581235642  1.0000
  H   H41       1.0  0.4427146864153498  0.7982698496362629  0.05739093004850548  1.0000
  H   H42       1.0  0.557287520774203  0.20173212663086554  0.942609492046685  1.0000
  C   C1        1.0  0.680341508864835  0.9995823610371345  0.5094270779745356  1.0000
  C   C2        1.0  0.3196578368721744  0.00041865832932329994  0.4905735876755343  1.0000
  C   C3        1.0  0.6124905907115306  0.8265219619205622  0.3414486570481896  1.0000
  C   C4        1.0  0.3875085369014855  0.17347808939238257  0.658551597786669  1.0000
  C   C5        1.0  0.48083105259031816  0.6943510290269612  0.42492519539495516  1.0000
  C   C6        1.0  0.5191700577423077  0.3056499772362216  0.5750772217286481  1.0000
  C   C7        1.0  0.5049121865095856  0.6739245436155558  0.5377955536307155  1.0000
  C   C8        1.0  0.49508782161879583  0.326075505396787  0.4622039361507148  1.0000
  C   C9        1.0  0.6197422519839931  0.6564463756570615  0.5694344520617987  1.0000
  C   C10       1.0  0.3802562212570209  0.3435507714953657  0.4305645703274265  1.0000
  C   C11       1.0  0.6464077220245912  0.6501585418396161  0.681090968326906  1.0000
  C   C12       1.0  0.3535914136077878  0.3498376349586962  0.31890687819367963  1.0000
  C   C13       1.0  0.442431941606401  0.3482973986795415  0.24333981369702679  1.0000
  C   C14       1.0  0.5575665307433866  0.6516997505984037  0.7566583882971044  1.0000
  C   C15       1.0  0.5590741460287348  0.33753848500344213  0.2798984260990806  1.0000
  C   C16       1.0  0.4409236648209074  0.6624596325030935  0.7201017721587845  1.0000
  C   C17       1.0  0.5855199228498975  0.32339782531229827  0.38792708995241293  1.0000
  C   C18       1.0  0.4144783251389725  0.6766022261757383  0.6120747503309686  1.0000
  C   C19       1.0  0.7069422321665612  0.3037594393261998  0.4235461020113718  1.0000
  C   C20       1.0  0.29305777685303974  0.6962406075606254  0.5764542081651597  1.0000
  C   C21       1.0  0.5897477160012273  0.6423600556108867  0.8743382557697145  1.0000
  C   C22       1.0  0.41025317442496606  0.3576399868498256  0.12566210974848246  1.0000
  C   C23       1.0  0.7744154974503843  0.6505799471950908  0.723674909795612  1.0000
  C   C24       1.0  0.2255832019339934  0.34941429349620984  0.27632211509455107  1.0000
  C   C25       1.0  0.28553806871114756  0.34917093570950186  0.5117935848690677  1.0000
  C   C26       1.0  0.7144617212932332  0.6508281452493349  0.48820549409715835  1.0000
  C   C27       1.0  0.6547423410738774  0.3354909544831771  0.1993376031073666  1.0000
  C   C28       1.0  0.34525700466313936  0.6645100648832807  0.8006630625427035  1.0000
  C   C29       1.0  0.9755373768625192  0.7818360578909136  0.7205080439496924  1.0000
  C   C30       1.0  0.024460870235124287  0.21816399572264086  0.2794929759385951  1.0000
  C   C31       1.0  0.0734342715317311  0.036170387039248894  0.2250921210194718  1.0000
  C   C32       1.0  0.9265628813810309  0.9638248348088325  0.7749035632123691  1.0000
  C   C33       1.0  0.6832344449306974  0.0183062347531049  0.01909801578683101  1.0000
  C   C34       1.0  0.31676644460426934  0.9816938098331249  0.9809015293362717  1.0000
  C   C35       1.0  0.39898795061282033  0.84779837414451  0.01496123961562982  1.0000
  C   C36       1.0  0.6010138194375187  0.15220166814111735  0.985037540454037  1.0000
  N   N1        1.0  0.564788402971125  0.8104124307693464  0.43288529508746604  1.0000
  N   N2        1.0  0.43521182417247667  0.1895885841709912  0.5671154259042694  1.0000
  N   N3        1.0  0.6070848386710991  0.9199539247219091  0.5406575440899458  1.0000
  N   N4        1.0  0.3929145052834785  0.0800470988955837  0.459341480769936  1.0000
  N   N5        1.0  0.6859492296069548  0.9454363991500968  0.38724804043022226  1.0000
  N   N6        1.0  0.3140492320498183  0.05456463101902638  0.6127501086928859  1.0000
  N   N7        1.0  0.6500184451172828  0.20498700869156744  0.10420059012626835  1.0000
  N   N8        1.0  0.3499835421658375  0.7950140037730833  0.8957977803635229  1.0000
  N   N9        1.0  0.7023219143304047  0.1204036210386334  0.12806916518862008  1.0000
  N   N10       1.0  0.2976791915461305  0.879597395852137  0.8719291499594914  1.0000
  N   N11       1.0  0.6202193182601761  0.0331700223365559  0.927863282891792  1.0000
  N   N12       1.0  0.37978200574035986  0.9668319626077205  0.07213544307153791  1.0000
  N   N13       1.0  0.8601937894628477  0.7686023435336224  0.73936526681981  1.0000
  N   N14       1.0  0.1398040276237253  0.23139190370931567  0.26063088233359366  1.0000
  N   N15       1.0  0.17257893631118287  0.11610917856406637  0.22517027640213166  1.0000
  N   N16       1.0  0.8274197630731949  0.8838850621272342  0.7748267484880313  1.0000
  N   N17       1.0  0.020015605156608232  0.9045749517497794  0.7418512553977974  1.0000
  N   N18       1.0  0.9799804491167876  0.09541930434539839  0.2581447830722681  1.0000
  O   O1        1.0  0.011233317063442877  0.6121856154550969  0.1106155242875885  1.0000
  O   O2        1.0  0.9887680113947895  0.3878202142465738  0.8893970955213673  1.0000
  O   O3        1.0  0.18025838742069308  0.6098554032902185  0.9793611631012309  1.0000
  O   O4        1.0  0.8197442631450116  0.3901446366947994  0.020636851915014565  1.0000
  O   O5        1.0  0.22988601700969005  0.8297578579953179  0.20860983109996284  1.0000
  O   O6        1.0  0.7701183892410411  0.17024604552657507  0.7913915233089879  1.0000
  O   O7        1.0  0.6274944003372481  0.3428500644307917  0.8323983504320651  1.0000
  O   O8        1.0  0.37250428033474486  0.6571519316663269  0.16760102990135536  1.0000
  O   O9        1.0  0.18141925672495057  0.6478913471959727  0.2990628785951656  1.0000
  O   O10       1.0  0.8185637749716436  0.3521155562608342  0.7009440674833838  1.0000
  O   O11       1.0  0.9832051477903363  0.3630612170910296  0.5314230938567021  1.0000
  O   O12       1.0  0.01680074879003259  0.636953405336598  0.46855729192990464  1.0000
  O   O13       1.0  0.9515963862271377  0.17016387586063075  0.6033004722047862  1.0000
  O   O14       1.0  0.048398812480208206  0.8298187568657339  0.39668992677098186  1.0000
  O   O15       1.0  0.14521546219254586  0.3807538489218912  0.7346872935537191  1.0000
  O   O16       1.0  0.8548034917237715  0.6192518986339265  0.2653239719033208  1.0000
  O   O17       1.0  0.6575679978549331  0.5596325665119364  0.0912164027635427  1.0000
  O   O18       1.0  0.34243399121062623  0.44036844170167205  0.9087836085164369  1.0000
  O   O19       1.0  0.8278795907617251  0.7824204393122186  0.15212352635495563  1.0000
  O   O20       1.0  0.17211953774250327  0.21757960987521582  0.8478775488750043  1.0000
  O   O21       1.0  0.1604738236143746  0.4370084892428494  0.06175429305936578  1.0000
  O   O22       1.0  0.8395220009507798  0.5629886818155255  0.9382404613293714  1.0000
  O   O23       1.0  0.007498437034790552  0.5518912966899306  0.779850823387143  1.0000
  O   O24       1.0  0.9925044093792508  0.4481213306414629  0.22015646817732193  1.0000
  O   O25       1.0  0.9700958225484655  0.21813075751477123  0.015656974070992567  1.0000
  O   O26       1.0  0.029901749682352385  0.7818741515951118  0.9843435280247302  1.0000
