data_image0
_chemical_formula_structural       Zn4H8C76Br8O16F24
_chemical_formula_sum              "Zn4 H8 C76 Br8 O16 F24"
_cell_length_a       15.144196632116424
_cell_length_b       15.024222188338278
_cell_length_c       39.145025853582034
_cell_angle_alpha    89.67163293941711
_cell_angle_beta     89.86542320668032
_cell_angle_gamma    89.23346534726329

_space_group_name_H-M_alt    "P 1"
_space_group_IT_number       1

loop_
  _space_group_symop_operation_xyz
  'x, y, z'

loop_
  _atom_site_type_symbol
  _atom_site_label
  _atom_site_symmetry_multiplicity
  _atom_site_fract_x
  _atom_site_fract_y
  _atom_site_fract_z
  _atom_site_occupancy
  Zn  Zn1       1.0  0.0021606158312365994  0.4140125510731922  0.5007497937887494  1.0000
  Zn  Zn2       1.0  0.9999014763870093  0.5860152353455347  0.5000764030212892  1.0000
  Zn  Zn3       1.0  0.09392232127432011  0.4991383755943914  0.00033072687465819997  1.0000
  Zn  Zn4       1.0  0.9137266282554181  0.5015027419197153  0.00045929586780600005  1.0000
  H   H1        1.0  0.7233774635313353  0.6420933851435823  0.4988091946869559  1.0000
  H   H2        1.0  0.7272475090990227  0.35692053453013267  0.5022311028614155  1.0000
  H   H3        1.0  0.2789611918741172  0.3564996441464743  0.4994402738720751  1.0000
  H   H4        1.0  0.2748638507034117  0.6417524487787316  0.5010663032076721  1.0000
  H   H5        1.0  0.8246143476412513  0.7762495731656571  0.0014876692369867  1.0000
  H   H6        1.0  0.10746063997706301  0.7731014060665161  0.0011570206177183  1.0000
  H   H7        1.0  0.10732983591134368  0.2248524136212922  0.998671980170215  1.0000
  H   H8        1.0  0.8244759080044375  0.2291536922260917  0.9986594845491154  1.0000
  C   C1        1.0  0.9992986619937627  0.5012265014690557  0.5667146588156768  1.0000
  C   C2        1.0  0.8317925040666267  0.49945009880127605  0.5005833725414207  1.0000
  C   C3        1.0  0.9990513542760979  0.5005839209614038  0.43411240727900235  1.0000
  C   C4        1.0  0.17026868696360967  0.49893073897983015  0.5002877353260331  1.0000
  C   C5        1.0  0.0423466335708156  0.5018088487831137  0.936181118791481  1.0000
  C   C6        1.0  0.9679068222947648  0.6675952913465795  0.0018286576258859002  1.0000
  C   C7        1.0  0.04190341840553911  0.4975926127119196  0.0645393313393399  1.0000
  C   C8        1.0  0.967751649788454  0.33403174956790593  0.9987066813751468  1.0000
  C   C9        1.0  0.6869220295939797  0.5802491353374251  0.499603389143715  1.0000
  C   C10       1.0  0.5944773665845917  0.5819364570660923  0.4998465593850199  1.0000
  C   C11       1.0  0.5440867781989669  0.6642220329460145  0.49955347097984054  1.0000
  C   C12       1.0  0.6891158275859014  0.4187124843142557  0.5014129413525978  1.0000
  C   C13       1.0  0.5967467108278512  0.41693203544959817  0.5009961569247352  1.0000
  C   C14       1.0  0.5486899983234255  0.33456455141953967  0.5010912089551312  1.0000
  C   C15       1.0  0.3152987871243127  0.41841073027145365  0.49987788361053737  1.0000
  C   C16       1.0  0.4077357207763228  0.4167818323860857  0.5002298355297796  1.0000
  C   C17       1.0  0.45811456383439253  0.33448631561376635  0.5005060913508786  1.0000
  C   C18       1.0  0.31297739460153917  0.5799388742711002  0.500682833305774  1.0000
  C   C19       1.0  0.40537317305365417  0.581784372705897  0.5003724364863444  1.0000
  C   C20       1.0  0.45348819843041355  0.6641485163684919  0.5000119194962807  1.0000
  C   C21       1.0  0.7333938091294526  0.49948092646675246  0.500552672081163  1.0000
  C   C22       1.0  0.5479478249475419  0.4994078081630633  0.5004048289356362  1.0000
  C   C23       1.0  0.2687116059818493  0.49910434171258794  0.5002860928433819  1.0000
  C   C24       1.0  0.4542355683308728  0.4993281042931629  0.5003464844446128  1.0000
  C   C25       1.0  0.03936117540261821  0.5015194055976339  0.10278073521702419  1.0000
  C   C26       1.0  0.1026954757188179  0.4589058916827753  0.1234609145731511  1.0000
  C   C27       1.0  0.0942403513511607  0.4581489223882471  0.1589705507766936  1.0000
  C   C28       1.0  0.9683751719389521  0.5447124067971459  0.11925616002050533  1.0000
  C   C29       1.0  0.9603590018987092  0.5433165628145673  0.154674385474074  1.0000
  C   C30       1.0  0.0228059279265622  0.49985737306232647  0.17523644231704338  1.0000
  C   C31       1.0  0.013981583696320903  0.5000156433418043  0.21291790694338178  1.0000
  C   C32       1.0  0.9542846063803553  0.44479096363906484  0.22980873180107858  1.0000
  C   C33       1.0  0.0649688343503954  0.5567117448450887  0.2327376732123483  1.0000
  C   C34       1.0  0.9967589718945719  0.5001237243074784  0.3957140583779122  1.0000
  C   C35       1.0  0.9550704925562741  0.568807469257017  0.3771774182834875  1.0000
  C   C36       1.0  0.9540441930840515  0.5686030654197082  0.3415551867821947  1.0000
  C   C37       1.0  0.03669698076166131  0.4310538254848311  0.37706104594875  1.0000
  C   C38       1.0  0.03552195804538629  0.43131334279057404  0.3414654211271682  1.0000
  C   C39       1.0  0.9946023035078256  0.5001666152310591  0.3229907596323471  1.0000
  C   C40       1.0  0.9983599610390854  0.50158115281549  0.2851646921039688  1.0000
  C   C41       1.0  0.056872784632609794  0.557934569299512  0.2681723736292341  1.0000
  C   C42       1.0  0.947055381966088  0.44511613402917055  0.2653258583027664  1.0000
  C   C43       1.0  0.0398244485251027  0.49776373278427144  0.8979394754670196  1.0000
  C   C44       1.0  0.9698161691455243  0.4546879445888123  0.8816722932818523  1.0000
  C   C45       1.0  0.9614449574693539  0.45614897767341483  0.8462801249177901  1.0000
  C   C46       1.0  0.10186278506988342  0.5404163364411688  0.8771119754751809  1.0000
  C   C47       1.0  0.09301912633962671  0.5414017232446258  0.8416311421523801  1.0000
  C   C48       1.0  0.022579475139380602  0.49970469287037383  0.8255599517105736  1.0000
  C   C49       1.0  0.0136560361632476  0.49962319312987097  0.7878874979690522  1.0000
  C   C50       1.0  0.06590483821108961  0.4427127776387465  0.7679537973641857  1.0000
  C   C51       1.0  0.9529375392607946  0.5553287610544828  0.7710982627098275  1.0000
  C   C52       1.0  0.9969209485113241  0.5012567853352649  0.6051117388181382  1.0000
  C   C53       1.0  0.03537058424733891  0.5699215629174076  0.6237995820963392  1.0000
  C   C54       1.0  0.03431414898234659  0.5692264063294418  0.6593947639807637  1.0000
  C   C55       1.0  0.9569042456508898  0.4324567079133317  0.6236096587168234  1.0000
  C   C56       1.0  0.9559032196117414  0.4322687048529872  0.6592322230219453  1.0000
  C   C57       1.0  0.9948889974863279  0.5003732078462094  0.6778274848289811  1.0000
  C   C58       1.0  0.9984953148535922  0.4986506282879191  0.7156409402825972  1.0000
  C   C59       1.0  0.9459928777785792  0.5553647040755791  0.7355795505735755  1.0000
  C   C60       1.0  0.0579776486504429  0.4417341869457375  0.732528178985035  1.0000
  C   C61       1.0  0.8858439181292609  0.8132548171635605  0.0012007344677584996  1.0000
  C   C62       1.0  0.8840697594299415  0.9065186709498363  0.0005511964438867004  1.0000
  C   C63       1.0  0.8024452885360633  0.957309872084025  0.00022200633830490006  1.0000
  C   C64       1.0  0.04615167608777429  0.8115787898107882  0.0010233068711116005  1.0000
  C   C65       1.0  0.047765965693990595  0.9046144150897106  0.0003813781409079004  1.0000
  C   C66       1.0  0.1294701877896784  0.9530629431690585  0.9999308895400887  1.0000
  C   C67       1.0  0.046041987908296285  0.1879687529796357  0.9987891143206015  1.0000
  C   C68       1.0  0.047687769181187896  0.09488929952699011  0.9991752955569382  1.0000
  C   C69       1.0  0.12942870803827594  0.0443366974425956  0.999379288949811  1.0000
  C   C70       1.0  0.885731755263123  0.19054717190721968  0.9987962881950948  1.0000
  C   C71       1.0  0.8840005727248794  0.09732175902078671  0.999209511948024  1.0000
  C   C72       1.0  0.8024055047221667  0.04866480413826221  0.9995155287478  1.0000
  C   C73       1.0  0.9661181865899949  0.7666903477633654  0.0014292822655975  1.0000
  C   C74       1.0  0.9658365434032349  0.9536162636934197  0.0001245062915770993  1.0000
  C   C75       1.0  0.9659953323470559  0.23498361655300223  0.9986743321121382  1.0000
  C   C76       1.0  0.9657951752998102  0.04806302384756831  0.9994785345210317  1.0000
  Br  Br1       1.0  0.38823324124341957  0.7727233314134382  0.49998839587718885  1.0000
  Br  Br2       1.0  0.606298187462727  0.7728834889428314  0.49859656369940814  1.0000
  Br  Br3       1.0  0.39591187433133973  0.22582410341424014  0.5001662757755271  1.0000
  Br  Br4       1.0  0.6139527793527789  0.22601105054475573  0.5019084026933313  1.0000
  Br  Br5       1.0  0.6946625471143903  0.11434828372622972  0.9989566569155813  1.0000
  Br  Br6       1.0  0.6947254530732537  0.8944653261663903  0.0008144727978915998  1.0000
  Br  Br7       1.0  0.2370918578492791  0.10731872263126968  0.9989153692454876  1.0000
  Br  Br8       1.0  0.237185226881337  0.8872569621200342  0.00013458099992649987  1.0000
  O   O1        1.0  0.0157877133254374  0.42683334562581626  0.5525271511405592  1.0000
  O   O2        1.0  0.984850029382649  0.5756104358089829  0.5519233087386084  1.0000
  O   O3        1.0  0.8693513651235348  0.5740037042347766  0.4952037646981394  1.0000
  O   O4        1.0  0.8712528022655235  0.4248426100164694  0.5059652267046104  1.0000
  O   O5        1.0  0.013643828357970702  0.5750393203025439  0.44820755497602965  1.0000
  O   O6        1.0  0.9863606259369107  0.4263113840667786  0.4489901270136727  1.0000
  O   O7        1.0  0.1327709867417752  0.42415807084331203  0.49556167980800586  1.0000
  O   O8        1.0  0.13064770577067716  0.5735908365449802  0.5050339002218251  1.0000
  O   O9        1.0  0.11780521865382101  0.4986133393272354  0.9510975299374492  1.0000
  O   O10       1.0  0.9681869814369294  0.5085547708898872  0.9508668718130906  1.0000
  O   O11       1.0  0.892788804215229  0.627869473334968  0.0019725247169546005  1.0000
  O   O12       1.0  0.04281845574300291  0.6285732080269568  0.0019210020483058005  1.0000
  O   O13       1.0  0.9677840054865071  0.49299567501631  0.049932242406626394  1.0000
  O   O14       1.0  0.11743209077221908  0.4987480161788653  0.0495350932938408  1.0000
  O   O15       1.0  0.0426461958006641  0.3710611148940259  0.9987673731359263  1.0000
  O   O16       1.0  0.8926171118806111  0.375759290539051  0.9987788625791865  1.0000
  F   F1        1.0  0.9067169980519124  0.5906021377421665  0.1014571034916898  1.0000
  F   F2        1.0  0.8911185599493832  0.585973765793497  0.1693878892575142  1.0000
  F   F3        1.0  0.1717837878399635  0.414768920223139  0.109561586302604  1.0000
  F   F4        1.0  0.15605000243402856  0.4150102203536293  0.1778790213594093  1.0000
  F   F5        1.0  0.9032434160918398  0.3894667926021782  0.2115872132832877  1.0000
  F   F6        1.0  0.8894540823943089  0.38978841932639335  0.2806639275133591  1.0000
  F   F7        1.0  0.1228714864811522  0.6116194913588872  0.21735516525805562  1.0000
  F   F8        1.0  0.10775498670991372  0.6135011621857135  0.2863552593578476  1.0000
  F   F9        1.0  0.07674557055502622  0.36447298204357287  0.3245191907120457  1.0000
  F   F10       1.0  0.08012377597773931  0.363973774437035  0.39303540340905124  1.0000
  F   F11       1.0  0.9127816697593403  0.6360429193393954  0.3247668027435395  1.0000
  F   F12       1.0  0.9129445987017846  0.636006646644681  0.3933724207493441  1.0000
  F   F13       1.0  0.16993456534763848  0.5843854694705685  0.8908544653654005  1.0000
  F   F14       1.0  0.15346706823490308  0.5846553288029811  0.822541484598311  1.0000
  F   F15       1.0  0.9095353532179756  0.40885753660201374  0.8997020275071818  1.0000
  F   F16       1.0  0.8931831422389181  0.41356569352149103  0.8317706605559536  1.0000
  F   F17       1.0  0.12496266360098933  0.3874154390570653  0.7832066127473425  1.0000
  F   F18       1.0  0.1100009049615238  0.3858854272032062  0.7142353299703856  1.0000
  F   F19       1.0  0.9006355525977483  0.6108286659332477  0.7894295309769319  1.0000
  F   F20       1.0  0.8875227072260826  0.6113189143983393  0.720341146116219  1.0000
  F   F21       1.0  0.9161990367343265  0.3647949256802008  0.6759872630582962  1.0000
  F   F22       1.0  0.9163531156257252  0.36553204873509065  0.6073956859175027  1.0000
  F   F23       1.0  0.07421064218400632  0.6356320801765135  0.676359998581141  1.0000
  F   F24       1.0  0.0773090612427509  0.6369722593187818  0.607853809542668  1.0000
