data_image0
_chemical_formula_structural       H16Pb2C24O8
_chemical_formula_sum              "H16 Pb2 C24 O8"
_cell_length_a       5.284978651585375
_cell_length_b       7.935890492131516
_cell_length_c       12.872446114584916
_cell_angle_alpha    94.27043235501863
_cell_angle_beta     101.7532665171703
_cell_angle_gamma    90.11557039467344

_space_group_name_H-M_alt    "P 1"
_space_group_IT_number       1

loop_
  _space_group_symop_operation_xyz
  'x, y, z'

loop_
  _atom_site_type_symbol
  _atom_site_label
  _atom_site_symmetry_multiplicity
  _atom_site_fract_x
  _atom_site_fract_y
  _atom_site_fract_z
  _atom_site_occupancy
  H   H1        1.0  0.3297953965349336  0.9803159580596912  0.8071375608593738  1.0000
  H   H2        1.0  0.5231058904868462  0.5192497733532733  0.19272561276257247  1.0000
  H   H3        1.0  0.6701992905023175  0.019707974730238203  0.19286123566904928  1.0000
  H   H4        1.0  0.4769752846019699  0.480827439764461  0.8072949457095221  1.0000
  H   H5        1.0  0.5587727593267146  0.18329781453150673  0.652729786649985  1.0000
  H   H6        1.0  0.9053409071242553  0.31648464028828016  0.34673783463851027  1.0000
  H   H7        1.0  0.44125328917953516  0.8166728811845728  0.34725226486954597  1.0000
  H   H8        1.0  0.09459011882400149  0.6834635093428432  0.6532611077894472  1.0000
  H   H9        1.0  0.9514094410839888  0.9415682142538416  0.68281353575194  1.0000
  H   H10       1.0  0.2691492924470111  0.5577490913808703  0.317312444564287  1.0000
  H   H11       1.0  0.04861085318528071  0.05840129703575059  0.3171757624716918  1.0000
  H   H12       1.0  0.73081161716091  0.44223447531673804  0.6826912111569639  1.0000
  H   H13       1.0  0.3854447712211311  0.15497185600955996  0.47249655825928727  1.0000
  H   H14       1.0  0.9120832169732297  0.34525554055860397  0.5270934643770886  1.0000
  H   H15       1.0  0.6145850765748548  0.844993854844418  0.5274918115279731  1.0000
  H   H16       1.0  0.08786585094960492  0.6547179151397415  0.472909572627799  1.0000
  Pb  Pb1       1.0  0.17246669282608448  0.2497152868530534  0.9994211304838528  1.0000
  Pb  Pb2       1.0  0.8275203705280204  0.7503099875219094  0.0005848650035744575  1.0000
  C   C1        1.0  0.6967027197272132  0.12517749390485017  0.8507288447956824  1.0000
  C   C2        1.0  0.8457031050270629  0.3744461383637443  0.1486215697055755  1.0000
  C   C3        1.0  0.3032939571472753  0.8748501897638477  0.1492663877651168  1.0000
  C   C4        1.0  0.15431107798084298  0.6255804548524891  0.8513898152367716  1.0000
  C   C5        1.0  0.4575986447454595  0.06355434285890739  0.7766772874920989  1.0000
  C   C6        1.0  0.6812176186383283  0.43628098627851125  0.22302976969891117  1.0000
  C   C7        1.0  0.5424034672287661  0.9364594271191181  0.2233162550863383  1.0000
  C   C8        1.0  0.3187984172872049  0.5637418339432615  0.776983163178258  1.0000
  C   C9        1.0  0.4107930761073603  0.1052718083493644  0.6746744439924653  1.0000
  C   C10       1.0  0.7358907513613316  0.39449800224719667  0.3249984238585312  1.0000
  C   C11       1.0  0.5892256890728119  0.8947141220615576  0.32531463919003295  1.0000
  C   C12       1.0  0.2640779523101386  0.6054880981360852  0.67500597788959  1.0000
  C   C13       1.0  0.19624249797921314  0.05352406749190659  0.5886521857623919  1.0000
  C   C14       1.0  0.6073892484334563  0.4462641745238045  0.41119381474769057  1.0000
  C   C15       1.0  0.8037875155058811  0.9464479706230691  0.4113372393953155  1.0000
  C   C16       1.0  0.3925796133774426  0.553728244725356  0.5888108645236868  1.0000
  C   C17       1.0  0.9744326523301226  0.9671625560005451  0.603182650071993  1.0000
  C   C18       1.0  0.3714906671788328  0.5323725401774839  0.3968955565731703  1.0000
  C   C19       1.0  0.0255915781484788  0.0328094943001744  0.39680785451691486  1.0000
  C   C20       1.0  0.6284723408201386  0.46761735531595156  0.6031093132729168  1.0000
  C   C21       1.0  0.21559055417819198  0.08661619268096392  0.4841392252273238  1.0000
  C   C22       1.0  0.7309773164644824  0.41353614951395906  0.515672222751725  1.0000
  C   C23       1.0  0.7844393011674597  0.9133495265681332  0.5158499224071278  1.0000
  C   C24       1.0  0.26898165289182424  0.5864474072537005  0.4843304963679387  1.0000
  O   O1        1.0  0.8461392246482687  0.23207091430251128  0.8229479867198819  1.0000
  O   O2        1.0  0.023165255005558497  0.26827088737385213  0.176434043666184  1.0000
  O   O3        1.0  0.153863022816374  0.7679491493560348  0.17704349984022366  1.0000
  O   O4        1.0  0.9768093294144433  0.7317214525286173  0.8235633333964357  1.0000
  O   O5        1.0  0.7487706283353076  0.06995117565428188  0.9447781889327442  1.0000
  O   O6        1.0  0.8027805257234983  0.42858330415315743  0.054272254924910536  1.0000
  O   O7        1.0  0.2512091257815996  0.9300929904131721  0.05522255917652067  1.0000
  O   O8        1.0  0.1972870784157621  0.5714901656670648  0.9457524706828336  1.0000
