data_image0
_chemical_formula_structural       Cd2B2H24C24Br2N16
_chemical_formula_sum              "Cd2 B2 H24 C24 Br2 N16"
_cell_length_a       5.99465290213613
_cell_length_b       11.307061047177998
_cell_length_c       11.306959272156424
_cell_angle_alpha    90.00046541366814
_cell_angle_beta     89.99968860696636
_cell_angle_gamma    89.99941114836405

_space_group_name_H-M_alt    "P 1"
_space_group_IT_number       1

loop_
  _space_group_symop_operation_xyz
  'x, y, z'

loop_
  _atom_site_type_symbol
  _atom_site_label
  _atom_site_symmetry_multiplicity
  _atom_site_fract_x
  _atom_site_fract_y
  _atom_site_fract_z
  _atom_site_occupancy
  Cd  Cd1       1.0  0.30421938302331597  0.2500039386235073  0.2499945033696135  1.0000
  Cd  Cd2       1.0  0.6957898797317696  0.7500010552804351  0.7499996699633583  1.0000
  B   B1        1.0  1.4633416249399993e-05  0.7499996191500882  0.2500004093540014  1.0000
  B   B2        1.0  0.9999862885656012  0.2500009527917512  0.7499999548477801  1.0000
  H   H1        1.0  0.3651223707949568  0.7940613415980663  0.08899933819218116  1.0000
  H   H2        1.0  0.3651243200864229  0.7059309945456818  0.4110050927590193  1.0000
  H   H3        1.0  0.3650906949503465  0.4110035686152428  0.79406355706476  1.0000
  H   H4        1.0  0.3650969380539734  0.08899999655137242  0.7059404140153445  1.0000
  H   H5        1.0  0.6348735466870892  0.20594011478543447  0.9110063324851864  1.0000
  H   H6        1.0  0.6348832744716333  0.29407311499313243  0.5889970402718843  1.0000
  H   H7        1.0  0.6349085589245927  0.5889952345044875  0.20593150066523683  1.0000
  H   H8        1.0  0.6348756253136185  0.9110032286889475  0.29405818140651246  1.0000
  H   H9        1.0  0.520706600217693  0.0262070115667825  0.09314128132837136  1.0000
  H   H10       1.0  0.5207197036898279  0.47378524463876914  0.4068560892909615  1.0000
  H   H11       1.0  0.520694234062418  0.4068556088546983  0.02620705977247439  1.0000
  H   H12       1.0  0.5207053792508772  0.09314991351695309  0.4737973862189404  1.0000
  H   H13       1.0  0.4792809766108802  0.9737873695806271  0.9068546608076882  1.0000
  H   H14       1.0  0.47928789084034645  0.5262188649180074  0.593150465795311  1.0000
  H   H15       1.0  0.4793116923998752  0.5931467318548228  0.9737879979644927  1.0000
  H   H16       1.0  0.47929387459675604  0.9068426988276667  0.5262091688298794  1.0000
  H   H17       1.0  0.010132952628211499  0.9918550381616239  0.3452984426609972  1.0000
  H   H18       1.0  0.0101543678030112  0.5081512065468984  0.15469970037680264  1.0000
  H   H19       1.0  0.010129983654522298  0.15470113297710947  0.9918472958525794  1.0000
  H   H20       1.0  0.010121633213110196  0.34529953698704924  0.508143311931377  1.0000
  H   H21       1.0  0.9898579604050964  0.0081464182316964  0.6547054591997747  1.0000
  H   H22       1.0  0.9898515586052667  0.49184936539949575  0.8453059702858708  1.0000
  H   H23       1.0  0.9898826154626402  0.8452985544860423  0.008144224221915398  1.0000
  H   H24       1.0  0.9898759524744845  0.6547054569529605  0.4918499770034685  1.0000
  C   C1        1.0  0.31352217228974405  0.8694358694235332  0.14139398246746984  1.0000
  C   C2        1.0  0.3135308876593114  0.6305488575284102  0.3585964123135525  1.0000
  C   C3        1.0  0.3135079660425788  0.35859785899907576  0.8694408728710099  1.0000
  C   C4        1.0  0.31350605371428486  0.14140782539585928  0.6305623282223463  1.0000
  C   C5        1.0  0.6864637363708538  0.1305620493348201  0.8586001908626667  1.0000
  C   C6        1.0  0.6864750388490606  0.3694464079597922  0.6413995298057527  1.0000
  C   C7        1.0  0.6864979604064984  0.6414009441231271  0.1305603757291109  1.0000
  C   C8        1.0  0.6864848593921096  0.8585874401576985  0.3694371515579034  1.0000
  C   C9        1.0  0.38899691639631573  0.9841701225129709  0.14362396513965336  1.0000
  C   C10       1.0  0.38901567599985026  0.5158238201801878  0.3563751063810016  1.0000
  C   C11       1.0  0.3889911955088861  0.35637291029694024  0.9841683535420099  1.0000
  C   C12       1.0  0.3889973702423646  0.1436304924938625  0.5158302580615198  1.0000
  C   C13       1.0  0.6109873240508106  0.0158322182845723  0.8563746302656622  1.0000
  C   C14       1.0  0.6110035956210067  0.4841794049266283  0.6436296798665777  1.0000
  C   C15       1.0  0.6110230717198916  0.6436294303842514  0.015826704185712998  1.0000
  C   C16       1.0  0.6109918746831439  0.8563700794768678  0.4841674529199833  1.0000
  C   C17       1.0  0.1289410919292351  0.9699963323205618  0.2765096131469633  1.0000
  C   C18       1.0  0.12893963440538408  0.5300064521970427  0.22348738198340348  1.0000
  C   C19       1.0  0.12891714729242654  0.2234895149791852  0.9699936458883015  1.0000
  C   C20       1.0  0.1289212027893853  0.2765112324615017  0.5300037737096587  1.0000
  C   C21       1.0  0.8710631663527547  0.030005124013058496  0.7234907510547114  1.0000
  C   C22       1.0  0.8710496104699318  0.46999411980600314  0.7765182886977724  1.0000
  C   C23       1.0  0.8710854428964367  0.7765075193265714  0.030002296241889288  1.0000
  C   C24       1.0  0.8710797192001037  0.7234928770712443  0.46999128404004137  1.0000
  Br  Br1       1.0  0.7696958743853484  0.24999086049763258  0.25001609739712183  1.0000
  Br  Br2       1.0  0.2303083838866655  0.74999821425704  0.750000186153599  1.0000
  N   N1        1.0  0.14736695987005527  0.8604680475874033  0.22654611297185304  1.0000
  N   N2        1.0  0.1473766179991571  0.6395310741394624  0.2734570321416213  1.0000
  N   N3        1.0  0.14735390335553689  0.273455130300725  0.8604665921051973  1.0000
  N   N4        1.0  0.14734729822417592  0.22655079836239608  0.6395325554564193  1.0000
  N   N5        1.0  0.8526256213397401  0.1395325243863539  0.7734551356502519  1.0000
  N   N6        1.0  0.8526243039436563  0.3604694978275233  0.7265495229376808  1.0000
  N   N7        1.0  0.8526620320033442  0.7265480947886896  0.13953111885749075  1.0000
  N   N8        1.0  0.8526436148408291  0.7734524268084115  0.3604642711229359  1.0000
  N   N9        1.0  0.2718438204286285  0.04601284560073539  0.2285387824004487  1.0000
  N   N10       1.0  0.27185725257184146  0.45398021668709265  0.2714538337146023  1.0000
  N   N11       1.0  0.2718316482301831  0.27145618660530596  0.04601582500633579  1.0000
  N   N12       1.0  0.27182938898373976  0.228543951079331  0.4539856352925965  1.0000
  N   N13       1.0  0.7281470926472408  0.9539850731693488  0.7714624662127316  1.0000
  N   N14       1.0  0.7281503420275967  0.5460159332344787  0.7285509525171887  1.0000
  N   N15       1.0  0.7281776145495582  0.7285408476921588  0.9539836547607476  1.0000
  N   N16       1.0  0.7281715330157253  0.7714557364522177  0.5460129600834447  1.0000
