data_image0
_chemical_formula_structural       Na4H44C16N72O12
_chemical_formula_sum              "Na4 H44 C16 N72 O12"
_cell_length_a       6.340965024018025
_cell_length_b       12.382847368003645
_cell_length_c       18.30540244205586
_cell_angle_alpha    90.00008748639833
_cell_angle_beta     90.00027119803168
_cell_angle_gamma    89.99999230095176

_space_group_name_H-M_alt    "P 1"
_space_group_IT_number       1

loop_
  _space_group_symop_operation_xyz
  'x, y, z'

loop_
  _atom_site_type_symbol
  _atom_site_label
  _atom_site_symmetry_multiplicity
  _atom_site_fract_x
  _atom_site_fract_y
  _atom_site_fract_z
  _atom_site_occupancy
  Na  Na1       1.0  0.7882762925211322  0.7541706983164428  0.07038299515826198  1.0000
  Na  Na2       1.0  0.7117235805463267  0.24583018495631137  0.5703815098380574  1.0000
  Na  Na3       1.0  0.28827621047824437  0.7458294994082522  0.9296174432609375  1.0000
  Na  Na4       1.0  0.21172302069314947  0.25416980548278895  0.4296182851158362  1.0000
  H   H1        1.0  0.7107553636818195  0.5085123992910778  0.12378671061154019  1.0000
  H   H2        1.0  0.7892436569116795  0.4914877968170968  0.6237866999073631  1.0000
  H   H3        1.0  0.2107560696528168  0.9914861886292385  0.8762130535175953  1.0000
  H   H4        1.0  0.2892455910360566  0.008512188288307198  0.3762132230502359  1.0000
  H   H5        1.0  0.5112540405576738  0.5755107060952225  0.10387715756679229  1.0000
  H   H6        1.0  0.9887447099153305  0.4244902526950938  0.6038779532831311  1.0000
  H   H7        1.0  0.011253457186910499  0.9244887031201328  0.8961222771438172  1.0000
  H   H8        1.0  0.4887453195282063  0.07551052625279199  0.3961222990912247  1.0000
  H   H9        1.0  0.8849599224810872  0.6384228532819378  0.9402841304149444  1.0000
  H   H10       1.0  0.6150402381429385  0.36157724882286135  0.4402838311240771  1.0000
  H   H11       1.0  0.3849590468751529  0.8615773377900523  0.05971592136141618  1.0000
  H   H12       1.0  0.1150414737867962  0.13842194070019784  0.5597163504735292  1.0000
  H   H13       1.0  0.8084919368628859  0.7542572615075183  0.9234093274562691  1.0000
  H   H14       1.0  0.6915095718530679  0.24574280255119865  0.42340848835733164  1.0000
  H   H15       1.0  0.308491320608681  0.7457421272575996  0.07659114434226669  1.0000
  H   H16       1.0  0.191509429008363  0.25425718927867536  0.5765912732193994  1.0000
  H   H17       1.0  0.14770699271411297  0.6106036405904262  0.125130710396391  1.0000
  H   H18       1.0  0.352292838426429  0.38939659295090917  0.6251312445109035  1.0000
  H   H19       1.0  0.6477069149353979  0.889396566805857  0.8748694959138702  1.0000
  H   H20       1.0  0.8522939352099356  0.11060338781655325  0.3748687825532215  1.0000
  H   H21       1.0  0.15571400881689357  0.7114658012516627  0.17843579772031146  1.0000
  H   H22       1.0  0.3442865455440511  0.2885337449002634  0.6784356680233472  1.0000
  H   H23       1.0  0.6557116572347396  0.7885344055938005  0.8215644218093059  1.0000
  H   H24       1.0  0.8442868926468775  0.21146623641869405  0.3215648921069345  1.0000
  H   H25       1.0  0.7804727200598904  0.30327756688052426  0.010982258731722497  1.0000
  H   H26       1.0  0.7195279241332174  0.6967223749015258  0.5109817988618274  1.0000
  H   H27       1.0  0.2804734568285454  0.19672241882838645  0.9890176497422584  1.0000
  H   H28       1.0  0.219529734354559  0.8032778275525841  0.48901797975436506  1.0000
  H   H29       1.0  0.7882736208836646  0.041622207858914406  0.1277197982694531  1.0000
  H   H30       1.0  0.7117270301218142  0.9583796122544399  0.6277201423897337  1.0000
  H   H31       1.0  0.2882727051343537  0.45837858488203403  0.8722801230844794  1.0000
  H   H32       1.0  0.21172732514593656  0.5416205907370608  0.3722801696311322  1.0000
  H   H33       1.0  0.6868163260607714  0.6385124792965583  0.20533536125661556  1.0000
  H   H34       1.0  0.8131853779983726  0.36149274608019505  0.7053347093629226  1.0000
  H   H35       1.0  0.18681595972235954  0.8614877254082809  0.7946643633441822  1.0000
  H   H36       1.0  0.31318459455139447  0.13850723737865417  0.2946657994119732  1.0000
  H   H37       1.0  0.7264354676504113  0.45569031944742017  0.28528218968550323  1.0000
  H   H38       1.0  0.7735625899705809  0.5443126634710821  0.785283300288931  1.0000
  H   H39       1.0  0.2264356769029305  0.04431047754813729  0.7147176295618036  1.0000
  H   H40       1.0  0.27356379266780806  0.9556875352659231  0.21471711383596667  1.0000
  H   H41       1.0  0.7281864780065418  0.8510784692799757  0.3648894954210107  1.0000
  H   H42       1.0  0.7718142367237275  0.14892873095867995  0.864887462824292  1.0000
  H   H43       1.0  0.22818557972241388  0.6489225401471967  0.6351102974904208  1.0000
  H   H44       1.0  0.2718159638801012  0.3510712553465466  0.1351129776403823  1.0000
  C   C1        1.0  0.7784012373651236  0.2725610088668091  0.12199045341085929  1.0000
  C   C2        1.0  0.7216009129486238  0.7274391831910094  0.6219900287274172  1.0000
  C   C3        1.0  0.2783988829093502  0.227438976985347  0.8780099979269381  1.0000
  C   C4        1.0  0.22160437920394566  0.7725602115517133  0.37800975331266057  1.0000
  C   C5        1.0  0.7878597396642062  0.1381653179228834  0.027152269185769694  1.0000
  C   C6        1.0  0.712139546875605  0.8618354678851362  0.5271525141505364  1.0000
  C   C7        1.0  0.2878602137150209  0.3618346672777903  0.9728476514854943  1.0000
  C   C8        1.0  0.21214275807435004  0.638164735077268  0.47284725226707275  1.0000
  C   C9        1.0  0.7105832023658252  0.6247516366964802  0.3197098053900405  1.0000
  C   C10       1.0  0.7894168993919166  0.3752514238394155  0.8197091284802625  1.0000
  C   C11       1.0  0.21058443472176688  0.8752485663736848  0.6802905047429063  1.0000
  C   C12       1.0  0.28941614481006184  0.12474856125478338  0.1802913410479903  1.0000
  C   C13       1.0  0.7305654853397172  0.7889076654405329  0.25215389405789773  1.0000
  C   C14       1.0  0.7694305457398796  0.21109766549060538  0.7521519218202427  1.0000
  C   C15       1.0  0.23056452325108268  0.7110925362542562  0.7478459027813  1.0000
  C   C16       1.0  0.26943066466935756  0.2889023209780674  0.24784796842032353  1.0000
  N   N1        1.0  0.7811889681564493  0.24280605807675212  0.049428801531959686  1.0000
  N   N2        1.0  0.7188137747170628  0.7571939703863462  0.5494289493028288  1.0000
  N   N3        1.0  0.28118759038355273  0.2571939275835717  0.9505716544097706  1.0000
  N   N4        1.0  0.21881665622060348  0.7428062321174805  0.4505713744218553  1.0000
  N   N5        1.0  0.760888280488224  0.3748686855005516  0.14612325819723537  1.0000
  N   N6        1.0  0.739111043160129  0.6251315609669915  0.6461233029172957  1.0000
  N   N7        1.0  0.2608887795448637  0.12513049398712886  0.8538766179381765  1.0000
  N   N8        1.0  0.23911415513978077  0.8748686401403061  0.35387705432255956  1.0000
  N   N9        1.0  0.7627496950448531  0.3646699829842105  0.21949394402926709  1.0000
  N   N10       1.0  0.7372490470243634  0.6353304289027405  0.7194939962220417  1.0000
  N   N11       1.0  0.2627507730042211  0.13533000394409098  0.7805059351806278  1.0000
  N   N12       1.0  0.23725116621243095  0.8646697723327107  0.2805063579424498  1.0000
  N   N13       1.0  0.7813179825012071  0.26222102933358116  0.23753557474400108  1.0000
  N   N14       1.0  0.7186841584451075  0.7377794232294548  0.7375357022241358  1.0000
  N   N15       1.0  0.2813187887936265  0.23777814874846825  0.7624643351253226  1.0000
  N   N16       1.0  0.2186797515460412  0.7622207792835383  0.26246462128050746  1.0000
  N   N17       1.0  0.7919973432428832  0.201205107461348  0.17714354459764078  1.0000
  N   N18       1.0  0.708005555372786  0.7987952089436445  0.6771437175423427  1.0000
  N   N19       1.0  0.29199579880753385  0.29879406988601426  0.8228563829035733  1.0000
  N   N20       1.0  0.2080051379532151  0.7012041867346142  0.32285604204577817  1.0000
  N   N21       1.0  0.7916635848914026  0.10393191409402648  0.9575284129187549  1.0000
  N   N22       1.0  0.7083352326547967  0.8960682268900583  0.45752882040658693  1.0000
  N   N23       1.0  0.29166562036326127  0.3960672632761728  0.042471514034311  1.0000
  N   N24       1.0  0.20833782042353727  0.6039319763347277  0.5424714860156141  1.0000
  N   N25       1.0  0.7986245768500382  0.994676160320388  0.9609606530071558  1.0000
  N   N26       1.0  0.7013742872646842  0.005323988402103898  0.4609612204373477  1.0000
  N   N27       1.0  0.29862666828984163  0.5053240366910074  0.039038709927360984  1.0000
  N   N28       1.0  0.2013751488776023  0.494676002749628  0.5390391037157086  1.0000
  N   N29       1.0  0.7992080678930763  0.9608072922912283  0.0280081890631507  1.0000
  N   N30       1.0  0.700789653214052  0.039193495446824  0.5280086571505292  1.0000
  N   N31       1.0  0.2992086149988822  0.5391929046806891  0.971991721120375  1.0000
  N   N32       1.0  0.20079119108571317  0.4608073033138138  0.47199166603815007  1.0000
  N   N33       1.0  0.792291549269578  0.04972367275615139  0.0707666738626074  1.0000
  N   N34       1.0  0.7077099060592358  0.9502764038143138  0.5707664566835076  1.0000
  N   N35       1.0  0.29228983131949343  0.45027631213967806  0.9292332541246822  1.0000
  N   N36       1.0  0.20771097168098854  0.5497229918842378  0.4292333024176641  1.0000
  N   N37       1.0  0.7110117162364559  0.6793997384675804  0.25547633770173656  1.0000
  N   N38       1.0  0.7889859369763171  0.32060559995557714  0.755475603570808  1.0000
  N   N39       1.0  0.21101225738353688  0.8205996570044221  0.744523973137788  1.0000
  N   N40       1.0  0.2889860395484972  0.17939519273632948  0.24452431896015261  1.0000
  N   N41       1.0  0.7109727958177955  0.5164582967035541  0.3268781253058251  1.0000
  N   N42       1.0  0.7890242491112287  0.483545587563988  0.8268786523126933  1.0000
  N   N43       1.0  0.21097390249807546  0.9835419063398161  0.6731221854703192  1.0000
  N   N44       1.0  0.2890281568117529  0.016454397556444195  0.17312127028424837  1.0000
  N   N45       1.0  0.7092117280849664  0.49336514365711537  0.3992206896938057  1.0000
  N   N46       1.0  0.7907862983670099  0.5066356734376212  0.8992217897757158  1.0000
  N   N47       1.0  0.2092119783932773  0.006634846954789  0.6007791011131614  1.0000
  N   N48       1.0  0.29078752234657657  0.9933645241143335  0.10077865278909567  1.0000
  N   N49       1.0  0.708551166861831  0.5853714849288564  0.43364827809858036  1.0000
  N   N50       1.0  0.7914504807740314  0.41462860221452047  0.9336476452676975  1.0000
  N   N51       1.0  0.20855242004947167  0.9146287182805108  0.5663514823922569  1.0000
  N   N52       1.0  0.29144976769087094  0.0853713827391402  0.06635228133163909  1.0000
  N   N53       1.0  0.709221079940825  0.6692261355224717  0.3863442541124939  1.0000
  N   N54       1.0  0.7907815029331784  0.3307746525386078  0.8863429871739115  1.0000
  N   N55       1.0  0.2092214198911293  0.8307740676408314  0.6136555074837557  1.0000
  N   N56       1.0  0.2907782555640495  0.16922533246116694  0.1136569383187123  1.0000
  N   N57       1.0  0.7463307911045118  0.8435549607133765  0.18933805331658243  1.0000
  N   N58       1.0  0.753669118852308  0.15644942102609596  0.689335998537956  1.0000
  N   N59       1.0  0.24633227266694743  0.6564460474653299  0.810661769556823  1.0000
  N   N60       1.0  0.2536669216112628  0.3435505665270852  0.3106638656753304  1.0000
  N   N61       1.0  0.7657569739979735  0.948605941606601  0.20871874101354135  1.0000
  N   N62       1.0  0.7342384677635249  0.051398483827377106  0.7087159992323676  1.0000
  N   N63       1.0  0.2657582201777657  0.5513950652355388  0.7912811139363142  1.0000
  N   N64       1.0  0.23424071115471173  0.44860150506253377  0.2912838329005679  1.0000
  N   N65       1.0  0.7625733928820678  0.9606000316026877  0.27923836326717577  1.0000
  N   N66       1.0  0.7374261597627269  0.03940455282320699  0.7792361606297006  1.0000
  N   N67       1.0  0.2625721083767871  0.5394001678898732  0.7207614864234201  1.0000
  N   N68       1.0  0.23742744321715747  0.46059624341674504  0.22076422305320878  1.0000
  N   N69       1.0  0.7402552306064505  0.8602305806695295  0.30783476885657984  1.0000
  N   N70       1.0  0.7597462870724669  0.13977326066035534  0.8078327068663922  1.0000
  N   N71       1.0  0.24025510882287898  0.6397696203585425  0.6921650439830813  1.0000
  N   N72       1.0  0.2597472088781103  0.36022672647521137  0.19216771367094043  1.0000
  O   O1        1.0  0.6558252201075234  0.5849172823717621  0.12249419016234948  1.0000
  O   O2        1.0  0.8441737829494896  0.41508371839105956  0.6224941911476947  1.0000
  O   O3        1.0  0.15582438661735407  0.9150829244653803  0.8775054832653453  1.0000
  O   O4        1.0  0.34417413751386755  0.08491545536634246  0.3775058225091641  1.0000
  O   O5        1.0  0.9140644075188431  0.7141364714397864  0.9538758095530467  1.0000
  O   O6        1.0  0.5859359375114792  0.28586366130825513  0.45387538390779253  1.0000
  O   O7        1.0  0.41406494441820735  0.7858637176290554  0.046123743995181585  1.0000
  O   O8        1.0  0.0859353918300343  0.21413553021670845  0.5461242033443198  1.0000
  O   O9        1.0  0.11756332098980239  0.6879776092431906  0.1273688625983453  1.0000
  O   O10       1.0  0.3824365405095874  0.3120226293429481  0.6273682738986464  1.0000
  O   O11       1.0  0.6175632331487009  0.8120234077957775  0.8726312939388947  1.0000
  O   O12       1.0  0.882436009586847  0.1879781569186818  0.3726312566512177  1.0000
