data_image0
_chemical_formula_structural       Al2H8C18N2O10F4
_chemical_formula_sum              "Al2 H8 C18 N2 O10 F4"
_cell_length_a       6.705501393028272
_cell_length_b       8.859653235930098
_cell_length_c       16.88562286819062
_cell_angle_alpha    96.46420245522357
_cell_angle_beta     84.33350192449547
_cell_angle_gamma    75.28246882666251

_space_group_name_H-M_alt    "P 1"
_space_group_IT_number       1

loop_
  _space_group_symop_operation_xyz
  'x, y, z'

loop_
  _atom_site_type_symbol
  _atom_site_label
  _atom_site_symmetry_multiplicity
  _atom_site_fract_x
  _atom_site_fract_y
  _atom_site_fract_z
  _atom_site_occupancy
  Al  Al1       1.0  0.9999982095145796  0.4999979838169537  0.49999904714613996  1.0000
  Al  Al2       1.0  0.5000037616798423  0.4999916303488662  0.4999998286347348  1.0000
  H   H1        1.0  0.17340502719699913  0.6802876742327372  0.5639619078687728  1.0000
  H   H2        1.0  0.8266171241665743  0.31970810653225357  0.4360255134901932  1.0000
  H   H3        1.0  0.6302738463738322  0.5186794235474536  0.26824558464816295  1.0000
  H   H4        1.0  0.6993170270380061  0.5175139606932859  0.11975059852628786  1.0000
  H   H5        1.0  0.07013697131157673  0.4982961840757199  0.09945526764247595  1.0000
  H   H6        1.0  0.9298175336697483  0.5017591013691174  0.9005586960425728  1.0000
  H   H7        1.0  0.30066420083789314  0.4824959763978498  0.8802378701052687  1.0000
  H   H8        1.0  0.3697560293182249  0.48126845838613236  0.7317426752250777  1.0000
  C   C1        1.0  0.6600045637735834  0.7804273044268724  0.5026519609694231  1.0000
  C   C2        1.0  0.7091556897667812  0.49728489909038837  0.6433670981442388  1.0000
  C   C3        1.0  0.3400051395865021  0.2195591191494158  0.4973542023621104  1.0000
  C   C4        1.0  0.2908578386439586  0.5026982556545434  0.3566316863054125  1.0000
  C   C5        1.0  0.31552912420359275  0.5076471626779766  0.2680685740121759  1.0000
  C   C6        1.0  0.5097069175228269  0.5141004767751552  0.23019521207000782  1.0000
  C   C7        1.0  0.5483307777291841  0.5133671833156157  0.14815359737288247  1.0000
  C   C8        1.0  0.3893709028728908  0.5062990772946776  0.10038887123825185  1.0000
  C   C9        1.0  0.1934753748427838  0.502603074475523  0.13634446299739975  1.0000
  C   C10       1.0  0.15984725799117433  0.5030785053728621  0.2188225756133234  1.0000
  C   C11       1.0  0.8065059938209912  0.49743055454433716  0.8636647619787605  1.0000
  C   C12       1.0  0.610595201562077  0.4937426774617036  0.899610573998451  1.0000
  C   C13       1.0  0.4516511290206253  0.48664592439383364  0.8518414466799766  1.0000
  C   C14       1.0  0.4903059287436663  0.4858799573140969  0.7698005692553376  1.0000
  C   C15       1.0  0.6844823624746255  0.49234202562097107  0.7319316401266176  1.0000
  C   C16       1.0  0.8401617933373161  0.49693073882657035  0.7811788381703973  1.0000
  C   C17       1.0  0.5982534381741047  0.9536128875964991  0.49915514958669843  1.0000
  C   C18       1.0  0.40173649464708205  0.046396930369446886  0.50086021650484  1.0000
  N   N1        1.0  0.40935950121448167  0.5027805181875635  0.016059982111812587  1.0000
  N   N2        1.0  0.5905914723540348  0.49727923368183713  0.9839429775821384  1.0000
  O   O1        1.0  0.8541314760734126  0.7161865919733258  0.49484857524833337  1.0000
  O   O2        1.0  0.5542512930154401  0.4819327082875731  0.6082372738998882  1.0000
  O   O3        1.0  0.4857292651084676  0.2854893227285302  0.48664029957918564  1.0000
  O   O4        1.0  0.12381894719621302  0.4803678948700352  0.3897701628243267  1.0000
  O   O5        1.0  0.1458729281571109  0.28381422895052566  0.5051510646902526  1.0000
  O   O6        1.0  0.4457664609436308  0.5180470508255083  0.3917624192428446  1.0000
  O   O7        1.0  0.5142841259192182  0.71449935606131  0.5133651558611658  1.0000
  O   O8        1.0  0.8761966358231489  0.5196222969353882  0.61022870025576  1.0000
  O   O9        1.0  0.2160408575451954  0.5720447433291369  0.5375023045881375  1.0000
  O   O10       1.0  0.7839679058013116  0.427947682874361  0.46249574073266314  1.0000
  F   F1        1.0  0.9673630112117235  0.49940796614684757  0.2504254748938236  1.0000
  F   F2        1.0  0.0326304811599841  0.5006083561834413  0.7495857327890787  1.0000
  F   F3        1.0  0.7603031754113942  0.017215898708812457  0.49303446369107434  1.0000
  F   F4        1.0  0.23967637818641666  0.9827896492908792  0.506984243049814  1.0000
