data_image0
_chemical_formula_structural       Zn8P4H8C4O28
_chemical_formula_sum              "Zn8 P4 H8 C4 O28"
_cell_length_a       4.811350488002184
_cell_length_b       7.890378348802701
_cell_length_c       14.154467112627918
_cell_angle_alpha    96.49612501079807
_cell_angle_beta     89.99996098356256
_cell_angle_gamma    89.9999020864076

_space_group_name_H-M_alt    "P 1"
_space_group_IT_number       1

loop_
  _space_group_symop_operation_xyz
  'x, y, z'

loop_
  _atom_site_type_symbol
  _atom_site_label
  _atom_site_symmetry_multiplicity
  _atom_site_fract_x
  _atom_site_fract_y
  _atom_site_fract_z
  _atom_site_occupancy
  Zn  Zn1       1.0  0.9721398874591641  0.41036800740911167  0.3048124543666262  1.0000
  Zn  Zn2       1.0  0.47213946328459855  0.0896320091229796  0.1951856097738656  1.0000
  Zn  Zn3       1.0  0.0278555046813977  0.589634391125621  0.6951896865170467  1.0000
  Zn  Zn4       1.0  0.5278580072930409  0.9103626652960987  0.8048090027314814  1.0000
  Zn  Zn5       1.0  0.9849884364211903  0.7011637467359932  0.13123447653422463  1.0000
  Zn  Zn6       1.0  0.48498914713400154  0.7988389686239968  0.3687643388613466  1.0000
  Zn  Zn7       1.0  0.015013190982045902  0.29883481100700493  0.8687660209403916  1.0000
  Zn  Zn8       1.0  0.5150145586790983  0.20116595970992532  0.6312358342763745  1.0000
  P   P1        1.0  0.5252383162514108  0.5026975919111294  0.1954076796214537  1.0000
  P   P2        1.0  0.025242753584294102  0.9973043580509396  0.3045919028340336  1.0000
  P   P3        1.0  0.47475707589133254  0.49730478535466466  0.8045923404813566  1.0000
  P   P4        1.0  0.9747588738196741  0.002694192602412201  0.6954078877136212  1.0000
  H   H1        1.0  0.2505265717331254  0.6057028556122218  0.9701419984003012  1.0000
  H   H2        1.0  0.750521364603223  0.8942965224227706  0.5298581915548866  1.0000
  H   H3        1.0  0.7494750556712617  0.394294433684081  0.029859129483192203  1.0000
  H   H4        1.0  0.24947194911765536  0.1057071445597941  0.47014331892021494  1.0000
  H   H5        1.0  0.014842027074003299  0.751178767463891  0.9620492867159741  1.0000
  H   H6        1.0  0.5148309791521513  0.7488234124393786  0.5379504194018239  1.0000
  H   H7        1.0  0.9851616787379456  0.24882742931673357  0.03795025601286281  1.0000
  H   H8        1.0  0.4851560993244205  0.2511726013285482  0.46205063196575946  1.0000
  C   C1        1.0  0.8767859536905361  0.4407680274911243  0.5072274938129837  1.0000
  C   C2        1.0  0.37679124611063486  0.0592285349482893  0.9927754381731193  1.0000
  C   C3        1.0  0.12321567370020858  0.5592331664003184  0.4927816398212599  1.0000
  C   C4        1.0  0.6232228518126276  0.9407674220876814  0.0072199577747866965  1.0000
  O   O1        1.0  0.20336402795678768  0.5052029815879067  0.194801349293499  1.0000
  O   O2        1.0  0.7033662912910258  0.9947987592939211  0.30519676636406967  1.0000
  O   O3        1.0  0.7966292857678497  0.4947981343219752  0.8052000081454552  1.0000
  O   O4        1.0  0.2966311792750389  0.0052023140758095  0.6948003495125263  1.0000
  O   O5        1.0  0.6566980346945854  0.6215846737369759  0.27964716540999757  1.0000
  O   O6        1.0  0.15670090054590696  0.8784145813122705  0.22035222493578036  1.0000
  O   O7        1.0  0.34329735744930895  0.3784164350821229  0.7203534851016897  1.0000
  O   O8        1.0  0.8433007268576346  0.1215852306981304  0.779646228276036  1.0000
  O   O9        1.0  0.642382378353652  0.32374889522419903  0.21087616310539664  1.0000
  O   O10       1.0  0.14238775394238698  0.17625277183545043  0.289123489420092  1.0000
  O   O11       1.0  0.3576067785350787  0.6762509522412614  0.7891258247430528  1.0000
  O   O12       1.0  0.8576117950403273  0.823749577069478  0.7108737029742686  1.0000
  O   O13       1.0  0.6414738862423377  0.5601836016855799  0.1018909581599132  1.0000
  O   O14       1.0  0.14147413913863716  0.9398169526490888  0.398109220156357  1.0000
  O   O15       1.0  0.35852150590313414  0.43981497732977465  0.8981116600964968  1.0000
  O   O16       1.0  0.858521253010778  0.0601828451854374  0.6018878192024675  1.0000
  O   O17       1.0  0.7643582420532411  0.36523176057013257  0.43325977030860235  1.0000
  O   O18       1.0  0.2643621081620964  0.13476467797070057  0.0667402468168632  1.0000
  O   O19       1.0  0.23564754218705272  0.6347667971705988  0.5667407271653887  1.0000
  O   O20       1.0  0.735649911337113  0.8652325900509865  0.9332587602842113  1.0000
  O   O21       1.0  0.8022849719132809  0.4288875960624098  0.5923017716007664  1.0000
  O   O22       1.0  0.30229040359504467  0.07111286741402272  0.907700705156522  1.0000
  O   O23       1.0  0.1977083418128132  0.57111350566818  0.40769817198427216  1.0000
  O   O24       1.0  0.6977278511613322  0.9288818708005026  0.0923002696883515  1.0000
  O   O25       1.0  0.16091015478394158  0.7104432786056663  0.004254975186093201  1.0000
  O   O26       1.0  0.6609042970735501  0.789558522912209  0.49574456694516306  1.0000
  O   O27       1.0  0.8390935510304304  0.2895578656571161  0.9957492099591435  1.0000
  O   O28       1.0  0.3390910950732575  0.2104425575483049  0.5042532558586998  1.0000
