data_image0
_chemical_formula_structural       Cu2H24C28N4Cl2O8
_chemical_formula_sum              "Cu2 H24 C28 N4 Cl2 O8"
_cell_length_a       8.108670582089799
_cell_length_b       8.108653377724744
_cell_length_c       10.873928774623753
_cell_angle_alpha    101.27922855416858
_cell_angle_beta     101.27909660004484
_cell_angle_gamma    90.69874655648695

_space_group_name_H-M_alt    "P 1"
_space_group_IT_number       1

loop_
  _space_group_symop_operation_xyz
  'x, y, z'

loop_
  _atom_site_type_symbol
  _atom_site_label
  _atom_site_symmetry_multiplicity
  _atom_site_fract_x
  _atom_site_fract_y
  _atom_site_fract_z
  _atom_site_occupancy
  Cu  Cu1       1.0  0.9416310830760253  0.05836773503627771  0.7500000728871825  1.0000
  Cu  Cu2       1.0  0.05836902144188369  0.9416310787166182  0.2500005288808467  1.0000
  H   H1        1.0  0.22085223083358582  0.8804586880479732  0.8777493187261953  1.0000
  H   H2        1.0  0.8804531643295802  0.22084841333386146  0.377751744946309  1.0000
  H   H3        1.0  0.7791506716862459  0.1195451822081637  0.1222478470569328  1.0000
  H   H4        1.0  0.11953799020550798  0.7791478657084809  0.6222508360218981  1.0000
  H   H5        1.0  0.4223885961305313  0.941874545861154  0.08991227520893118  1.0000
  H   H6        1.0  0.9418742774875996  0.4223918455284234  0.5899126990115988  1.0000
  H   H7        1.0  0.5776078055494976  0.05812553065020862  0.9100870458701563  1.0000
  H   H8        1.0  0.05812470135392539  0.57760948664194  0.4100881088376624  1.0000
  H   H9        1.0  0.17576514760958156  0.4059545493218906  0.18276726636290155  1.0000
  H   H10       1.0  0.4059552996482552  0.1757665661773302  0.6827640894599796  1.0000
  H   H11       1.0  0.824232492398515  0.5940455081028732  0.8172368333182263  1.0000
  H   H12       1.0  0.5940460739312884  0.824232259213673  0.3172339428923224  1.0000
  H   H13       1.0  0.9794547916621285  0.32209494737212196  0.9694054512879974  1.0000
  H   H14       1.0  0.322092490254228  0.9794514238757942  0.4694065403361236  1.0000
  H   H15       1.0  0.0205492211673004  0.6779063891041944  0.030595182422786124  1.0000
  H   H16       1.0  0.6779050371021854  0.020546134218101003  0.530592574661732  1.0000
  H   H17       1.0  0.5558076088667435  0.3269282477609963  0.5279716229868257  1.0000
  H   H18       1.0  0.32692603929019987  0.5558092546155322  0.0279713580995775  1.0000
  H   H19       1.0  0.4441939548196601  0.6730743477495409  0.4720288346281691  1.0000
  H   H20       1.0  0.6730704283199174  0.4441920811627397  0.9720281590656014  1.0000
  H   H21       1.0  0.6524848411017884  0.44744171022544793  0.43838439734545886  1.0000
  H   H22       1.0  0.44744161795578213  0.652484487021063  0.938387568855596  1.0000
  H   H23       1.0  0.3475179257161828  0.5525596376562875  0.5616132947677244  1.0000
  H   H24       1.0  0.5525560335774031  0.34751558192546383  0.06161377531886812  1.0000
  C   C1        1.0  0.2157533984806363  0.9954211739574105  0.947683061994013  1.0000
  C   C2        1.0  0.9954164342113431  0.2157527483963477  0.4476859907102408  1.0000
  C   C3        1.0  0.7842470510544858  0.004583951492357099  0.052314846195550026  1.0000
  C   C4        1.0  0.004578562705184199  0.7842447941025128  0.5523164261146292  1.0000
  C   C5        1.0  0.3274894837441522  0.029778896553537503  0.06496910396779751  1.0000
  C   C6        1.0  0.029779084116022096  0.3274909291516294  0.5649698876624996  1.0000
  C   C7        1.0  0.6725118859936998  0.9702199249968758  0.935029846886728  1.0000
  C   C8        1.0  0.9702198287954148  0.6725091437518242  0.43503072410067734  1.0000
  C   C9        1.0  0.31648544552270863  0.1795084410068455  0.151677799161682  1.0000
  C   C10       1.0  0.17950787442919847  0.31649197296452775  0.6516763543077957  1.0000
  C   C11       1.0  0.6835124038007337  0.8204954057403883  0.848324133271035  1.0000
  C   C12       1.0  0.820492439404056  0.6835106301108383  0.34832208021182254  1.0000
  C   C13       1.0  0.18945444888998964  0.28780330997407333  0.11872115802010091  1.0000
  C   C14       1.0  0.2878039928908294  0.18945780217136132  0.6187201869386669  1.0000
  C   C15       1.0  0.8105443244778884  0.712194236714403  0.881280898575355  1.0000
  C   C16       1.0  0.7121961231521682  0.8105410231032977  0.38127765932270563  1.0000
  C   C17       1.0  0.08192414168761529  0.24383343971267382  0.9998742197194658  1.0000
  C   C18       1.0  0.2438313581215183  0.08192515034789949  0.499875451125817  1.0000
  C   C19       1.0  0.9180774143154051  0.7561691481166831  0.00012807489996890183  1.0000
  C   C20       1.0  0.7561662972533654  0.9180749224392174  0.5001249745464307  1.0000
  C   C21       1.0  0.44597648336225143  0.22275106127988661  0.27217653001399356  1.0000
  C   C22       1.0  0.22276010829401116  0.44596457632924574  0.7721729193462252  1.0000
  C   C23       1.0  0.5540467814357937  0.777233895066381  0.7278272875393129  1.0000
  C   C24       1.0  0.7772457679910545  0.5540241753918878  0.22782428868114823  1.0000
  C   C25       1.0  0.5336178434351381  0.420555398545254  0.4666161701424514  1.0000
  C   C26       1.0  0.42055479237760807  0.5336176870008413  0.9666183122594205  1.0000
  C   C27       1.0  0.466386180919379  0.5794459494528255  0.5333817080616683  1.0000
  C   C28       1.0  0.5794453742286835  0.4663823821783736  0.03338340409691656  1.0000
  N   N1        1.0  0.094979755103374  0.10144415533720523  0.9142921930733722  1.0000
  N   N2        1.0  0.1014393944251282  0.0949772271427136  0.4142935307629756  1.0000
  N   N3        1.0  0.9050219442849043  0.8985609625477268  0.08570773821156759  1.0000
  N   N4        1.0  0.8985555404030092  0.9050190599298346  0.5857077714735937  1.0000
  Cl  Cl1       1.0  0.7412245157285752  0.258776921755974  0.750000597644977  1.0000
  Cl  Cl2       1.0  0.25877558878932666  0.7412218919969222  0.25000000412305223  1.0000
  O   O1        1.0  0.5762720874517908  0.14888410861811252  0.29365941294229  1.0000
  O   O2        1.0  0.14888210112692954  0.5762880028721042  0.7936630213353837  1.0000
  O   O3        1.0  0.42370937101657796  0.8511185003933122  0.7063343932088628  1.0000
  O   O4        1.0  0.8511209140445928  0.4237183667149012  0.2063391291310168  1.0000
  O   O5        1.0  0.40624307012684113  0.3578170145859616  0.3532158397616314  1.0000
  O   O6        1.0  0.35781592161433207  0.40624617418686165  0.8532165087743663  1.0000
  O   O7        1.0  0.5937582336809231  0.6421805476975423  0.64678291500681  1.0000
  O   O8        1.0  0.6421843109220476  0.5937551542592557  0.1467854036680478  1.0000
