data_image0
_chemical_formula_structural       ZnH8C8O8F4
_chemical_formula_sum              "Zn1 H8 C8 O8 F4"
_cell_length_a       5.1167009760223054
_cell_length_b       6.566803245821904
_cell_length_c       9.186754350509396
_cell_angle_alpha    73.80851203333398
_cell_angle_beta     88.41353867954886
_cell_angle_gamma    73.26153465054692

_space_group_name_H-M_alt    "P 1"
_space_group_IT_number       1

loop_
  _space_group_symop_operation_xyz
  'x, y, z'

loop_
  _atom_site_type_symbol
  _atom_site_label
  _atom_site_symmetry_multiplicity
  _atom_site_fract_x
  _atom_site_fract_y
  _atom_site_fract_z
  _atom_site_occupancy
  Zn  Zn1       1.0  3.796605639584977e-06  0.9999977590654294  4.756298475639237e-08  1.0000
  H   H1        1.0  0.32032338187514847  0.6579430220146207  0.926628280357022  1.0000
  H   H2        1.0  0.6796815481952478  0.342044716241503  0.07337972911528819  1.0000
  H   H3        1.0  0.18593233547662177  0.5932454122012061  0.08456007857351013  1.0000
  H   H4        1.0  0.8140612826611998  0.4067409684279468  0.9154407640966938  1.0000
  H   H5        1.0  0.845302251702307  0.8202688125785755  0.7965554319437443  1.0000
  H   H6        1.0  0.1547105614969766  0.1797187120810904  0.20344705137399194  1.0000
  H   H7        1.0  0.5863130845303032  0.013581528846678697  0.8208568813052466  1.0000
  H   H8        1.0  0.41369578472998114  0.9864061004516881  0.17914673277281432  1.0000
  C   C1        1.0  0.18313605559316662  0.36865029676843625  0.7628859945912154  1.0000
  C   C2        1.0  0.816864014959428  0.6313342704763727  0.2371140190740988  1.0000
  C   C3        1.0  0.34136381636039204  0.4393083533776689  0.6263317835292669  1.0000
  C   C4        1.0  0.6586353192722569  0.5607518550693413  0.37367705611286783  1.0000
  C   C5        1.0  0.4571134488901407  0.6122854790048889  0.6082506303916517  1.0000
  C   C6        1.0  0.5428400081224467  0.3876921169713866  0.391770029878387  1.0000
  C   C7        1.0  0.6152042203703091  0.6702429085623859  0.4866852367516118  1.0000
  C   C8        1.0  0.3848152218582186  0.3297723330349171  0.5132800267330639  1.0000
  O   O1        1.0  0.23997999710453394  0.1616695985271548  0.8273527468401696  1.0000
  O   O2        1.0  0.7600321262044788  0.8383442254348379  0.17263795363249565  1.0000
  O   O3        1.0  0.004772354952784476  0.51943550139233  0.8026857265691163  1.0000
  O   O4        1.0  0.9952071041636896  0.4805643857654331  0.19730610896622383  1.0000
  O   O5        1.0  0.2920423064122629  0.6942194777115273  0.02306158005212217  1.0000
  O   O6        1.0  0.7079581360892035  0.30577001513099583  0.976941796094046  1.0000
  O   O7        1.0  0.7887438060046748  0.9638840079726589  0.8193194003990172  1.0000
  O   O8        1.0  0.21127258709989863  0.0360984936490496  0.1806840307340565  1.0000
  F   F1        1.0  0.42223606606778225  0.7270969408300089  0.712962125859761  1.0000
  F   F2        1.0  0.5777728127828681  0.27290874788065617  0.2870269889522774  1.0000
  F   F3        1.0  0.7335959449862769  0.8305480844292887  0.4819621086066519  1.0000
  F   F4        1.0  0.2663989766017352  0.1694645626186357  0.5180410766909134  1.0000
