data_image0
_chemical_formula_structural       Cu2H28C40N8O8
_chemical_formula_sum              "Cu2 H28 C40 N8 O8"
_cell_length_a       8.62632041324158
_cell_length_b       8.62717657024124
_cell_length_c       13.421825312020479
_cell_angle_alpha    95.72576340116795
_cell_angle_beta     108.3648693157842
_cell_angle_gamma    110.77020017655697

_space_group_name_H-M_alt    "P 1"
_space_group_IT_number       1

loop_
  _space_group_symop_operation_xyz
  'x, y, z'

loop_
  _atom_site_type_symbol
  _atom_site_label
  _atom_site_symmetry_multiplicity
  _atom_site_fract_x
  _atom_site_fract_y
  _atom_site_fract_z
  _atom_site_occupancy
  Cu  Cu1       1.0  0.49999895486645574  5.914306342010934e-07  0.5000001237327893  1.0000
  Cu  Cu2       1.0  0.9999999411340567  3.9346292620706525e-07  5.786468973782754e-07  1.0000
  H   H1        1.0  0.357356816318628  0.948332089884886  0.2410638444206512  1.0000
  H   H2        1.0  0.20717356190861122  0.11631054000558551  0.2590508061997383  1.0000
  H   H3        1.0  0.6426422778878873  0.05166676900587671  0.7589353529404619  1.0000
  H   H4        1.0  0.7928296632552263  0.8836921074811884  0.7409479845573514  1.0000
  H   H5        1.0  0.8711149531075009  0.05030666190696561  0.4684447767967583  1.0000
  H   H6        1.0  0.0822681302474138  0.40267376833926255  0.031574230263395016  1.0000
  H   H7        1.0  0.12888460367977927  0.9496960463885317  0.5315554914050936  1.0000
  H   H8        1.0  0.9177259976681215  0.5973277297514131  0.9684255839291396  1.0000
  H   H9        1.0  0.8864735590320194  0.0449188068209025  0.2641831035027379  1.0000
  H   H10       1.0  0.28096646549038695  0.622258570174651  0.23582179075624046  1.0000
  H   H11       1.0  0.11352551911585346  0.9550800620063384  0.7358175812912152  1.0000
  H   H12       1.0  0.7190288691586844  0.3777429175829283  0.7641790183875585  1.0000
  H   H13       1.0  0.795615098915036  0.2136776193956536  0.13067454865596773  1.0000
  H   H14       1.0  0.583072322474102  0.6649406828035253  0.3693702873190928  1.0000
  H   H15       1.0  0.20438286368018782  0.7863186917065764  0.869325006848797  1.0000
  H   H16       1.0  0.4169291261358836  0.3350607036061959  0.6306280594167716  1.0000
  H   H17       1.0  0.2995272252073775  0.7824797859167276  0.06337625697569392  1.0000
  H   H18       1.0  0.2190074569993357  0.23616000122996894  0.4365502576039191  1.0000
  H   H19       1.0  0.7004726051225917  0.21751521820446132  0.9366236082123507  1.0000
  H   H20       1.0  0.7809946365532099  0.7638400984682719  0.5634488912968294  1.0000
  H   H21       1.0  0.9946254411149624  0.5399806250176907  0.4284423858690046  1.0000
  H   H22       1.0  0.6114818368046215  0.5661911818000008  0.07159694863221229  1.0000
  H   H23       1.0  0.005374182765251631  0.46001953012442  0.5715599791441832  1.0000
  H   H24       1.0  0.3885221405413049  0.43380760098070675  0.9284010225189688  1.0000
  H   H25       1.0  0.6781458200092132  0.3256672582593367  0.3402079078693347  1.0000
  H   H26       1.0  0.4854391491878474  0.3379846234648412  0.1598250389810758  1.0000
  H   H27       1.0  0.32185203534647405  0.6743316308374788  0.6597932694062081  1.0000
  H   H28       1.0  0.5145611678108539  0.6620142151563474  0.8401736658984404  1.0000
  C   C1        1.0  0.49942420189830733  0.9784245463970578  0.2779942071417878  1.0000
  C   C2        1.0  0.20038151773691482  0.2214085740417104  0.22209535807458994  1.0000
  C   C3        1.0  0.5005725619926977  0.0215717700700253  0.7220036096952853  1.0000
  C   C4        1.0  0.7996204766054191  0.7785940986828807  0.7779046688805166  1.0000
  C   C5        1.0  0.7681364133430932  0.032281367785806515  0.39156669493134194  1.0000
  C   C6        1.0  0.14099032778546672  0.37649612863660314  0.1084308736860251  1.0000
  C   C7        1.0  0.23186258165320334  0.9677200641312995  0.6084333804841221  1.0000
  C   C8        1.0  0.8590038001300613  0.6235053694540723  0.8915689405065095  1.0000
  C   C9        1.0  0.778161373424318  0.031850491033601706  0.2915844893148929  1.0000
  C   C10       1.0  0.2405567318284056  0.48657042425287506  0.2084099955630023  1.0000
  C   C11       1.0  0.2218376215719786  0.9681509408835041  0.7084155861005712  1.0000
  C   C12       1.0  0.759439833642169  0.5134310382668944  0.7915895773827799  1.0000
  C   C13       1.0  0.5539958040544094  0.9967142286458571  0.10826334753789985  1.0000
  C   C14       1.0  0.3884254640474295  0.44582214718444385  0.39175647101916405  1.0000
  C   C15       1.0  0.4460015135982545  0.003283369167853298  0.891735405801988  1.0000
  C   C16       1.0  0.6115777611164077  0.55418050030233  0.6082423197379255  1.0000
  C   C17       1.0  0.6670723133751296  0.1191940000740672  0.07316865856938651  1.0000
  C   C18       1.0  0.5460715529655928  0.5940010186918343  0.42689910722706514  1.0000
  C   C19       1.0  0.33292508742911053  0.8808010346497783  0.9268307041489905  1.0000
  C   C20       1.0  0.45392988761507524  0.40600037268612976  0.5730999832252266  1.0000
  C   C21       1.0  0.3871675771941554  0.8772170338872486  0.035424087122038435  1.0000
  C   C22       1.0  0.3417159476023457  0.35172924301992475  0.4645414816411702  1.0000
  C   C23       1.0  0.6128298236100846  0.12277800083659685  0.9645752755963315  1.0000
  C   C24       1.0  0.6582861459501999  0.648270856678316  0.5354576672595712  1.0000
  C   C25       1.0  0.1592248007143127  0.8148322009927327  0.3622075965644882  1.0000
  C   C26       1.0  0.9527647489805703  0.7970434366930946  0.1378018805500503  1.0000
  C   C27       1.0  0.8407767069592822  0.18516663723184482  0.6377935906991467  1.0000
  C   C28       1.0  0.04723851918822667  0.20295667254502087  0.8622012381676569  1.0000
  C   C29       1.0  0.9787358145634711  0.6721602495377681  0.30108094556211995  1.0000
  C   C30       1.0  0.8711603668445278  0.6776544594456198  0.1989207883059976  1.0000
  C   C31       1.0  0.021266891814349338  0.3278385833219631  0.6989219803691994  1.0000
  C   C32       1.0  0.1288430165931373  0.32234306682966724  0.8010799649245043  1.0000
  C   C33       1.0  0.9088283825526703  0.5433437725895162  0.3499949290709026  1.0000
  C   C34       1.0  0.6933669256317644  0.5588707315956611  0.15003487360699813  1.0000
  C   C35       1.0  0.09117134053776252  0.4566538095262517  0.6500065578879273  1.0000
  C   C36       1.0  0.3066364658352185  0.4411267897113832  0.8499651359070768  1.0000
  C   C37       1.0  0.7315175464416087  0.42341032579017235  0.29994917878853766  1.0000
  C   C38       1.0  0.623437169370824  0.4316566646234748  0.20007999757692824  1.0000
  C   C39       1.0  0.2684815236769467  0.5765885480053115  0.7000522497218427  1.0000
  C   C40       1.0  0.3765630243296911  0.5683447619287777  0.7999218165062203  1.0000
  N   N1        1.0  0.59401288833633  0.99947338158902  0.3820842648298425  1.0000
  N   N2        1.0  0.11733076486332554  0.21182091183994345  0.11797499480023531  1.0000
  N   N3        1.0  0.405984907955748  0.0005280556929320989  0.6179140719179372  1.0000
  N   N4        1.0  0.8826682381622959  0.7881805151089268  0.8820243368988088  1.0000
  N   N5        1.0  0.6073153133499218  0.9973861334138976  0.22032274322985756  1.0000
  N   N6        1.0  0.277225959075558  0.386996777362306  0.2797048650794309  1.0000
  N   N7        1.0  0.3926849956194545  0.002612710175533599  0.7796767053660858  1.0000
  N   N8        1.0  0.7227742587129242  0.6130046342852323  0.7202947178544433  1.0000
  O   O1        1.0  0.2871786913794665  0.7757177966115592  0.4154916884174398  1.0000
  O   O2        1.0  0.8602632704615376  0.8716333705815205  0.08448282332778945  1.0000
  O   O3        1.0  0.7128251546389635  0.22428357906846233  0.5845101356538009  1.0000
  O   O4        1.0  0.13974290587240287  0.12837054752218083  0.915520381267484  1.0000
  O   O5        1.0  0.17552374882279057  0.9661571050961089  0.3632877334071622  1.0000
  O   O6        1.0  0.10302915360845327  0.8123755589915548  0.1367048943324605  1.0000
  O   O7        1.0  0.8244747835927342  0.033840477416269714  0.6367112711675631  1.0000
  O   O8        1.0  0.8969747835908707  0.18762324863036642  0.8632967954008494  1.0000
