data_image0
_chemical_formula_structural       Cd2H30C40N4O8
_chemical_formula_sum              "Cd2 H30 C40 N4 O8"
_cell_length_a       8.241712937775757
_cell_length_b       10.441915586154751
_cell_length_c       13.51205039627357
_cell_angle_alpha    104.39929938890116
_cell_angle_beta     106.62526189592218
_cell_angle_gamma    92.2651830124084

_space_group_name_H-M_alt    "P 1"
_space_group_IT_number       1

loop_
  _space_group_symop_operation_xyz
  'x, y, z'

loop_
  _atom_site_type_symbol
  _atom_site_label
  _atom_site_symmetry_multiplicity
  _atom_site_fract_x
  _atom_site_fract_y
  _atom_site_fract_z
  _atom_site_occupancy
  Cd  Cd1       1.0  0.1675410745349097  0.5928366957021111  0.058911392651772594  1.0000
  Cd  Cd2       1.0  0.8324629316774407  0.4071599478431835  0.9410822604486954  1.0000
  H   H1        1.0  0.6283325124245849  0.0659713755763107  0.3317557490091332  1.0000
  H   H2        1.0  0.3716583645128466  0.9340339010977983  0.6682549823596986  1.0000
  H   H3        1.0  0.7703897949243058  0.0402346164457441  0.254250141475751  1.0000
  H   H4        1.0  0.22961734621788576  0.959776864919192  0.7457558992368689  1.0000
  H   H5        1.0  0.05914404142455249  0.07638477822708008  0.3523950446695991  1.0000
  H   H6        1.0  0.9408582143990075  0.9236196481812371  0.6476131515644354  1.0000
  H   H7        1.0  0.142176050251301  0.6336028701845607  0.3839320588977558  1.0000
  H   H8        1.0  0.8578203645388883  0.3663758002469207  0.6160573965962968  1.0000
  H   H9        1.0  0.5181041417540442  0.277323528501867  0.05929044104325947  1.0000
  H   H10       1.0  0.48189978335652484  0.7226650415182975  0.9407112230695418  1.0000
  H   H11       1.0  0.7936146489240417  0.18271192226637817  0.08074567798498579  1.0000
  H   H12       1.0  0.20639454598794058  0.8173045932374163  0.9192580316645406  1.0000
  H   H13       1.0  0.33807998924809374  0.9742625585844422  0.3097349214293601  1.0000
  H   H14       1.0  0.6619258759033215  0.0257408753205368  0.690275956951126  1.0000
  H   H15       1.0  0.20176010992989998  0.88441870674324  0.18050907617642759  1.0000
  H   H16       1.0  0.7982407093086082  0.11558377232500311  0.8194940320776993  1.0000
  H   H17       1.0  0.35054853150629844  0.019140871154256403  0.19278110243120491  1.0000
  H   H18       1.0  0.6494491599214528  0.9808575865429248  0.807222120859265  1.0000
  H   H19       1.0  0.047435227001521724  0.0164072675053006  0.9318670226091825  1.0000
  H   H20       1.0  0.9525661730444956  0.9835982802630242  0.06813013674425852  1.0000
  H   H21       1.0  0.2630423036305629  0.7091114768705182  0.5831864509305191  1.0000
  H   H22       1.0  0.7369518096025233  0.2908861356650192  0.4168011495107606  1.0000
  H   H23       1.0  0.734238759866834  0.3134188737183266  0.23654811559666203  1.0000
  H   H24       1.0  0.2657437490976308  0.6865686640422198  0.7634383381847627  1.0000
  H   H25       1.0  0.8411865698009535  0.7534235662210379  0.24977530526238206  1.0000
  H   H26       1.0  0.1588191165675639  0.2465859587544728  0.7502263825414914  1.0000
  H   H27       1.0  0.7027162089196394  0.9229676776153322  0.4855731609439999  1.0000
  H   H28       1.0  0.2972806618795687  0.07703469866141427  0.5144351286997946  1.0000
  H   H29       1.0  0.5767419737771249  0.550809119909978  0.132742386633204  1.0000
  H   H30       1.0  0.42326443890783594  0.449203546160419  0.8672474717007503  1.0000
  C   C1        1.0  0.7215696030465325  0.0011507369743170976  0.30998330388796097  1.0000
  C   C2        1.0  0.2784289044125216  0.998853686185356  0.6900219879530525  1.0000
  C   C3        1.0  0.0333586063653826  0.042786080386612496  0.4172455779628805  1.0000
  C   C4        1.0  0.9666369305081874  0.9572153262033254  0.5827593160898843  1.0000
  C   C5        1.0  0.058201333543294695  0.5497374955527974  0.4956160539472592  1.0000
  C   C6        1.0  0.9417950331533262  0.4502402243734593  0.5043695039444671  1.0000
  C   C7        1.0  0.05415986894382741  0.5593065990766564  0.3924964011942934  1.0000
  C   C8        1.0  0.9458321704558089  0.44067700958577644  0.6074932332931695  1.0000
  C   C9        1.0  0.45098469497067134  0.17669132243131708  0.02906369860780699  1.0000
  C   C10       1.0  0.5490190266961009  0.8233042529671977  0.9709356128153246  1.0000
  C   C11       1.0  0.9399870710975338  0.4751854027654332  0.30084932658680685  1.0000
  C   C12       1.0  0.06000580711926059  0.5247942963667853  0.6991345064761774  1.0000
  C   C13       1.0  0.8652728347538458  0.0005435538567653014  0.40842557031287907  1.0000
  C   C14       1.0  0.1347244531553216  0.9994618096758999  0.5915833860706031  1.0000
  C   C15       1.0  0.726196316798557  0.08210396016635  0.051893349548528526  1.0000
  C   C16       1.0  0.27381041247772236  0.9179063897063385  0.9481234949848272  1.0000
  C   C17       1.0  0.3308704709241113  0.9347490838627692  0.22482362262137204  1.0000
  C   C18       1.0  0.6691301001460417  0.06525234515739699  0.7751836738131175  1.0000
  C   C19       1.0  0.27455142424091156  0.1584319834450412  0.9966469566331356  1.0000
  C   C20       1.0  0.7254597479363412  0.8415716086304241  0.003355298061769837  1.0000
  C   C21       1.0  0.1861396420723338  0.027615020036222397  0.9556851048674417  1.0000
  C   C22       1.0  0.813864690953686  0.9723963053239827  0.044331495792775316  1.0000
  C   C23       1.0  0.17427094752340366  0.6345674572124336  0.5909039180956484  1.0000
  C   C24       1.0  0.8257248784930058  0.36542513348223343  0.4090881827305921  1.0000
  C   C25       1.0  0.5450416106103759  0.0660753943302552  0.020679036284924693  1.0000
  C   C26       1.0  0.45497268103030564  0.9339241817885408  0.9793281741013616  1.0000
  C   C27       1.0  0.8239275583500429  0.3775873796822466  0.3096948803101397  1.0000
  C   C28       1.0  0.17605229972352995  0.6224010068749023  0.6903016205942906  1.0000
  C   C29       1.0  0.1758467307990585  0.27642586702248917  0.0023601525155924866  1.0000
  C   C30       1.0  0.8241678654508606  0.7235837469773327  0.9976416965649477  1.0000
  C   C31       1.0  0.45629540568976523  0.838365806756954  0.21205039257277747  1.0000
  C   C32       1.0  0.5437036807017608  0.16163272441791318  0.7879479182794783  1.0000
  C   C33       1.0  0.9420095749942591  0.487121815730319  0.19266075015465833  1.0000
  C   C34       1.0  0.05797751280456248  0.5128537784209256  0.8073278773230398  1.0000
  C   C35       1.0  0.704077201233325  0.7537908867099148  0.2265835335058952  1.0000
  C   C36       1.0  0.2959389524496885  0.24622166133260487  0.7734243608722622  1.0000
  C   C37       1.0  0.8331992385953627  0.9576207169690888  0.4920496921620837  1.0000
  C   C38       1.0  0.16679616111658652  0.04238865455376839  0.5079560117321833  1.0000
  C   C39       1.0  0.5724299256579573  0.6550787578587318  0.16893670912362066  1.0000
  C   C40       1.0  0.4275819117976028  0.344928871520736  0.831062024130624  1.0000
  N   N1        1.0  0.629156516082091  0.8685800399629211  0.2535912511838133  1.0000
  N   N2        1.0  0.3708349052856121  0.1314282873125734  0.7464150014266338  1.0000
  N   N3        1.0  0.4198628040642377  0.7087550996764448  0.16029190098231538  1.0000
  N   N4        1.0  0.580146486388081  0.29125157703204246  0.8397009984075865  1.0000
  O   O1        1.0  0.2609790133551826  0.390830096766571  0.04690490654771647  1.0000
  O   O2        1.0  0.7390344906651692  0.6091805209516962  0.9530954615772274  1.0000
  O   O3        1.0  0.014330893044672194  0.2510865836201361  0.9612552501340162  1.0000
  O   O4        1.0  0.985682917078904  0.748918006373053  0.03874916306947534  1.0000
  O   O5        1.0  0.827696037834862  0.41306675978889024  0.1107501201955259  1.0000
  O   O6        1.0  0.1722864976655387  0.5869288243487318  0.8892305277870279  1.0000
  O   O7        1.0  0.057550146461572596  0.5706707453955531  0.191784310751288  1.0000
  O   O8        1.0  0.9424310455376388  0.4293186108483908  0.808215585744172  1.0000
