data_image0
_chemical_formula_structural       Cd2H32C40S8N8Cl4
_chemical_formula_sum              "Cd2 H32 C40 S8 N8 Cl4"
_cell_length_a       7.546692214109534
_cell_length_b       9.208392610110032
_cell_length_c       18.18170011919845
_cell_angle_alpha    89.99946207637184
_cell_angle_beta     90.00011421260068
_cell_angle_gamma    99.80334791346567

_space_group_name_H-M_alt    "P 1"
_space_group_IT_number       1

loop_
  _space_group_symop_operation_xyz
  'x, y, z'

loop_
  _atom_site_type_symbol
  _atom_site_label
  _atom_site_symmetry_multiplicity
  _atom_site_fract_x
  _atom_site_fract_y
  _atom_site_fract_z
  _atom_site_occupancy
  Cd  Cd1       1.0  0.9999995840781183  0.9999985806924129  0.4999998062644623  1.0000
  Cd  Cd2       1.0  6.82599569849925e-07  0.5000012450493118  0.9999993482155817  1.0000
  H   H1        1.0  0.5869546866269886  0.8861442339188558  0.5504340036899011  1.0000
  H   H2        1.0  0.5869541810196212  0.386146724364771  0.9495694906845601  1.0000
  H   H3        1.0  0.41304550095908615  0.11385364399811246  0.4495684214459956  1.0000
  H   H4        1.0  0.4130446824719343  0.6138511582746206  0.050431284440051606  1.0000
  H   H5        1.0  0.3765118857626106  0.6667699052386951  0.5967111897622175  1.0000
  H   H6        1.0  0.37651157309908  0.166774345113069  0.9032893257353011  1.0000
  H   H7        1.0  0.6234854190150898  0.33322688007500995  0.4032879353536458  1.0000
  H   H8        1.0  0.6234888491060745  0.8332246348570463  0.09671254939448913  1.0000
  H   H9        1.0  0.8133948136642742  0.4191032317016052  0.5770036882501657  1.0000
  H   H10       1.0  0.813396291259771  0.919109357575884  0.9229937896747984  1.0000
  H   H11       1.0  0.18660358058764367  0.5808924468617037  0.42299488686524  1.0000
  H   H12       1.0  0.18660304147042692  0.08089072915973361  0.07700698544474702  1.0000
  H   H13       1.0  0.008805414927280727  0.6546942272834003  0.5360401694460677  1.0000
  H   H14       1.0  0.008808039706295312  0.1546986488939268  0.9639589933407322  1.0000
  H   H15       1.0  0.9911927447060549  0.3453003492166928  0.463960055682584  1.0000
  H   H16       1.0  0.9911912930243929  0.8453014378316296  0.0360428817859528  1.0000
  H   H17       1.0  0.9045079111736885  0.4873167262637423  0.7083455165115566  1.0000
  H   H18       1.0  0.9045085666349094  0.9873219508851322  0.7916550122333064  1.0000
  H   H19       1.0  0.09549118693693266  0.5126822584288038  0.2916547086069485  1.0000
  H   H20       1.0  0.0954923248081414  0.012679233196315903  0.2083452128807011  1.0000
  H   H21       1.0  0.8543962237953906  0.5429322449357842  0.8410711242589742  1.0000
  H   H22       1.0  0.8543916351735774  0.042934556271511305  0.6589281867470405  1.0000
  H   H23       1.0  0.14560731583522116  0.4570689297310367  0.1589291008561702  1.0000
  H   H24       1.0  0.14561089860472987  0.95707434214674  0.3410720383492176  1.0000
  H   H25       1.0  0.36778626418852406  0.48553065116251304  0.8981988270214103  1.0000
  H   H26       1.0  0.3677777820171998  0.9855283551506988  0.6017990571322542  1.0000
  H   H27       1.0  0.6322188341542088  0.5144716208652367  0.1017991980774866  1.0000
  H   H28       1.0  0.6322211650955084  0.014476144504840197  0.3981995179622899  1.0000
  H   H29       1.0  0.4442224069505372  0.4306189065314783  0.7679944450753311  1.0000
  H   H30       1.0  0.4442196566493379  0.9306219266392047  0.7320037661305961  1.0000
  H   H31       1.0  0.5557782498717074  0.5693811755320725  0.2320024800197871  1.0000
  H   H32       1.0  0.555781469411798  0.06938035951554158  0.26799370896301883  1.0000
  C   C1        1.0  0.6330139243096014  0.7815473841353366  0.5595725825087217  1.0000
  C   C2        1.0  0.6330144999468461  0.2815489351618511  0.9404303508205346  1.0000
  C   C3        1.0  0.366987821989575  0.218451591122431  0.4404298426252141  1.0000
  C   C4        1.0  0.3669845981645211  0.7184500495155889  0.059571524308687215  1.0000
  C   C5        1.0  0.5163048409673436  0.6589554025229775  0.58554949497465  1.0000
  C   C6        1.0  0.5163043037365256  0.15895853596282453  0.9144522759148402  1.0000
  C   C7        1.0  0.48369511199867093  0.3410413733609873  0.4144512801530666  1.0000
  C   C8        1.0  0.4836945597557688  0.8410393466614607  0.085550149220488  1.0000
  C   C9        1.0  0.5807125095762871  0.5263363745475473  0.5931552885717579  1.0000
  C   C10       1.0  0.5807135242088748  0.026340744602002503  0.90684552072765  1.0000
  C   C11       1.0  0.41928479520215933  0.47366041075105164  0.4068454865548219  1.0000
  C   C12       1.0  0.4192853392834195  0.9736571380222898  0.09315690440767811  1.0000
  C   C13       1.0  0.7608901424119097  0.5224854973474748  0.5749238554496403  1.0000
  C   C14       1.0  0.7608924975556236  0.0224895288836038  0.9250754743672759  1.0000
  C   C15       1.0  0.23910981055360736  0.477511278546558  0.425075819670937  1.0000
  C   C16       1.0  0.23910769003045124  0.9775083490333714  0.0749269507686208  1.0000
  C   C17       1.0  0.8678981325967853  0.6516685846769121  0.5508746856505412  1.0000
  C   C18       1.0  0.8678991853042959  0.15167218056053136  0.9491257669003589  1.0000
  C   C19       1.0  0.13210049627569734  0.3483281959093318  0.4491266394801841  1.0000
  C   C20       1.0  0.13209991280731967  0.8483268041118704  0.0508766582324327  1.0000
  C   C21       1.0  0.17866941238069242  0.4518199843309604  0.7279941725583683  1.0000
  C   C22       1.0  0.17866802219495534  0.9518222673089413  0.7720042630973653  1.0000
  C   C23       1.0  0.8213299203482692  0.5481801024298392  0.272003852543321  1.0000
  C   C24       1.0  0.8213328692473567  0.04817891678762012  0.22799431200592582  1.0000
  C   C25       1.0  0.01091991457241193  0.48541660660797703  0.7487225560343873  1.0000
  C   C26       1.0  0.01091850572068152  0.9854192691182887  0.751277227383568  1.0000
  C   C27       1.0  0.9890796527766098  0.514584582185833  0.2512771190754819  1.0000
  C   C28       1.0  0.9890839444352295  0.014583012308996501  0.2487224477249015  1.0000
  C   C29       1.0  0.9820487993408235  0.515394016318119  0.8221016207958698  1.0000
  C   C30       1.0  0.9820439931824582  0.015394878264636699  0.6778979296441038  1.0000
  C   C31       1.0  0.017954740289297937  0.4846071583587702  0.1778975043121349  1.0000
  C   C32       1.0  0.01795783673787817  0.9846107140092714  0.3221022954597643  1.0000
  C   C33       1.0  0.2692952041310406  0.48466913451753163  0.8541825516875933  1.0000
  C   C34       1.0  0.26928855493048326  0.98466823193538  0.6458158034343455  1.0000
  C   C35       1.0  0.7307085701179047  0.5153331422175426  0.1458154734107282  1.0000
  C   C36       1.0  0.7307101575629105  0.015335165672041698  0.3541827716627353  1.0000
  C   C37       1.0  0.3115760190694701  0.45445601705948485  0.781817021856476  1.0000
  C   C38       1.0  0.31157146298855304  0.954457090866995  0.7181820634087472  1.0000
  C   C39       1.0  0.6884264310856948  0.5455462643829065  0.21818100324128412  1.0000
  C   C40       1.0  0.6884296630730802  0.0455451952776755  0.2818165116920142  1.0000
  S   S1        1.0  0.44968472263842324  0.35746870664809893  0.6217140223787609  1.0000
  S   S2        1.0  0.449687249446221  0.8574745444103299  0.8782856431696474  1.0000
  S   S3        1.0  0.5503123475197143  0.6425269766225269  0.3782845527360692  1.0000
  S   S4        1.0  0.5503131727579386  0.14252443557992928  0.12171403194586358  1.0000
  S   S5        1.0  0.19793791324348586  0.4035971899542972  0.6347312903686556  1.0000
  S   S6        1.0  0.1979384003771045  0.9035999646296202  0.8652684921126765  1.0000
  S   S7        1.0  0.8020596261532942  0.5964006974125552  0.3652672847411012  1.0000
  S   S8        1.0  0.802060463113456  0.0963979180299148  0.1347300829976561  1.0000
  N   N1        1.0  0.8061005999685379  0.7795557938447076  0.5430291029094151  1.0000
  N   N2        1.0  0.8061011905033126  0.27955704196239145  0.956972886064513  1.0000
  N   N3        1.0  0.1938993529979669  0.22044098202918155  0.45697277222544846  1.0000
  N   N4        1.0  0.19389790760830292  0.7204419427100035  0.0430295390682787  1.0000
  N   N5        1.0  0.1074262009409139  0.5129863123087262  0.8744951475663498  1.0000
  N   N6        1.0  0.1074166714607969  0.012984841585137  0.6255036759834242  1.0000
  N   N7        1.0  0.8925791320216376  0.4870170617570651  0.1255039775371571  1.0000
  N   N8        1.0  0.8925822756524084  0.9870196580603262  0.37449599911826686  1.0000
  Cl  Cl1       1.0  0.7518329752795623  0.1527922283390168  0.5362743343962819  1.0000
  Cl  Cl2       1.0  0.7518366685026691  0.6527953949211209  0.9637243647853069  1.0000
  Cl  Cl3       1.0  0.24816612283056122  0.8472067563635973  0.46372479071508377  1.0000
  Cl  Cl4       1.0  0.2481639883210605  0.34720468711221736  0.0362758603312372  1.0000
