data_image0
_chemical_formula_structural       Fe4Ag8H40C64N40
_chemical_formula_sum              "Fe4 Ag8 H40 C64 N40"
_cell_length_a       12.67877252150972
_cell_length_b       15.760621331705504
_cell_length_c       16.7626767282178
_cell_angle_alpha    109.46149095582554
_cell_angle_beta     111.32663920995233
_cell_angle_gamma    89.97398298487957

_space_group_name_H-M_alt    "P 1"
_space_group_IT_number       1

loop_
  _space_group_symop_operation_xyz
  'x, y, z'

loop_
  _atom_site_type_symbol
  _atom_site_label
  _atom_site_symmetry_multiplicity
  _atom_site_fract_x
  _atom_site_fract_y
  _atom_site_fract_z
  _atom_site_occupancy
  Fe  Fe1       1.0  0.2987186573025867  0.5302046389860068  0.5995832424841582  1.0000
  Fe  Fe2       1.0  0.7012788019384145  0.4697932632520648  0.4004155920771951  1.0000
  Fe  Fe3       1.0  0.8083072353734265  0.035901574262425115  0.6157322845917435  1.0000
  Fe  Fe4       1.0  0.19169009513246488  0.9640956335495048  0.3842668800518397  1.0000
  Ag  Ag1       1.0  0.5411545370042673  0.7901606599863983  0.6061161844737201  1.0000
  Ag  Ag2       1.0  0.4588465240867733  0.209833828302358  0.3938819087200827  1.0000
  Ag  Ag3       1.0  0.5618317869337445  0.29023307840488144  0.6073849647372995  1.0000
  Ag  Ag4       1.0  0.43815914303608133  0.7097615659306272  0.3926074069260963  1.0000
  Ag  Ag5       1.0  0.036449756482610986  0.7701080265768426  0.5979327868269024  1.0000
  Ag  Ag6       1.0  0.96355520927041  0.22989383657795778  0.40207182035730676  1.0000
  Ag  Ag7       1.0  0.06276675743782079  0.27311499836103087  0.6019267064154905  1.0000
  Ag  Ag8       1.0  0.9372327280785413  0.7268847147459142  0.39808164298702325  1.0000
  H   H1        1.0  0.6633114943854962  0.7159543776476055  0.07391734856633284  1.0000
  H   H2        1.0  0.3366916695962843  0.2840468958358003  0.9260835825706482  1.0000
  H   H3        1.0  0.6438434224335693  0.806516650658928  0.04474494843423568  1.0000
  H   H4        1.0  0.3561581702749308  0.19348528483325111  0.9552569638206452  1.0000
  H   H5        1.0  0.920192823190888  0.22493457753665783  0.09345073329375005  1.0000
  H   H6        1.0  0.07981144077301389  0.7750680629043531  0.9065503591146894  1.0000
  H   H7        1.0  0.9089897897262632  0.3158548255557606  0.06454863760374256  1.0000
  H   H8        1.0  0.09101460297274852  0.6841485093113918  0.9354521247224599  1.0000
  H   H9        1.0  0.18327167805157532  0.562734084834098  0.7257196126121032  1.0000
  H   H10       1.0  0.8167278464247189  0.4372658264103536  0.2742810562032076  1.0000
  H   H11       1.0  0.23099257221713287  0.6441001015051457  0.8913299152572166  1.0000
  H   H12       1.0  0.7690105887677275  0.35590115673690553  0.10867160669415912  1.0000
  H   H13       1.0  0.5804094245704475  0.7013032933998032  0.9196188790465456  1.0000
  H   H14       1.0  0.41959096339617474  0.29869670263939  0.08037847550389904  1.0000
  H   H15       1.0  0.5190937593671948  0.6181456189676313  0.7574161163252883  1.0000
  H   H16       1.0  0.48090336930543015  0.3818550676283508  0.2425811672855929  1.0000
  H   H17       1.0  0.43644509779099383  0.9278874424168182  0.2925027746470121  1.0000
  H   H18       1.0  0.5635533416877718  0.07211117807675291  0.707494778824838  1.0000
  H   H19       1.0  0.5564732888765178  0.010413144348021298  0.4569854704637706  1.0000
  H   H20       1.0  0.4435253990817144  0.9895868192738037  0.543013195286811  1.0000
  H   H21       1.0  0.8482030324893655  0.9149337481584255  0.4245789487757959  1.0000
  H   H22       1.0  0.1517964979807616  0.08506619356872139  0.575420538410718  1.0000
  H   H23       1.0  0.7411027287396479  0.8270738045463375  0.2583598328206237  1.0000
  H   H24       1.0  0.2588966729953767  0.17292544275466787  0.7416399844481277  1.0000
  H   H25       1.0  0.4118435566249373  0.5010916372673365  0.47205618153732604  1.0000
  H   H26       1.0  0.5881556133076415  0.4989109364042577  0.5279476628427133  1.0000
  H   H27       1.0  0.3662226622979502  0.419507556322678  0.3075978229758007  1.0000
  H   H28       1.0  0.6337829817891532  0.5805025399097659  0.6924067283008456  1.0000
  H   H29       1.0  0.01840945698236139  0.35451294198460204  0.2759465065267079  1.0000
  H   H30       1.0  0.981593482495292  0.6454871103013246  0.7240485858163412  1.0000
  H   H31       1.0  0.0786848675471603  0.43982839382162103  0.4423738579294323  1.0000
  H   H32       1.0  0.9213133234521322  0.5601688835437102  0.5576225832636866  1.0000
  H   H33       1.0  0.1646382987022363  0.14738947765770402  0.9029189456218634  1.0000
  H   H34       1.0  0.8353626653153086  0.852609061910485  0.09708166297219385  1.0000
  H   H35       1.0  0.047137600419617294  0.06386269975669022  0.7389117026163279  1.0000
  H   H36       1.0  0.9528609498127524  0.93613652371495  0.2610890656596895  1.0000
  H   H37       1.0  0.7476824802318305  0.1306391446060147  0.7781179863871729  1.0000
  H   H38       1.0  0.2523197411676392  0.8693661868101545  0.2218852295285246  1.0000
  H   H39       1.0  0.8485497545928735  0.21512782129665453  0.9389348436761509  1.0000
  H   H40       1.0  0.1514531925710543  0.7848768547640718  0.06106716050011569  1.0000
  C   C1        1.0  0.26988027032583517  0.594648215642934  0.771746773664546  1.0000
  C   C2        1.0  0.7301176978617718  0.4053524338170292  0.22825192219666232  1.0000
  C   C3        1.0  0.29714603361566827  0.6403534559647783  0.8640309930910207  1.0000
  C   C4        1.0  0.7028556878279488  0.3596491739535424  0.13597058908161594  1.0000
  C   C5        1.0  0.4093881160653082  0.6829555225284524  0.9226139393145376  1.0000
  C   C6        1.0  0.5906125233776932  0.3170458318803356  0.07738393670023669  1.0000
  C   C7        1.0  0.4907306640060155  0.6726689426747543  0.8823609817806073  1.0000
  C   C8        1.0  0.5092709466839977  0.3273330842655041  0.11763738558786944  1.0000
  C   C9        1.0  0.4567766950365382  0.6247668789288952  0.7888110207770753  1.0000
  C   C10       1.0  0.5432222563857464  0.37523450402790814  0.21118580318023558  1.0000
  C   C11       1.0  0.4284435023703209  0.7350991183298419  0.01772394521663049  1.0000
  C   C12       1.0  0.5715578538463859  0.26490153499947416  0.9822744915019118  1.0000
  C   C13       1.0  0.5024515886556813  0.8173135606360875  0.16590289583716364  1.0000
  C   C14       1.0  0.4975484071117648  0.18268432164198598  0.8340966305887891  1.0000
  C   C15       1.0  0.57803824612391  0.8690356970803139  0.2607838291317179  1.0000
  C   C16       1.0  0.42195980714951986  0.13096084013483283  0.7392147145868436  1.0000
  C   C17       1.0  0.5271660212427919  0.9226109604124916  0.3186265874217824  1.0000
  C   C18       1.0  0.4728324062483011  0.07738759911569562  0.6813733293076681  1.0000
  C   C19       1.0  0.5937520833061142  0.9687841708535887  0.4105702023951635  1.0000
  C   C20       1.0  0.406246230434455  0.031213770455188698  0.5894270903445219  1.0000
  C   C21       1.0  0.7565846832667518  0.9157399330265648  0.3923238134599742  1.0000
  C   C22       1.0  0.2434136244799845  0.084257977799524  0.607674660908508  1.0000
  C   C23       1.0  0.6962280979156715  0.8666366058180587  0.2992542895609561  1.0000
  C   C24       1.0  0.3037713008224329  0.1333626262415919  0.7007461185221899  1.0000
  C   C25       1.0  0.32598407463975576  0.46735711832161553  0.4264718478600358  1.0000
  C   C26       1.0  0.6740157043098376  0.5326441665337782  0.5735287516052097  1.0000
  C   C27       1.0  0.2995840498424656  0.4217129214024952  0.33418678719165484  1.0000
  C   C28       1.0  0.7004192745360384  0.5782937922126267  0.6658159991811063  1.0000
  C   C29       1.0  0.18797613084165474  0.3779408645004808  0.2761014535739506  1.0000
  C   C30       1.0  0.8120285163306559  0.6220638439776139  0.7238992394021794  1.0000
  C   C31       1.0  0.10668388165311879  0.38581543322326445  0.31624553714542  1.0000
  C   C32       1.0  0.8933192973132474  0.614185916466873  0.6837524399195586  1.0000
  C   C33       1.0  0.13995187416372798  0.4336394780782627  0.4098103553501532  1.0000
  C   C34       1.0  0.8600464365799212  0.566358447989174  0.5901875282039344  1.0000
  C   C35       1.0  0.16854858477784518  0.3264758609602437  0.18047916261662778  1.0000
  C   C36       1.0  0.831455942650109  0.6735281988157452  0.8195200879985407  1.0000
  C   C37       1.0  0.09539229520976988  0.24398649788532373  0.032212925130132  1.0000
  C   C38       1.0  0.9046108717689308  0.7560147908394229  0.9677874151924473  1.0000
  C   C39       1.0  0.020027395582829403  0.19130925909291827  0.9381965315490107  1.0000
  C   C40       1.0  0.9799732318725063  0.8086920343504856  0.06180370772336362  1.0000
  C   C41       1.0  0.07236114620553019  0.14532723572717285  0.8778713125820802  1.0000
  C   C42       1.0  0.9276375357588691  0.8546726974119637  0.12212853479729778  1.0000
  C   C43       1.0  0.007747001574152495  0.0984903617823178  0.786433573490456  1.0000
  C   C44       1.0  0.9922508348814246  0.9015095780101491  0.21356604326739156  1.0000
  C   C45       1.0  0.8401605872953792  0.1346708042458857  0.8075249014545918  1.0000
  C   C46       1.0  0.1598396916100668  0.8653331821073567  0.1924773317537074  1.0000
  C   C47       1.0  0.8999559241035439  0.18351417386776353  0.9003449724906859  1.0000
  C   C48       1.0  0.10004508056636038  0.8164891571300362  0.09965604897818287  1.0000
  C   C49       1.0  0.44787300681090864  0.6839237010572603  0.602172573446289  1.0000
  C   C50       1.0  0.5521251632099649  0.3160734696186438  0.3978280034476286  1.0000
  C   C51       1.0  0.12429437533337757  0.662823015275798  0.5916286261145913  1.0000
  C   C52       1.0  0.8757050353924  0.3371762777492436  0.40836941871095433  1.0000
  C   C53       1.0  0.1538160045876253  0.3798989664387876  0.6052145236773256  1.0000
  C   C54       1.0  0.8461844611665015  0.6201014649236641  0.3947925446356849  1.0000
  C   C55       1.0  0.47442484984053823  0.39796549390694497  0.6137234938340513  1.0000
  C   C56       1.0  0.5255724836622732  0.602031729146333  0.3862750799951371  1.0000
  C   C57       1.0  0.6524031634444042  0.18512587251584023  0.6107889709018438  1.0000
  C   C58       1.0  0.3475854528106622  0.8148654196850346  0.3892004542288562  1.0000
  C   C59       1.0  0.9707192651787719  0.16864855565035697  0.6016171907282271  1.0000
  C   C60       1.0  0.029281068843324876  0.8313511660446053  0.3983907984814223  1.0000
  C   C61       1.0  0.9549321051526931  0.8808439880865182  0.6088621129363575  1.0000
  C   C62       1.0  0.04506848933654339  0.1191571377020821  0.391144625294416  1.0000
  C   C63       1.0  0.6408562833044867  0.8983410181231265  0.62006616185424  1.0000
  C   C64       1.0  0.35914453230400767  0.10165214227873073  0.37993022824642964  1.0000
  N   N1        1.0  0.3480834638001085  0.5872518849789687  0.7330283745179145  1.0000
  N   N2        1.0  0.6519163181464052  0.4127494151177729  0.26697163413292907  1.0000
  N   N3        1.0  0.3435083876374421  0.751940532588094  0.04753919412738119  1.0000
  N   N4        1.0  0.656491148826518  0.24805943962174132  0.9524591114303295  1.0000
  N   N5        1.0  0.38926895022262187  0.8024925609174575  0.13890524657166736  1.0000
  N   N6        1.0  0.6107302030329294  0.19750534325529404  0.8610934584183526  1.0000
  N   N7        1.0  0.5306832100136275  0.7757641556434793  0.09102917824429108  1.0000
  N   N8        1.0  0.4693169144889352  0.22423442106073574  0.9089700180994245  1.0000
  N   N9        1.0  0.6419318098204627  0.7801908629099831  0.09239585289308394  1.0000
  N   N10       1.0  0.3580695344085782  0.2198097294539423  0.9076049470830583  1.0000
  N   N11       1.0  0.7061747357977595  0.9649483245912692  0.4467629451793727  1.0000
  N   N12       1.0  0.29382575393170646  0.035052228701957205  0.5532393966184446  1.0000
  N   N13       1.0  0.24835609186169447  0.4728988358820914  0.4652635009715312  1.0000
  N   N14       1.0  0.7516441583790578  0.5271004200069244  0.534735956104349  1.0000
  N   N15       1.0  0.25368072563320965  0.31096338103841265  0.15078584807699266  1.0000
  N   N16       1.0  0.7463236730596349  0.6890399843114354  0.8492137326204132  1.0000
  N   N17       1.0  0.20875230688652377  0.2603048917161814  0.059504311303413715  1.0000
  N   N18       1.0  0.7912515828597151  0.7396957264117816  0.9404954080941297  1.0000
  N   N19       1.0  0.06688509103456398  0.2853100607608284  0.10718081721260832  1.0000
  N   N20       1.0  0.933120272911459  0.7146939466377872  0.8928204364672965  1.0000
  N   N21       1.0  0.9584153766014649  0.28934172028996136  0.11142402369956984  1.0000
  N   N22       1.0  0.041589861606361474  0.7106616079238535  0.8885769692481632  1.0000
  N   N23       1.0  0.8919256363660037  0.09337603184462043  0.7499150752468041  1.0000
  N   N24       1.0  0.1080716000633046  0.906625242488083  0.2500860139826386  1.0000
  N   N25       1.0  0.39361130361575647  0.6226750130174281  0.6004019243109868  1.0000
  N   N26       1.0  0.6063843298786651  0.3773221776184813  0.39959796071833154  1.0000
  N   N27       1.0  0.18316488978337728  0.6055318072011178  0.5882921003229313  1.0000
  N   N28       1.0  0.8168314754693426  0.39446475856204444  0.4117053913381526  1.0000
  N   N29       1.0  0.20507973894049766  0.4387820822115883  0.600734413664668  1.0000
  N   N30       1.0  0.7949187993041986  0.5612170802946681  0.39926871786894946  1.0000
  N   N31       1.0  0.41475571389807436  0.45469080264921763  0.612164415570895  1.0000
  N   N32       1.0  0.5852427075991855  0.5453077263962811  0.3878366827873593  1.0000
  N   N33       1.0  0.7086402896617939  0.12625892258223104  0.6134384339886695  1.0000
  N   N34       1.0  0.29135219959363917  0.8737349987791136  0.38655531981442703  1.0000
  N   N35       1.0  0.9102012551203414  0.11216021639899763  0.601135180425274  1.0000
  N   N36       1.0  0.08979812863316987  0.8878389394539213  0.39886818172987404  1.0000
  N   N37       1.0  0.9022236533653823  0.942076096293718  0.6101491666071156  1.0000
  N   N38       1.0  0.09777475614420439  0.057922371786396795  0.3898542950087389  1.0000
  N   N39       1.0  0.7019411104265457  0.9564310392052848  0.623487683025445  1.0000
  N   N40       1.0  0.29805583986784956  0.04356411581090212  0.37651129023605284  1.0000
