data_image0
_chemical_formula_structural       CdH26C34Br2N10O4
_chemical_formula_sum              "Cd1 H26 C34 Br2 N10 O4"
_cell_length_a       8.393528490721417
_cell_length_b       9.164494036326076
_cell_length_c       11.911593535944979
_cell_angle_alpha    78.35422523989102
_cell_angle_beta     75.34793170105814
_cell_angle_gamma    87.02503778518648

_space_group_name_H-M_alt    "P 1"
_space_group_IT_number       1

loop_
  _space_group_symop_operation_xyz
  'x, y, z'

loop_
  _atom_site_type_symbol
  _atom_site_label
  _atom_site_symmetry_multiplicity
  _atom_site_fract_x
  _atom_site_fract_y
  _atom_site_fract_z
  _atom_site_occupancy
  Cd  Cd1       1.0  0.5000023483924281  0.5000002710477035  0.999999573837634  1.0000
  H   H1        1.0  0.1898142973877484  0.7921403040354349  0.636174636749722  1.0000
  H   H2        1.0  0.8101863681601387  0.20785859211843422  0.3638277567557752  1.0000
  H   H3        1.0  0.948092677497421  0.6951231132095046  0.5796038270050232  1.0000
  H   H4        1.0  0.05190798953498899  0.3048746221203444  0.4203953974447288  1.0000
  H   H5        1.0  0.327960394166645  0.6411764693037156  0.7833411139184392  1.0000
  H   H6        1.0  0.672041497457883  0.3588246327598554  0.21665902170722265  1.0000
  H   H7        1.0  0.24485252525423826  0.11542072799471012  0.7588297095614323  1.0000
  H   H8        1.0  0.7551432072124838  0.8845815054010515  0.2411730192080271  1.0000
  H   H9        1.0  0.3168932767524097  0.0894423695088733  0.9527818080528974  1.0000
  H   H10       1.0  0.683102458395453  0.910558761542049  0.04722193972510526  1.0000
  H   H11       1.0  0.40882526991589424  0.837540556750696  0.04756625431544142  1.0000
  H   H12       1.0  0.5911741610332798  0.1624594171363043  0.9524336648185497  1.0000
  H   H13       1.0  0.360198224159106  0.1398056100515461  0.3191483053168227  1.0000
  H   H14       1.0  0.6398024382289903  0.8601943650554844  0.6808513939544129  1.0000
  H   H15       1.0  0.25664765772211956  0.0809336428944576  0.1533596891947582  1.0000
  H   H16       1.0  0.7433493059442071  0.9190685800254955  0.8466419820990867  1.0000
  H   H17       1.0  0.06683845036596378  0.8578717906831699  0.19738512835201044  1.0000
  H   H18       1.0  0.9331585179446764  0.1421281924596016  0.8026160681203508  1.0000
  H   H19       1.0  0.7857417530935109  0.5997820338714065  0.7653736198960105  1.0000
  H   H20       1.0  0.2142613741356172  0.40021680624334977  0.23462414581968724  1.0000
  H   H21       1.0  0.4029340882575029  0.3106717944274635  0.8106338636434032  1.0000
  H   H22       1.0  0.5970665719281029  0.6893293064160773  0.18936649184501422  1.0000
  H   H23       1.0  0.4780039141608868  0.2969815542633114  0.5948671576994613  1.0000
  H   H24       1.0  0.5219967484665348  0.7030184325395582  0.4051333791846404  1.0000
  H   H25       1.0  0.709174503731859  0.46019071131579636  0.45694332965616263  1.0000
  H   H26       1.0  0.29082616109806037  0.5398081497505631  0.5430565510107641  1.0000
  C   C1        1.0  0.3276335399228429  0.7436217353232096  0.8170901796901474  1.0000
  C   C2        1.0  0.6723646547037633  0.25638046542511006  0.18290959651522345  1.0000
  C   C3        1.0  0.28398670085796607  0.8804129105620008  0.7548753018707471  1.0000
  C   C4        1.0  0.7160127278887105  0.11958818906150977  0.24512527348041854  1.0000
  C   C5        1.0  0.28119369822006496  0.007832136534915404  0.8033986248192804  1.0000
  C   C6        1.0  0.718802036449155  0.9921689711243361  0.19660344773300412  1.0000
  C   C7        1.0  0.3233640808161056  0.9927050896292614  0.9110545778365379  1.0000
  C   C8        1.0  0.6766316511719735  0.0072971203748295015  0.08894647570719634  1.0000
  C   C9        1.0  0.370491139768653  0.8535621854382852  0.9650289307615196  1.0000
  C   C10       1.0  0.629504592219419  0.1464400245657984  0.034972122782221594  1.0000
  C   C11       1.0  0.28277735023937817  0.9931932364881393  0.5481296724852811  1.0000
  C   C12       1.0  0.7172220833909365  0.006805635054028904  0.4518712656572532  1.0000
  C   C13       1.0  0.22394422723704824  0.9598919337814282  0.4466642012479127  1.0000
  C   C14       1.0  0.7760601343514679  0.04010581690435091  0.553335201226439  1.0000
  C   C15       1.0  0.2768038303994871  0.047059601531160004  0.33344279857353604  1.0000
  C   C16       1.0  0.7231980685505023  0.9529381584103974  0.6665578812391857  1.0000
  C   C17       1.0  0.2206274337095451  0.011566840431584104  0.24165882440158276  1.0000
  C   C18       1.0  0.7793732289178764  0.9884331463712785  0.7583417124825189  1.0000
  C   C19       1.0  0.1136301770372228  0.8913209471900886  0.26574124247539993  1.0000
  C   C20       1.0  0.8863692539119512  0.10867902669691182  0.734258676658591  1.0000
  C   C21       1.0  0.0634391280655748  0.8133772896191401  0.38225917976291873  1.0000
  C   C22       1.0  0.9365627679639489  0.18662156097141747  0.6177396434283864  1.0000
  C   C23       1.0  0.9383155154874459  0.6898794700483818  0.41465099888576157  1.0000
  C   C24       1.0  0.06168638030275281  0.3101193688463368  0.5853469866926915  1.0000
  C   C25       1.0  0.7631773558968932  0.5440548877550172  0.5999693111514759  1.0000
  C   C26       1.0  0.2368245452555868  0.45594174645002267  0.40003071244407107  1.0000
  C   C27       1.0  0.7191274118226261  0.5363069298067488  0.7229196859310818  1.0000
  C   C28       1.0  0.2808744842068975  0.4636919207838019  0.27707913726023053  1.0000
  C   C29       1.0  0.5082334214545199  0.3710163242057334  0.7484531480298315  1.0000
  C   C30       1.0  0.491768472372506  0.6289836521213344  0.25154633137864835  1.0000
  C   C31       1.0  0.5483092401979944  0.3676724200560599  0.6281924970743092  1.0000
  C   C32       1.0  0.451692656310172  0.6323264539261685  0.3718080013427213  1.0000
  C   C33       1.0  0.6764830445741128  0.45623491116779746  0.5518064712993649  1.0000
  C   C34       1.0  0.3235200904591125  0.5437606102166087  0.4481935138291107  1.0000
  Br  Br1       1.0  0.7807037075385211  0.6503588920844907  0.9759270719414842  1.0000
  Br  Br2       1.0  0.21929201128318004  0.3496488413396221  0.024069724172385124  1.0000
  N   N1        1.0  0.3724634918535656  0.7313146222631985  0.9185739836255706  1.0000
  N   N2        1.0  0.6275359320094793  0.2686887054416617  0.08142622893421958  1.0000
  N   N3        1.0  0.24394163128199864  0.8835305872851932  0.6471618184648732  1.0000
  N   N4        1.0  0.7560577977040026  0.11647052403415613  0.3528395944991516  1.0000
  N   N5        1.0  0.11832734187694881  0.8466567253346539  0.47066725124908976  1.0000
  N   N6        1.0  0.8816733278366018  0.15333990765035577  0.5293329922092055  1.0000
  N   N7        1.0  0.8907943132414716  0.6400401264868522  0.5342577373602636  1.0000
  N   N8        1.0  0.10920635110979761  0.35995871118782924  0.4657404680809449  1.0000
  N   N9        1.0  0.593529294956042  0.4537117716385027  0.7948473356638955  1.0000
  N   N10       1.0  0.406472599110309  0.5462882163844043  0.20515298135745041  1.0000
  O   O1        1.0  0.35775112535941406  0.10908123005238932  0.5397228789960167  1.0000
  O   O2        1.0  0.6422507733512433  0.8909165181933292  0.4602769632038388  1.0000
  O   O3        1.0  0.8863216044549703  0.6440934291448459  0.33977203667706135  1.0000
  O   O4        1.0  0.11367906013562393  0.3559054202256746  0.6602270063770064  1.0000
