data_image0
_chemical_formula_structural       Zn4H48C56N16O16
_chemical_formula_sum              "Zn4 H48 C56 N16 O16"
_cell_length_a       6.794773854956103
_cell_length_b       11.914788256030025
_cell_length_c       18.623068653973842
_cell_angle_alpha    89.99976186950649
_cell_angle_beta     99.84451079418916
_cell_angle_gamma    90.00013599758206

_space_group_name_H-M_alt    "P 1"
_space_group_IT_number       1

loop_
  _space_group_symop_operation_xyz
  'x, y, z'

loop_
  _atom_site_type_symbol
  _atom_site_label
  _atom_site_symmetry_multiplicity
  _atom_site_fract_x
  _atom_site_fract_y
  _atom_site_fract_z
  _atom_site_occupancy
  Zn  Zn1       1.0  0.22331644473957368  0.2064189302868371  0.35902527956607594  1.0000
  Zn  Zn2       1.0  0.22331105892855158  0.2935795729833259  0.8590245474654663  1.0000
  Zn  Zn3       1.0  0.7766967798806803  0.7935853414629718  0.6409775733257134  1.0000
  Zn  Zn4       1.0  0.7766842390400298  0.7064179844113524  0.14097771507497464  1.0000
  H   H1        1.0  0.5547425710367193  0.3877568229045139  0.3600866619986077  1.0000
  H   H2        1.0  0.554735151871114  0.11223959781035117  0.8600819875551406  1.0000
  H   H3        1.0  0.4452631975882896  0.6122466095592003  0.6399125002053907  1.0000
  H   H4        1.0  0.4452526984752225  0.8877537631326928  0.13991443695266526  1.0000
  H   H5        1.0  0.9146342857494717  0.8519177788082783  0.446551331105013  1.0000
  H   H6        1.0  0.9146344283453446  0.6480736696378244  0.9465513328285052  1.0000
  H   H7        1.0  0.08536103107380909  0.1480822964815545  0.5534460998971296  1.0000
  H   H8        1.0  0.08535490734280418  0.35192472705772815  0.05344733295515169  1.0000
  H   H9        1.0  0.28821556197230075  0.2838445430483673  0.635709432834531  1.0000
  H   H10       1.0  0.2882150091004547  0.21616221545444594  0.13570815472235145  1.0000
  H   H11       1.0  0.7117976521791219  0.7161622465721039  0.36429610424038816  1.0000
  H   H12       1.0  0.7117773244990176  0.7838454134757316  0.8642880147298654  1.0000
  H   H13       1.0  0.8092979253533131  0.4655473337390744  0.7353454677229931  1.0000
  H   H14       1.0  0.8092863589653662  0.034449399669824694  0.23534397927530645  1.0000
  H   H15       1.0  0.19071977622100889  0.5344611344749879  0.2646587406373299  1.0000
  H   H16       1.0  0.190702989292582  0.9655506756224953  0.7646514654828207  1.0000
  H   H17       1.0  0.905068100855246  0.4946066413749292  0.6132692208400669  1.0000
  H   H18       1.0  0.905056443212075  0.005391014809077898  0.11326834074554165  1.0000
  H   H19       1.0  0.0949406447241259  0.5053984696676892  0.3867328134142267  1.0000
  H   H20       1.0  0.09492841762297388  0.9946073818896506  0.8867284327271744  1.0000
  H   H21       1.0  0.6910510886085389  0.4177049475397467  0.502364817829033  1.0000
  H   H22       1.0  0.6910456459651543  0.08229650249563752  0.0023630505270233115  1.0000
  H   H23       1.0  0.3089457051809745  0.5823018420818755  0.49763700179587983  1.0000
  H   H24       1.0  0.3089362295309499  0.9176960191515064  0.9976329982495354  1.0000
  H   H25       1.0  0.8545491000716011  0.28860269772182795  0.43198641297126966  1.0000
  H   H26       1.0  0.8545464599851798  0.211389458330828  0.9319833868185579  1.0000
  H   H27       1.0  0.1454536685642864  0.7114024133162856  0.5680157823879879  1.0000
  H   H28       1.0  0.14543539666008337  0.7886030633005701  0.06801749349320117  1.0000
  H   H29       1.0  0.6024356233128146  0.43094814814133287  0.22822820671103727  1.0000
  H   H30       1.0  0.6024295695319992  0.06905255208140909  0.7282226588178415  1.0000
  H   H31       1.0  0.39757462853958  0.569052766446802  0.7717707004580274  1.0000
  H   H32       1.0  0.39757322003509893  0.9309433267496984  0.2717741681803289  1.0000
  H   H33       1.0  0.971351303010877  0.3344204820751173  0.2188080481236127  1.0000
  H   H34       1.0  0.9713485244524448  0.165581611029701  0.7188045978822897  1.0000
  H   H35       1.0  0.0286693922638079  0.6655829503867565  0.7811947375973174  1.0000
  H   H36       1.0  0.028654237892105503  0.8344184642443437  0.2811992079949021  1.0000
  H   H37       1.0  0.8445039933440127  0.0380075827522646  0.37149053078847055  1.0000
  H   H38       1.0  0.8445080949150424  0.4619891503302397  0.8714878004670366  1.0000
  H   H39       1.0  0.1554927857863149  0.9620008854433805  0.6285150466950922  1.0000
  H   H40       1.0  0.1554886967606208  0.5380050498925897  0.12851455601061446  1.0000
  H   H41       1.0  0.28360545127761577  0.8180534360436269  0.4841176068506384  1.0000
  H   H42       1.0  0.28360119779213727  0.6819386043435786  0.9841220749668124  1.0000
  H   H43       1.0  0.7163884032437692  0.18194160351293934  0.5158716776659558  1.0000
  H   H44       1.0  0.7163866504751084  0.31806482811534653  0.015874886365843086  1.0000
  H   H45       1.0  0.4704942591821037  0.9999260438869654  0.4293067809979901  1.0000
  H   H46       1.0  0.47049842460563696  0.500072477875456  0.9293085024454797  1.0000
  H   H47       1.0  0.529498068119594  7.235281346139998e-05  0.5706909989773192  1.0000
  H   H48       1.0  0.5294998649855032  0.49993095457605835  0.0706928742793878  1.0000
  C   C1        1.0  0.4764175646247891  0.344439356033199  0.5617299378288791  1.0000
  C   C2        1.0  0.4764138404919649  0.1555614210162304  0.06172808414887497  1.0000
  C   C3        1.0  0.5235851893531985  0.6555682728720739  0.43827601538799127  1.0000
  C   C4        1.0  0.5235844742117378  0.8444277434729629  0.9382668505466111  1.0000
  C   C5        1.0  0.4237759096961753  0.3292864988115767  0.6304695112985854  1.0000
  C   C6        1.0  0.4237722341515919  0.17071459964387264  0.13046708348866787  1.0000
  C   C7        1.0  0.5762298317024204  0.6707186122156658  0.3695366297875323  1.0000
  C   C8        1.0  0.5762171120040946  0.8292804398878884  0.8695288981129036  1.0000
  C   C9        1.0  0.5431912878818466  0.371805804445792  0.6929968088019932  1.0000
  C   C10       1.0  0.5431874797812098  0.12819504615142557  0.19299502247269365  1.0000
  C   C11       1.0  0.4568144514209251  0.6281984672865663  0.3070098691224031  1.0000
  C   C12       1.0  0.45680484333141175  0.8718033505455055  0.8070038311771055  1.0000
  C   C13       1.0  0.7170273793546401  0.4316987390454301  0.6865022719194512  1.0000
  C   C14       1.0  0.7170129294007737  0.06829902861699107  0.18650051230051898  1.0000
  C   C15       1.0  0.2829798641330612  0.5683055326963639  0.3135018157517918  1.0000
  C   C16       1.0  0.2829704440030838  0.9316976895000264  0.813494556729452  1.0000
  C   C17       1.0  0.7703191924111935  0.4477118711123892  0.6180860286008636  1.0000
  C   C18       1.0  0.770306191226659  0.05228641320498179  0.11808332864934805  1.0000
  C   C19       1.0  0.22968506993821344  0.5522940792195428  0.3819162606904385  1.0000
  C   C20       1.0  0.2296756905569168  0.9477086263268149  0.8819111096123748  1.0000
  C   C21       1.0  0.6507458084898089  0.4042878064323859  0.5558473507465392  1.0000
  C   C22       1.0  0.6507359258740736  0.09571156294385469  0.05584526862732989  1.0000
  C   C23       1.0  0.34925546224347664  0.5957164653083994  0.444155824355171  1.0000
  C   C24       1.0  0.34924744961273296  0.9042776015366839  0.9441492635746939  1.0000
  C   C25       1.0  0.3466361688649827  0.2929975255643881  0.4969269842325018  1.0000
  C   C26       1.0  0.3466305299804091  0.2070052799712911  0.9969232441792851  1.0000
  C   C27       1.0  0.653377026430455  0.7070059068677922  0.5030833843817462  1.0000
  C   C28       1.0  0.6533618161669779  0.7929897595723432  0.003069704264952109  1.0000
  C   C29       1.0  0.48206100626361353  0.3551656997712769  0.7661442967553851  1.0000
  C   C30       1.0  0.48205127855617746  0.1448329143197  0.26614102006957546  1.0000
  C   C31       1.0  0.5179507162585253  0.644833536212026  0.23386060955850493  1.0000
  C   C32       1.0  0.517942548746518  0.8551688395592195  0.7338552433229422  1.0000
  C   C33       1.0  0.8378263662693827  0.3141350067239088  0.37557916578666806  1.0000
  C   C34       1.0  0.8378236541281155  0.18585833365131066  0.8755745919576083  1.0000
  C   C35       1.0  0.16218237721416529  0.6858692650238322  0.6244234053059114  1.0000
  C   C36       1.0  0.1621671731700118  0.8141350272843652  0.12442470460256055  1.0000
  C   C37       1.0  0.7106618700170915  0.38830528354370836  0.26850556483382343  1.0000
  C   C38       1.0  0.7106574324065774  0.1116927809049599  0.768502153278767  1.0000
  C   C39       1.0  0.2893573336334541  0.6116939524535496  0.7314965901219564  1.0000
  C   C40       1.0  0.2893423655443996  0.8883014193349933  0.23149555952981865  1.0000
  C   C41       1.0  0.8924588442471729  0.34055299548128193  0.2645388539450621  1.0000
  C   C42       1.0  0.8924575405789386  0.15944533737463468  0.7645355127339926  1.0000
  C   C43       1.0  0.1075483908623696  0.6594512762535202  0.7354673810751604  1.0000
  C   C44       1.0  0.10754523223315  0.8405513807356116  0.2354656089611068  1.0000
  C   C45       1.0  0.9906300389607735  0.003959160837212  0.3946662384478542  1.0000
  C   C46       1.0  0.9906327470993687  0.4960367769996452  0.8946644040731965  1.0000
  C   C47       1.0  0.0093697464397167  0.9960459502030189  0.6053346953707787  1.0000
  C   C48       1.0  0.0093700319963332  0.5039599411158517  0.10533510711016447  1.0000
  C   C49       1.0  0.22285932190953164  0.8902335467606832  0.4527133554529001  1.0000
  C   C50       1.0  0.22285933437834157  0.6097602956774537  0.9527166724947801  1.0000
  C   C51       1.0  0.7771360053761427  0.10975981419281308  0.5472813913712853  1.0000
  C   C52       1.0  0.7771344866420334  0.3902422974893511  0.047281201408438285  1.0000
  C   C53       1.0  0.3137876395366987  0.9803578297302804  0.4262797690491737  1.0000
  C   C54       1.0  0.31379036710067965  0.5196413419389927  0.9262824220785005  1.0000
  C   C55       1.0  0.6862181416581095  0.0196472813302009  0.5737161721292877  1.0000
  C   C56       1.0  0.6862124099056288  0.4803587333473017  0.07371762593797368  1.0000
  N   N1        1.0  0.9703425493123278  0.29487849589480675  0.3318233471136124  1.0000
  N   N2        1.0  0.9703443711131  0.2051178241228087  0.8318206182001828  1.0000
  N   N3        1.0  0.0296706711201367  0.7051266151446428  0.6681805794516291  1.0000
  N   N4        1.0  0.029653916371913197  0.7948780546887304  0.16818129537122667  1.0000
  N   N5        1.0  0.6805648193312592  0.3710525240806106  0.33904358426515546  1.0000
  N   N6        1.0  0.6805649199794814  0.1289433622680392  0.8390393383772119  1.0000
  N   N7        1.0  0.3194409471979257  0.6289500690882193  0.6609561147771215  1.0000
  N   N8        1.0  0.31943039683221025  0.871049159383574  0.16095809263422464  1.0000
  N   N9        1.0  0.16751552332562616  0.05082055788795969  0.3903828772063918  1.0000
  N   N10       1.0  0.16752107720284223  0.44917766672992326  0.8903808091870927  1.0000
  N   N11       1.0  0.8324782830342699  0.9491828745597389  0.6096187545565072  1.0000
  N   N12       1.0  0.8324757207628791  0.5508207299638316  0.10961993677366166  1.0000
  N   N13       1.0  0.020400852105957795  0.9061523528718566  0.4317461080921275  1.0000
  N   N14       1.0  0.0204038136257907  0.5938396773917914  0.9317469679934828  1.0000
  N   N15       1.0  0.9795944730967606  0.0938485617181115  0.5682491755599982  1.0000
  N   N16       1.0  0.9795944927100563  0.40615620143549336  0.06825011404271919  1.0000
  O   O1        1.0  0.4140077638096217  0.29200992124573577  0.4358865236012192  1.0000
  O   O2        1.0  0.4140066090888865  0.20799085381742088  0.9358830629191455  1.0000
  O   O3        1.0  0.5859934859705618  0.7079893147187375  0.5641220198791429  1.0000
  O   O4        1.0  0.5859931951392666  0.791999149962102  0.06411303938286747  1.0000
  O   O5        1.0  0.1806845442203766  0.25095132437694184  0.5037567635655548  1.0000
  O   O6        1.0  0.18067961951281572  0.24905363208007708  0.0037529753548212986  1.0000
  O   O7        1.0  0.8193316468751065  0.7490504294773429  0.4962516455679235  1.0000
  O   O8        1.0  0.8193097371219978  0.7509456039261053  0.9962403220553566  1.0000
  O   O9        1.0  0.3295688732656146  0.28992482313017826  0.7666251317210067  1.0000
  O   O10       1.0  0.3295548687797876  0.21006854860123522  0.266620339005449  1.0000
  O   O11       1.0  0.6704532989495534  0.7100685378007584  0.23338204264334184  1.0000
  O   O12       1.0  0.6704434312814697  0.7899332052727528  0.7333783535352578  1.0000
  O   O13       1.0  0.5742202841354285  0.4047098947670377  0.8213016731741971  1.0000
  O   O14       1.0  0.5742178687945625  0.09529519743910701  0.32130006175208337  1.0000
  O   O15       1.0  0.4257884383988753  0.5952918590837937  0.17870626629392916  1.0000
  O   O16       1.0  0.42578043965256285  0.904711592200698  0.6786964834334481  1.0000
