data_image0
_chemical_formula_structural       Cu2H32C32N4O10
_chemical_formula_sum              "Cu2 H32 C32 N4 O10"
_cell_length_a       7.22812974287907
_cell_length_b       10.618913769160384
_cell_length_c       10.857332931446667
_cell_angle_alpha    94.0392545260392
_cell_angle_beta     106.26265007410748
_cell_angle_gamma    102.55202849418745

_space_group_name_H-M_alt    "P 1"
_space_group_IT_number       1

loop_
  _space_group_symop_operation_xyz
  'x, y, z'

loop_
  _atom_site_type_symbol
  _atom_site_label
  _atom_site_symmetry_multiplicity
  _atom_site_fract_x
  _atom_site_fract_y
  _atom_site_fract_z
  _atom_site_occupancy
  Cu  Cu1       1.0  0.129777626810025  0.2659567164285974  0.6964694968019529  1.0000
  Cu  Cu2       1.0  0.8702240875843189  0.7340451363171071  0.30352882415594  1.0000
  H   H1        1.0  0.889965318249274  0.10955869138723533  0.9968653980525771  1.0000
  H   H2        1.0  0.1100378863131368  0.8904431663599155  0.003135953949232802  1.0000
  H   H3        1.0  0.6373447844995823  0.9071382343431579  0.5013222894362598  1.0000
  H   H4        1.0  0.3626733832048148  0.09285459391586671  0.49867194859893255  1.0000
  H   H5        1.0  0.2651376252047656  0.46433919784862354  0.9402265283534986  1.0000
  H   H6        1.0  0.734871194734879  0.5356586880309848  0.059775572714407595  1.0000
  H   H7        1.0  0.41352539258783594  0.7056289360726637  0.9928132374991846  1.0000
  H   H8        1.0  0.5864797948013772  0.2943670379116837  0.007189008472103342  1.0000
  H   H9        1.0  0.3772823324724328  0.7072979027269426  0.5883569285016392  1.0000
  H   H10       1.0  0.6227188552642247  0.2927059601003776  0.4116478765697735  1.0000
  H   H11       1.0  0.2889299265833145  0.5907796822481757  0.4071222284242281  1.0000
  H   H12       1.0  0.711067146847732  0.40922126114234914  0.5928779639718442  1.0000
  H   H13       1.0  0.04627164084816118  0.1960059711090167  0.2110134003504669  1.0000
  H   H14       1.0  0.9537305186782987  0.8039968758616709  0.7889878285215914  1.0000
  H   H15       1.0  0.022810121393490597  0.1259438666481714  0.4206676567259322  1.0000
  H   H16       1.0  0.9771959170127716  0.8740579478356596  0.5793323587055211  1.0000
  H   H17       1.0  0.54027857666744  0.9113564982690365  0.9173827549777728  1.0000
  H   H18       1.0  0.459714691129946  0.08864550424144109  0.08262235018800367  1.0000
  H   H19       1.0  0.3783150514462577  0.9193419174260171  0.7636171652065826  1.0000
  H   H20       1.0  0.6216784626804924  0.0806571407023426  0.23638687142197065  1.0000
  H   H21       1.0  0.6174125215593945  0.8957411779306451  0.7755101360205643  1.0000
  H   H22       1.0  0.38258257166897647  0.10426178385660018  0.2244953591096532  1.0000
  H   H23       1.0  0.24414602707533825  0.5548238962537158  0.1810928816970687  1.0000
  H   H24       1.0  0.7558428068409241  0.44517810456898826  0.8189049800014914  1.0000
  H   H25       1.0  0.05192814054650805  0.4154158197283311  0.09120982458999552  1.0000
  H   H26       1.0  0.9480638284775864  0.5845832134237625  0.9087884064978127  1.0000
  H   H27       1.0  0.3013597372309532  0.4061652116830102  0.13724656610283145  1.0000
  H   H28       1.0  0.6986338475178117  0.5938377384445276  0.8627549731511976  1.0000
  H   H29       1.0  0.5355736568647346  0.21131944581973264  0.7151199340484382  1.0000
  H   H30       1.0  0.46442158372735065  0.788673635329978  0.2848720488977463  1.0000
  H   H31       1.0  0.39214566499154563  0.1494904847571661  0.7988302049036591  1.0000
  H   H32       1.0  0.6078575578823973  0.8505113796482531  0.20117207193042927  1.0000
  C   C1        1.0  0.117022749918867  0.1133219540422274  0.8954024393440676  1.0000
  C   C2        1.0  0.8829834506670765  0.8866837857321528  0.10459970287423194  1.0000
  C   C3        1.0  0.9944634130382185  0.0566065485691638  0.9771493501179548  1.0000
  C   C4        1.0  0.005539136685769074  0.943397272651673  0.02285201217145531  1.0000
  C   C5        1.0  0.5951404466288892  0.9970962888804636  0.5216298270764668  1.0000
  C   C6        1.0  0.404870864483712  0.002893696496457202  0.4783657590151194  1.0000
  C   C7        1.0  0.7560175301151516  0.1125314977901368  0.5941478941059869  1.0000
  C   C8        1.0  0.24398410624920064  0.8874595599923437  0.4058451047409902  1.0000
  C   C9        1.0  0.2927356949503944  0.5232825618596165  0.8661032239149263  1.0000
  C   C10       1.0  0.7072682010735036  0.47671734573038554  0.13389996746384009  1.0000
  C   C11       1.0  0.3742213258617824  0.6574255658463741  0.8934656212660669  1.0000
  C   C12       1.0  0.6257832066890074  0.34257237161165927  0.1065366349928212  1.0000
  C   C13       1.0  0.4065108471522123  0.7271562393529507  0.7931753677842223  1.0000
  C   C14       1.0  0.5934863178365076  0.27284473732894554  0.20682944877322743  1.0000
  C   C15       1.0  0.3548016614614228  0.6568141052148988  0.6690270914508645  1.0000
  C   C16       1.0  0.6451965119401635  0.3431858689269163  0.3309759985717804  1.0000
  C   C17       1.0  0.27403029451791383  0.5228047634937312  0.6485431806830775  1.0000
  C   C18       1.0  0.7259728917329581  0.47719708759513685  0.35145724648645427  1.0000
  C   C19       1.0  0.21596389919783823  0.4402883898082876  0.5222242858211885  1.0000
  C   C20       1.0  0.7840349813526545  0.5597135062007369  0.47777537170705386  1.0000
  C   C21       1.0  0.23384209887518637  0.48692328665178036  0.40807673709576153  1.0000
  C   C22       1.0  0.7661543197174367  0.5130796202124372  0.5919234655879109  1.0000
  C   C23       1.0  0.1743506933657102  0.4007040997149717  0.2925678397128451  1.0000
  C   C24       1.0  0.8256428547599911  0.5992988370960078  0.7074318498766274  1.0000
  C   C25       1.0  0.09739326273855646  0.26854356300469107  0.2972870289103398  1.0000
  C   C26       1.0  0.9026060446325204  0.7314593205710338  0.7027146116997968  1.0000
  C   C27       1.0  0.08229101945018868  0.22798476263329798  0.41382030294477795  1.0000
  C   C28       1.0  0.9177107498787577  0.7720171100872334  0.5861807925099355  1.0000
  C   C29       1.0  0.49141629553158583  0.8711021564060956  0.8146332279247018  1.0000
  C   C30       1.0  0.5085783708761937  0.1288998178144496  0.1853702841236213  1.0000
  C   C31       1.0  0.19369547856822322  0.4483642057133466  0.16922032067650153  1.0000
  C   C32       1.0  0.8062962624380318  0.5516377784791403  0.8307799037808009  1.0000
  N   N1        1.0  0.2434547529994404  0.45775526243583187  0.7471013911049837  1.0000
  N   N2        1.0  0.7565499234194988  0.5422465936544826  0.25290206710847224  1.0000
  N   N3        1.0  0.14073669066270617  0.3120735983372073  0.5237783663920936  1.0000
  N   N4        1.0  0.859263625121244  0.6879282826984294  0.47622154768324504  1.0000
  O   O1        1.0  0.09621458912329219  0.22650138628687702  0.8650280748690378  1.0000
  O   O2        1.0  0.9037763348648584  0.7734986360887534  0.13497003308902578  1.0000
  O   O3        1.0  0.45380020668624615  0.23088327918790702  0.7699162332868211  1.0000
  O   O4        1.0  0.5461995017859067  0.769113682332204  0.23007864608750586  1.0000
  O   O5        1.0  0.2274939727919758  0.05044078014670109  0.8610664866506353  1.0000
  O   O6        1.0  0.7725098573937642  0.949566003774251  0.13894082488446455  1.0000
  O   O7        1.0  0.9342061339994744  0.09750042141466508  0.6133045217146177  1.0000
  O   O8        1.0  0.06580720134684964  0.9024944618461245  0.38669543079281243  1.0000
  O   O9        1.0  0.7150129126206437  0.21611299360120734  0.629519554279362  1.0000
  O   O10       1.0  0.28497328234211483  0.783872286858056  0.3704610868168956  1.0000
