data_image0
_chemical_formula_structural       Ag2P2H38C46Br2N2
_chemical_formula_sum              "Ag2 P2 H38 C46 Br2 N2"
_cell_length_a       9.035051149596411
_cell_length_b       9.531423112358473
_cell_length_c       12.883231694291224
_cell_angle_alpha    104.65327577746987
_cell_angle_beta     109.31389824400517
_cell_angle_gamma    92.35618951360738

_space_group_name_H-M_alt    "P 1"
_space_group_IT_number       1

loop_
  _space_group_symop_operation_xyz
  'x, y, z'

loop_
  _atom_site_type_symbol
  _atom_site_label
  _atom_site_symmetry_multiplicity
  _atom_site_fract_x
  _atom_site_fract_y
  _atom_site_fract_z
  _atom_site_occupancy
  Ag  Ag1       1.0  0.037664147448595  0.4844604551137551  0.8914150657721436  1.0000
  Ag  Ag2       1.0  0.9623431979462184  0.5155423271805618  0.10858078989051022  1.0000
  P   P1        1.0  0.0017052976266568984  0.28199397381737873  0.729757871024205  1.0000
  P   P2        1.0  0.9982951913764778  0.718002249767338  0.2702398180608299  1.0000
  H   H1        1.0  0.046454884922717134  0.8071005964714005  0.8660366074388152  1.0000
  H   H2        1.0  0.9535450912080989  0.19290000878689995  0.13396178454119215  1.0000
  H   H3        1.0  0.23160537077321658  0.028299455449484902  0.9062169473224272  1.0000
  H   H4        1.0  0.7683981233625374  0.971701142004669  0.09378148449641097  1.0000
  H   H5        1.0  0.6125770179985751  0.7951468116388727  0.053720532673111256  1.0000
  H   H6        1.0  0.38742647351064363  0.20485378338276666  0.9462802266884011  1.0000
  H   H7        1.0  0.41002467536747383  0.5864704660768681  0.008173749238728989  1.0000
  H   H8        1.0  0.5899766371403458  0.4135312301994034  0.9918259341819037  1.0000
  H   H9        1.0  0.2974421207021507  0.44923229851732327  0.7775877174158907  1.0000
  H   H10       1.0  0.7025578571796911  0.5507683083626561  0.2224091228689957  1.0000
  H   H11       1.0  0.5548126632322479  0.3866699598398712  0.7613006179122266  1.0000
  H   H12       1.0  0.44518799414897364  0.6133273616886825  0.23869421148017983  1.0000
  H   H13       1.0  0.5918619623446161  0.1244826545258562  0.6995786685922881  1.0000
  H   H14       1.0  0.4081350095290973  0.875513577673843  0.3004182048063555  1.0000
  H   H15       1.0  0.3743568849555317  0.927379680084144  0.659631964509984  1.0000
  H   H16       1.0  0.6256415864201941  0.07261873621234122  0.34036799572201193  1.0000
  H   H17       1.0  0.11563656172811686  0.9908500875625281  0.6703508901386925  1.0000
  H   H18       1.0  0.8843632477756387  0.009149421373607004  0.3296488098388223  1.0000
  H   H19       1.0  0.7964108397159748  0.03674852696691031  0.5333951684120564  1.0000
  H   H20       1.0  0.20358563227654966  0.9632444162663133  0.4666056289791101  1.0000
  H   H21       1.0  0.6484417141673545  0.8073635739673436  0.524375966125568  1.0000
  H   H22       1.0  0.3515517291952861  0.19263265630643644  0.47563017760494114  1.0000
  H   H23       1.0  0.6600030931351456  0.750421441872902  0.7068106276002979  1.0000
  H   H24       1.0  0.3399956809933613  0.24958682149117814  0.2931990124902839  1.0000
  H   H25       1.0  0.8112561155152989  0.9264008804488812  0.8933174064127768  1.0000
  H   H26       1.0  0.18875070387453258  0.07360627135643942  0.10669078985821301  1.0000
  H   H27       1.0  0.9564856243484742  0.16186139430481467  0.9030478817245466  1.0000
  H   H28       1.0  0.04351853016694921  0.8381435827621005  0.09695074903716261  1.0000
  H   H29       1.0  0.08538139931180673  0.2490577693693156  0.5189595016559493  1.0000
  H   H30       1.0  0.914616398693127  0.7509439379544605  0.48103703853561797  1.0000
  H   H31       1.0  0.9441790925867367  0.2956938061478951  0.3332902858140159  1.0000
  H   H32       1.0  0.055818025918824836  0.7043111865273135  0.6667082652700245  1.0000
  H   H33       1.0  0.67904031789827  0.3808718171975372  0.2963506668566822  1.0000
  H   H34       1.0  0.32095278447219044  0.6191298959370217  0.7036502166859364  1.0000
  H   H35       1.0  0.5664739772233673  0.4369634175361767  0.451616996684251  1.0000
  H   H36       1.0  0.4335266705272219  0.5630338950731402  0.5483863670312985  1.0000
  H   H37       1.0  0.7131388586105203  0.39917483512738994  0.6414920094157779  1.0000
  H   H38       1.0  0.28686078426616757  0.6008235774865868  0.3585089985592377  1.0000
  C   C1        1.0  0.17372060507531017  0.8093707598993376  0.9068386717072698  1.0000
  C   C2        1.0  0.8262822113120905  0.1906331245279134  0.09316021930892764  1.0000
  C   C3        1.0  0.27882933397830106  0.9334273780517108  0.9304701894085667  1.0000
  C   C4        1.0  0.7211741601574531  0.06657321940244292  0.06952824241026424  1.0000
  C   C5        1.0  0.4420141741887206  0.9346668377232704  0.9855437147011583  1.0000
  C   C6        1.0  0.5579931677040477  0.0653359413276959  0.014455244351722676  1.0000
  C   C7        1.0  0.48907730472239314  0.8057313914029152  0.0122358662391946  1.0000
  C   C8        1.0  0.5109213359069358  0.1942681236482429  0.9877604584526196  1.0000
  C   C9        1.0  0.37604723939193724  0.6863609258460034  0.9856661674496152  1.0000
  C   C10       1.0  0.623957591996337  0.3136407634369648  0.014332779962295126  1.0000
  C   C11       1.0  0.18870816209548738  0.224685236082685  0.722194790851276  1.0000
  C   C12       1.0  0.8112911571577043  0.7753109928062049  0.2778002987956185  1.0000
  C   C13       1.0  0.3138985310765605  0.3351314162204063  0.7484857370396442  1.0000
  C   C14       1.0  0.686096590672321  0.6648681058240629  0.2515113236608926  1.0000
  C   C15       1.0  0.4576401204027718  0.2995574353758812  0.7386709476482024  1.0000
  C   C16       1.0  0.542363884854268  0.70043877878301  0.261328332970777  1.0000
  C   C17       1.0  0.4791628128844821  0.1526344250461024  0.7060087313415623  1.0000
  C   C18       1.0  0.5208321422373388  0.8473640006762083  0.2939896373564892  1.0000
  C   C19       1.0  0.3571712001949265  0.0421026777211679  0.6835622829726873  1.0000
  C   C20       1.0  0.6428279524312046  0.9578924548455707  0.3164341146717149  1.0000
  C   C21       1.0  0.2115808734424007  0.07769693867268762  0.6904588834999074  1.0000
  C   C22       1.0  0.7884162641828638  0.922300389038334  0.3095374577487889  1.0000
  C   C23       1.0  0.8878509137595216  0.11298773057713164  0.7187392370941623  1.0000
  C   C24       1.0  0.1121483993650898  0.8870084926358927  0.2812612834856409  1.0000
  C   C25       1.0  0.8008207529265406  0.012792150661184104  0.6125467084039968  1.0000
  C   C26       1.0  0.19917872244757723  0.9872051648197981  0.3874563834160938  1.0000
  C   C27       1.0  0.7178790665502531  0.8829345413570309  0.6076806500064434  1.0000
  C   C28       1.0  0.282118392071972  0.11706496764655583  0.3923239371130478  1.0000
  C   C29       1.0  0.7228740737356816  0.8518548834120596  0.7090016302725957  1.0000
  C   C30       1.0  0.2771282401439947  0.14814570961620893  0.2910035122787988  1.0000
  C   C31       1.0  0.8089922045193986  0.9517656856465069  0.8150188339680325  1.0000
  C   C32       1.0  0.19100842323597786  0.04823929111616111  0.18498751543042147  1.0000
  C   C33       1.0  0.8905953957978099  0.08248989865585801  0.8204163991190541  1.0000
  C   C34       1.0  0.10940490658304468  0.9175128927600439  0.17958558364639282  1.0000
  C   C35       1.0  0.9062253167078894  0.3165714021067032  0.5912527297169274  1.0000
  C   C36       1.0  0.09377517054421962  0.6834248198563346  0.4087465110632209  1.0000
  C   C37       1.0  0.9717233182029332  0.2901970265367881  0.5046980526670666  1.0000
  C   C38       1.0  0.02827565042745315  0.709804676293658  0.49530031111508077  1.0000
  C   C39       1.0  0.8914771118269016  0.3157247049269358  0.3996260775138722  1.0000
  C   C40       1.0  0.10851850279907893  0.6842780995973002  0.6003732659746106  1.0000
  C   C41       1.0  0.7441563853419667  0.3652759038673566  0.3794871347997316  1.0000
  C   C42       1.0  0.2558414082854057  0.6347257994022257  0.6205132846296308  1.0000
  C   C43       1.0  0.6801032929251891  0.3953694860182112  0.46661119235838566  1.0000
  C   C44       1.0  0.31989634995150595  0.6046289265957725  0.533389815616637  1.0000
  C   C45       1.0  0.76128113575043  0.3730218703829139  0.5725234590733876  1.0000
  C   C46       1.0  0.23872068787868275  0.6269754425981021  0.4274770731473936  1.0000
  Br  Br1       1.0  0.7900873344094919  0.6185416568067483  0.9190288555449015  1.0000
  Br  Br2       1.0  0.2099138140977956  0.38145894557988674  0.08096980833055768  1.0000
  N   N1        1.0  0.2202821428385064  0.6869645271011535  0.9341304147858907  1.0000
  N   N2        1.0  0.7797193380473999  0.3130382671189623  0.0658664089421137  1.0000
