data_image0
_chemical_formula_structural       Co2H24C32N16O4
_chemical_formula_sum              "Co2 H24 C32 N16 O4"
_cell_length_a       7.058748830834109
_cell_length_b       10.141396994925687
_cell_length_c       12.14534803200233
_cell_angle_alpha    89.99993053557198
_cell_angle_beta     90.00002573910285
_cell_angle_gamma    104.5316944866267

_space_group_name_H-M_alt    "P 1"
_space_group_IT_number       1

loop_
  _space_group_symop_operation_xyz
  'x, y, z'

loop_
  _atom_site_type_symbol
  _atom_site_label
  _atom_site_symmetry_multiplicity
  _atom_site_fract_x
  _atom_site_fract_y
  _atom_site_fract_z
  _atom_site_occupancy
  Co  Co1       1.0  2.6728866871000007e-06  2.337560552200001e-06  0.9999993386760127  1.0000
  Co  Co2       1.0  0.49999943364316823  0.5000012457233256  0.5000003077302966  1.0000
  H   H1        1.0  0.9764842622698071  0.21539525350507924  0.19990783454360897  1.0000
  H   H2        1.0  0.47648295853615263  0.7153990194915993  0.3000932045527024  1.0000
  H   H3        1.0  0.02351518605910743  0.7846011153418574  0.800094427641142  1.0000
  H   H4        1.0  0.5235156182284514  0.2846065332572465  0.6999032941037558  1.0000
  H   H5        1.0  0.8576892495444286  0.208211980379467  0.3967897889411774  1.0000
  H   H6        1.0  0.3576906382686076  0.7082119363436661  0.10321287339268542  1.0000
  H   H7        1.0  0.1423109482451253  0.7917864257291997  0.6032116498821412  1.0000
  H   H8        1.0  0.6423056901139576  0.29178750462057934  0.8967852719875611  1.0000
  H   H9        1.0  0.5700136888327594  0.1555602985413743  0.519989211826321  1.0000
  H   H10       1.0  0.07001226489281018  0.6555556481320794  0.9800111207749399  1.0000
  H   H11       1.0  0.4299833890109924  0.8444411796816669  0.48001222699506507  1.0000
  H   H12       1.0  0.9299860592444135  0.3444376648260743  0.019987024608624906  1.0000
  H   H13       1.0  0.33668536758504786  0.06897670483652972  0.4693978381324585  1.0000
  H   H14       1.0  0.8366848817573285  0.568971478620192  0.03060331100753191  1.0000
  H   H15       1.0  0.6633127502407492  0.9310237493478017  0.5306044240500827  1.0000
  H   H16       1.0  0.16331485709231686  0.43102182892982904  0.9693956577367263  1.0000
  H   H17       1.0  0.3107987425017457  0.9491728197470554  0.2842236159835992  1.0000
  H   H18       1.0  0.810802879912501  0.4491690203180029  0.215777147073844  1.0000
  H   H19       1.0  0.6891976700903442  0.0508307011452658  0.7157769994761626  1.0000
  H   H20       1.0  0.18919931363171832  0.5508232577845789  0.784224291752793  1.0000
  H   H21       1.0  0.44814157365799195  0.9692348913984361  0.09263586565901964  1.0000
  H   H22       1.0  0.9481440571745028  0.46923388550056444  0.4073657361772335  1.0000
  H   H23       1.0  0.5518540894733448  0.03076659223274451  0.9073647498016657  1.0000
  H   H24       1.0  0.051859054248751646  0.5307685897234296  0.5926348792839209  1.0000
  C   C1        1.0  0.8312807187701453  0.15952037536255403  0.22559586836905515  1.0000
  C   C2        1.0  0.33128789642725576  0.6595241455286358  0.2744084824601743  1.0000
  C   C3        1.0  0.1687162748646288  0.8404770229294701  0.7744072171753873  1.0000
  C   C4        1.0  0.6687109708586406  0.340478345920353  0.7255888395583628  1.0000
  C   C5        1.0  0.7624388824812985  0.152611375561527  0.33254957036020744  1.0000
  C   C6        1.0  0.2624388737068629  0.6526112453393936  0.16744900607699265  1.0000
  C   C7        1.0  0.23756131530814187  0.8473870305477224  0.6674510451025955  1.0000
  C   C8        1.0  0.7375602841003187  0.347388184809745  0.8325491393036234  1.0000
  C   C9        1.0  0.5720844664758147  0.0773911972225747  0.3573475552969399  1.0000
  C   C10       1.0  0.07208832046322307  0.5773900675035935  0.14265351716671407  1.0000
  C   C11       1.0  0.4279118619071911  0.922608243739319  0.6426538835253626  1.0000
  C   C12       1.0  0.9279111278652439  0.4226063013456952  0.857345451575988  1.0000
  C   C13       1.0  0.4916035024084309  0.06675958857944411  0.4719881514038067  1.0000
  C   C14       1.0  0.9916033906167531  0.5667553846882145  0.02801139320244061  1.0000
  C   C15       1.0  0.5083946154172595  0.9332408656054699  0.5280132874182188  1.0000
  C   C16       1.0  0.008395308250960933  0.43323894689992676  0.9719875755411709  1.0000
  C   C17       1.0  0.4595650143201341  0.009087469919876402  0.2699972579154065  1.0000
  C   C18       1.0  0.9595667460981974  0.5090839912421148  0.23000398269625327  1.0000
  C   C19       1.0  0.5404334782358262  0.9909140028961974  0.7300033575456485  1.0000
  C   C20       1.0  0.04043515692462307  0.49091134816090687  0.7699958094077889  1.0000
  C   C21       1.0  0.5320078325118658  0.0171741384109652  0.16379116714808362  1.0000
  C   C22       1.0  0.03201673196407037  0.5171747537460691  0.3362132485073631  1.0000
  C   C23       1.0  0.4679874558893148  0.982826326588466  0.836211095034088  1.0000
  C   C24       1.0  0.967985255267948  0.4828246655867974  0.6637865435946539  1.0000
  C   C25       1.0  0.6715769952426883  0.752568613240108  0.8953721592121868  1.0000
  C   C26       1.0  0.1715822085036791  0.2525682207408835  0.6046281027894624  1.0000
  C   C27       1.0  0.3284281961443228  0.2474318139082215  0.10462763288973784  1.0000
  C   C28       1.0  0.8284169493033958  0.7474312094088447  0.39536921923063784  1.0000
  C   C29       1.0  0.5378841230491462  0.6250802072327347  0.7450084617615007  1.0000
  C   C30       1.0  0.03789125025448929  0.12508469349049986  0.7549918929620321  1.0000
  C   C31       1.0  0.4621115400821908  0.374921276398439  0.2549921536991847  1.0000
  C   C32       1.0  0.9621111117075712  0.8749157444746912  0.24500542905798287  1.0000
  N   N1        1.0  0.7158471283317382  0.09329239121311161  0.14263325775566935  1.0000
  N   N2        1.0  0.21584679571850535  0.5932909715667877  0.35736783593626614  1.0000
  N   N3        1.0  0.28415381891845476  0.9067080521572849  0.857367357706217  1.0000
  N   N4        1.0  0.7841549009923341  0.40671150906534603  0.6426319561641878  1.0000
  N   N5        1.0  0.782294095303236  0.8374848605191051  0.9458153130260673  1.0000
  N   N6        1.0  0.282297796124631  0.3374804654271913  0.5541774825633115  1.0000
  N   N7        1.0  0.21771326025662324  0.16251759848399427  0.05418283235410122  1.0000
  N   N8        1.0  0.7177021111434175  0.6625210019825049  0.44582148617690376  1.0000
  N   N9        1.0  0.5412897799773264  0.6556261606899912  0.8490359311184366  1.0000
  N   N10       1.0  0.04129612984679201  0.15562875800989673  0.650970157526132  1.0000
  N   N11       1.0  0.45871399669781715  0.3443742718635434  0.15096715442536635  1.0000
  N   N12       1.0  0.9587061479059648  0.8443676000260399  0.3490263411353923  1.0000
  N   N13       1.0  0.5146769203768928  0.5859302181997067  0.6534861936315084  1.0000
  N   N14       1.0  0.014680867952051804  0.08593356614570521  0.8465133708115292  1.0000
  N   N15       1.0  0.4853180775030027  0.41407330809957443  0.3465152451885843  1.0000
  N   N16       1.0  0.9853247823743139  0.9140719595642115  0.15348477456688417  1.0000
  O   O1        1.0  0.7834374501344571  0.10297258243735294  0.03987786948192711  1.0000
  O   O2        1.0  0.28345474896180906  0.6029842098074955  0.4601224086263615  1.0000
  O   O3        1.0  0.21656104242172347  0.8970288903775484  0.9601243927001595  1.0000
  O   O4        1.0  0.716546282497255  0.3970203134945012  0.5398757367519595  1.0000
