data_image0
_chemical_formula_structural       Cd4H90C128N6O26
_chemical_formula_sum              "Cd4 H90 C128 N6 O26"
_cell_length_a       14.306429926625158
_cell_length_b       14.741915704681674
_cell_length_c       16.788496902795085
_cell_angle_alpha    113.40238555441269
_cell_angle_beta     102.97171142501996
_cell_angle_gamma    100.29577291099568

_space_group_name_H-M_alt    "P 1"
_space_group_IT_number       1

loop_
  _space_group_symop_operation_xyz
  'x, y, z'

loop_
  _atom_site_type_symbol
  _atom_site_label
  _atom_site_symmetry_multiplicity
  _atom_site_fract_x
  _atom_site_fract_y
  _atom_site_fract_z
  _atom_site_occupancy
  Cd  Cd1       1.0  0.35622035841559824  0.4472296827885814  0.5863569376360547  1.0000
  Cd  Cd2       1.0  0.6437818309805223  0.5527733053696268  0.4136455185039694  1.0000
  Cd  Cd3       1.0  0.0640863844578803  0.11086094430111612  0.11646271493912512  1.0000
  Cd  Cd4       1.0  0.935923606875896  0.8891467340380147  0.8835452351769535  1.0000
  H   H1        1.0  0.12638862462859635  0.48330660842199796  0.1358154806880378  1.0000
  H   H2        1.0  0.893669725275572  0.14576366793323103  0.3375413960517974  1.0000
  H   H3        1.0  0.1520272968624141  0.3519367061525216  0.18607320393342522  1.0000
  H   H4        1.0  0.7427865064247358  0.9901167267200325  0.6748838860279778  1.0000
  H   H5        1.0  0.6935891222889977  0.29971368832600837  0.9129987699483167  1.0000
  H   H6        1.0  0.09728400460763  0.05930341629404271  0.3999508555447307  1.0000
  H   H7        1.0  0.895677199373253  0.42519100035710267  0.9324434241144955  1.0000
  H   H8        1.0  0.528716292688536  0.8793222462727927  0.19835770154731594  1.0000
  H   H9        1.0  0.9021678439042943  0.7614793317145756  0.32406538022834763  1.0000
  H   H10       1.0  0.5572792211844516  0.585859105389588  0.622996576269138  1.0000
  H   H11       1.0  0.28949275680757575  0.23762789363766507  0.06338642764850283  1.0000
  H   H12       1.0  0.8865444719001373  0.13453704600807737  0.9875427503036962  1.0000
  H   H13       1.0  0.5082613569944884  0.997288242589562  0.40912234463210234  1.0000
  H   H14       1.0  0.8509222530265389  0.25771173139370523  0.9267148157188885  1.0000
  H   H15       1.0  0.5746751171337793  0.7264705830776493  0.1657877891067301  1.0000
  H   H16       1.0  0.7105224884872853  0.7623681589364184  0.9366167948917622  1.0000
  H   H17       1.0  0.42937279894520936  0.0008415037115697003  0.22782297882440622  1.0000
  H   H18       1.0  0.4711506027932301  0.13307664793189394  0.3786644870569447  1.0000
  H   H19       1.0  0.47757076217264677  0.5061950833535462  0.8608627594776693  1.0000
  H   H20       1.0  0.3516861683462905  0.17277544332007724  0.7111861477641881  1.0000
  H   H21       1.0  0.47129563441023936  0.12067223658033302  0.801643151176542  1.0000
  H   H22       1.0  0.24153160008778943  0.615281662599358  0.4998318214345261  1.0000
  H   H23       1.0  0.5288610922957062  0.8669295370996724  0.6213474547113266  1.0000
  H   H24       1.0  0.7250963756186622  0.9740121146269161  0.44210383580427504  1.0000
  H   H25       1.0  0.12198462439625514  0.931281562117242  0.8237135449230095  1.0000
  H   H26       1.0  0.22147867129978493  0.4833025821831073  0.8874892412422924  1.0000
  H   H27       1.0  0.003953304679697609  0.06319283534902101  0.5999308210641772  1.0000
  H   H28       1.0  0.2161737660183363  0.21587999702833122  0.4178082022683185  1.0000
  H   H29       1.0  0.7883732078778606  0.6094664370284663  0.3198044171889336  1.0000
  H   H30       1.0  0.8487928351877585  0.13469565503927336  0.4680083792659104  1.0000
  H   H31       1.0  0.8479856609796315  0.6480661915950066  0.8139223755459426  1.0000
  H   H32       1.0  0.6493489028866364  0.5601089296589593  0.8712976889487437  1.0000
  H   H33       1.0  0.1954633990406479  0.7831487389821704  0.4345263634145199  1.0000
  H   H34       1.0  0.4427256605259515  0.4141408058142702  0.3770065455255747  1.0000
  H   H35       1.0  0.5012439979858386  0.8366729935338812  0.34936916511125565  1.0000
  H   H36       1.0  0.7149327511951212  0.2997137995816956  0.1680273098777718  1.0000
  H   H37       1.0  0.7093747896191614  0.0106815827593252  0.8989302971609946  1.0000
  H   H38       1.0  0.28930827076578697  0.8488683465524859  0.40831819804871117  1.0000
  H   H39       1.0  0.30641055570623627  0.7002831825734079  0.08700766774135354  1.0000
  H   H40       1.0  0.9028966222536708  0.4841872599720817  0.21991686623569243  1.0000
  H   H41       1.0  0.49873446404586025  0.16332000225342824  0.6506348147417427  1.0000
  H   H42       1.0  0.5224212055037611  0.49380464724334433  0.1391252860286514  1.0000
  H   H43       1.0  0.25720784030364297  0.009871520826358402  0.3251108362555897  1.0000
  H   H44       1.0  0.3391160646953324  0.43223411850420496  0.2693940950131762  1.0000
  H   H45       1.0  0.4329969820991693  0.3008590300843609  0.42808597928367936  1.0000
  H   H46       1.0  0.1134687084162779  0.8654666783059498  0.012457323616189338  1.0000
  H   H47       1.0  0.7584716692589026  0.38471511144783227  0.500166940585416  1.0000
  H   H48       1.0  0.660892624836677  0.5677789251410061  0.7306112602993053  1.0000
  H   H49       1.0  0.8736200723616819  0.5166939806064265  0.864180272750076  1.0000
  H   H50       1.0  0.6483183116184535  0.8272205884724574  0.28881497902088443  1.0000
  H   H51       1.0  0.17706092753394395  0.3195035409590475  0.9005287484345175  1.0000
  H   H52       1.0  0.07037143593667149  0.6099145623400163  0.3116082797497128  1.0000
  H   H53       1.0  0.09710422957621037  0.5157986773983083  0.7800783312786379  1.0000
  H   H54       1.0  0.8780131730651703  0.06871366029112382  0.1762842226126651  1.0000
  H   H55       1.0  0.8045340810237177  0.2168504133417883  0.5654774465411734  1.0000
  H   H56       1.0  0.1490724888201101  0.742292820529535  0.07328911080445975  1.0000
  H   H57       1.0  0.2748999827461133  0.025995426196701005  0.5578924872727313  1.0000
  H   H58       1.0  0.5670222951534146  0.6991509221950454  0.5719191859264044  1.0000
  H   H59       1.0  0.9296290093896501  0.3900798538692385  0.6883867485356064  1.0000
  H   H60       1.0  0.251028616161257  0.8502018133865691  0.941338029651611  1.0000
  H   H61       1.0  0.3478665923537606  0.5329200605566556  0.03490287592278917  1.0000
  H   H62       1.0  0.3506436854785521  0.43989563293359896  0.1287070147456859  1.0000
  H   H63       1.0  0.28507010626692875  0.7003038337930007  0.8319749031769703  1.0000
  H   H64       1.0  0.10432462693009377  0.5748182329488074  0.06756525850684622  1.0000
  H   H65       1.0  0.49170979644437546  0.0026993045511006014  0.5908771699708454  1.0000
  H   H66       1.0  0.4874942672007523  0.36289464693450685  0.2959942274597013  1.0000
  H   H67       1.0  0.4253245222085695  0.2735161632627269  0.8342104270919749  1.0000
  H   H68       1.0  0.7785049992049905  0.5166810956584557  0.11250959693512635  1.0000
  H   H69       1.0  0.6521306193328017  0.46708058784574297  0.9650972218147446  1.0000
  H   H70       1.0  0.2906339005163332  0.9893192508919881  0.10108519559197045  1.0000
  H   H71       1.0  0.3869454183301713  0.34760543162046526  0.9249156610287771  1.0000
  H   H72       1.0  0.4581465225486808  0.32946843063566444  0.68799612122222  1.0000
  H   H73       1.0  0.7838438510976076  0.7841292074546689  0.5821987688388433  1.0000
  H   H74       1.0  0.10632825270347726  0.8542345628430823  0.6624502830866703  1.0000
  H   H75       1.0  0.6130510380534346  0.6523850537733936  0.07507308469550363  1.0000
  H   H76       1.0  0.570644506362463  0.999159242785574  0.7721858162779258  1.0000
  H   H77       1.0  0.5125049606723948  0.6371129439077379  0.7040062434516869  1.0000
  H   H78       1.0  0.7319339585451416  0.22654506926470933  0.769481623906657  1.0000
  H   H79       1.0  0.9425601798525493  0.8481184598786983  0.14676503404414382  1.0000
  H   H80       1.0  0.710680822209234  0.15113151934613714  0.5916806536496182  1.0000
  H   H81       1.0  0.5418473231688808  0.6705330374060453  0.31200777237076244  1.0000
  H   H82       1.0  0.9027236149247314  0.9407032978916234  0.6000414140807919  1.0000
  H   H83       1.0  0.15119607749702627  0.8653133828340388  0.5319840307449226  1.0000
  H   H84       1.0  0.21161494431095215  0.3905326231566733  0.6801915948350442  1.0000
  H   H85       1.0  0.2680608302435488  0.7734571229495231  0.23051852958906946  1.0000
  H   H86       1.0  0.9960371372665267  0.9368114858771581  0.4000543223254171  1.0000
  H   H87       1.0  0.8229282152715388  0.6804816736957096  0.09946988790505888  1.0000
  H   H88       1.0  0.7489756324168013  0.1498058983459529  0.058672391694706554  1.0000
  H   H89       1.0  0.09781963795332874  0.23851735255048823  0.6759255227288747  1.0000
  H   H90       1.0  0.057438970507107015  0.1518688892582887  0.8532195920463794  1.0000
  C   C1        1.0  0.908068491607047  0.09544430036307723  0.7587201384981912  1.0000
  C   C2        1.0  0.31525994777423716  0.5019493303644611  0.2900276260051556  1.0000
  C   C3        1.0  0.7070994779555733  0.4603158662045105  0.6290933277516046  1.0000
  C   C4        1.0  0.8386871801413136  0.0766665425304112  0.32676199157679525  1.0000
  C   C5        1.0  0.9795866688318425  0.9523812415568855  0.46392029149200187  1.0000
  C   C6        1.0  0.18634127296362385  0.9294638270784148  0.6007752717470467  1.0000
  C   C7        1.0  0.9822652634434662  0.3743581612234267  0.7354192062375661  1.0000
  C   C8        1.0  0.6996974918197623  0.8971592847299804  0.29749853319471237  1.0000
  C   C9        1.0  0.4647196944264421  0.6295328968686889  0.9460381643857191  1.0000
  C   C10       1.0  0.0867534458567931  0.13524128643766184  0.5372633941989947  1.0000
  C   C11       1.0  0.12065325404056183  0.13082442554555482  0.463620481428805  1.0000
  C   C12       1.0  0.046902744475183236  0.7194228887244238  0.25809403048077684  1.0000
  C   C13       1.0  0.8770292100918056  0.6640230206874663  0.14507372290341888  1.0000
  C   C14       1.0  0.1655090186962554  0.8846623777023268  0.3005320998382572  1.0000
  C   C15       1.0  0.08567955770700315  0.33371798246122353  0.1290110132223887  1.0000
  C   C16       1.0  0.062447519012778285  0.7873362390303172  0.9818926269047809  1.0000
  C   C17       1.0  0.5174869934810218  0.8108701820006062  0.4020294404766603  1.0000
  C   C18       1.0  0.834485551129653  0.11532667417210973  0.6994653224026521  1.0000
  C   C19       1.0  0.7166884663364782  0.30080994282434403  0.79189154301546  1.0000
  C   C20       1.0  0.8564594195815971  0.20598277120580386  0.6898740096749592  1.0000
  C   C21       1.0  0.4681214737475799  0.8716732466824341  0.14149011589415036  1.0000
  C   C22       1.0  0.2564912385688912  0.020378186797032103  0.6157886910383041  1.0000
  C   C23       1.0  0.2775868749654861  0.09957736549101531  0.7799697404481949  1.0000
  C   C24       1.0  0.14761685382971024  0.42640358650202614  0.8475853357172414  1.0000
  C   C25       1.0  0.30549050769492686  0.658315517457126  0.1276320187830393  1.0000
  C   C26       1.0  0.2596770475704204  0.6304649324385423  0.39698779076767476  1.0000
  C   C27       1.0  0.8258268925606205  0.918191531803423  0.0031613032404465974  1.0000
  C   C28       1.0  0.4685267310988692  0.17358668710473785  0.447980690266057  1.0000
  C   C29       1.0  0.2929106070545658  0.53968710012942  0.37090767447027423  1.0000
  C   C30       1.0  0.5314787307976161  0.8264201860065371  0.5520243197516594  1.0000
  C   C31       1.0  0.8819197002435147  0.9992193803590156  0.7691778761201179  1.0000
  C   C32       1.0  0.1769777209175629  0.0012192599017452996  0.8367114980151555  1.0000
  C   C33       1.0  0.21460434173638995  0.08436077002003373  0.9240446939970823  1.0000
  C   C34       1.0  0.8230186874853942  0.9987736222651905  0.1632840115420322  1.0000
  C   C35       1.0  0.11808083564335452  0.0007704350372606003  0.23081917668685045  1.0000
  C   C36       1.0  0.020401349801069602  0.047624638306757616  0.5360661039778947  1.0000
  C   C37       1.0  0.5914854830678423  0.7233750765891855  0.10428794001430927  1.0000
  C   C38       1.0  0.4825025446504511  0.18913132961818493  0.597977801941646  1.0000
  C   C39       1.0  0.8791548172756763  0.769305271734062  0.383372926935543  1.0000
  C   C40       1.0  0.3091435133869922  0.5521755886917108  0.23394100565645465  1.0000
  C   C41       1.0  0.5537733091573712  0.21047458639944946  0.9480497394773623  1.0000
  C   C42       1.0  0.22258523839546035  0.7807884683462091  0.377760346257574  1.0000
  C   C43       1.0  0.9235035477480977  0.5550939954806253  0.2131316872266495  1.0000
  C   C44       1.0  0.0020236447551127217  0.16785832641127743  0.8085227360122219  1.0000
  C   C45       1.0  0.07649160454881355  0.4449019367602674  0.7868610434656489  1.0000
  C   C46       1.0  0.017721456671857566  0.6256285898303418  0.26457888769913757  1.0000
  C   C47       1.0  0.6105433850990066  0.37300979660604844  0.12819724706072577  1.0000
  C   C48       1.0  0.4471383041104745  0.2673571451348097  0.47505696834657135  1.0000
  C   C49       1.0  0.12295598429334127  0.3359683209955977  0.8549214689165653  1.0000
  C   C50       1.0  0.31097489842651543  0.8564530696585565  0.9983077837269437  1.0000
  C   C51       1.0  0.9677609986934214  0.4531275907208753  0.9867191009193234  1.0000
  C   C52       1.0  0.722410568730929  0.9004115807329428  0.2200192682449327  1.0000
  C   C53       1.0  0.4085161737074117  0.2766185677141523  0.8957070603919135  1.0000
  C   C54       1.0  0.5390529039705997  0.7175477811998267  0.38007122226432005  1.0000
  C   C55       1.0  0.7949051930703348  0.9930924487067971  0.23654717250061463  1.0000
  C   C56       1.0  0.9530942875246424  0.28057472165877334  0.7419097630097371  1.0000
  C   C57       1.0  0.7403269772869477  0.3695419972043795  0.603021725104462  1.0000
  C   C58       1.0  0.6936121099784317  0.5106082220545431  0.5680995222958175  1.0000
  C   C59       1.0  0.997982047074011  0.8321369186497096  0.19147716657164446  1.0000
  C   C60       1.0  0.7454820961751807  0.316253895900033  0.6559364206150989  1.0000
  C   C61       1.0  0.1741849824227657  0.08181768383453662  0.9968463446137861  1.0000
  C   C62       1.0  0.28847854237894666  0.17576292822184308  0.9406537066182495  1.0000
  C   C63       1.0  0.5158407974793634  0.869763755922975  0.4911354318309833  1.0000
  C   C64       1.0  0.3712644414945672  0.5499036881223206  0.7755100188208459  1.0000
  C   C65       1.0  0.7774110752925337  0.21920916288999595  0.6222451019990985  1.0000
  C   C66       1.0  0.9143335822947594  0.6662756765962856  0.8709856244949848  1.0000
  C   C67       1.0  0.7435075877663168  0.9796255172210737  0.3842091867023854  1.0000
  C   C68       1.0  0.48414721822578605  0.13023003996461577  0.5088712698173553  1.0000
  C   C69       1.0  0.8148883070913939  0.684677389700795  0.38011657040322433  1.0000
  C   C70       1.0  0.5019903076144772  0.28643455182663763  0.966402255263617  1.0000
  C   C71       1.0  0.3063928178431398  0.48938935909156817  0.4319022191154929  1.0000
  C   C72       1.0  0.8793464223125724  0.8691846924118282  0.53637880962566  1.0000
  C   C73       1.0  0.5318899124411657  0.12832437658386914  0.8585152756145007  1.0000
  C   C74       1.0  0.7115293920381517  0.824227757246554  0.059351630443572286  1.0000
  C   C75       1.0  0.2815409755545204  0.6465900983353379  0.26310052381629834  1.0000
  C   C76       1.0  0.6670335216312749  0.06650584870645561  0.9137840690384638  1.0000
  C   C77       1.0  0.5352760837522581  0.37046768204751157  0.053956270468283656  1.0000
  C   C78       1.0  0.7854038590009723  0.9156406812535138  0.07595840496981049  1.0000
  C   C79       1.0  0.9864482951301955  0.3821313477040108  0.02444022145413535  1.0000
  C   C80       1.0  0.694510154724689  0.34169210580725473  0.8723711242065947  1.0000
  C   C81       1.0  0.33103453802326044  0.5120217247432209  0.15056636421792297  1.0000
  C   C82       1.0  0.12083369345572953  0.23069989414074143  0.6166180862266941  1.0000
  C   C83       1.0  0.4993747701076998  0.02852344170378271  0.47697498349713646  1.0000
  C   C84       1.0  0.08162078618003939  0.7178267040934757  0.0152369581497851  1.0000
  C   C85       1.0  0.2833120166041213  0.6991946350080128  0.20811469756610287  1.0000
  C   C86       1.0  0.49800865622332696  0.7135621916694889  0.03359387397108543  1.0000
  C   C87       1.0  0.34127674038347794  0.7027106543632802  0.8893310460981996  1.0000
  C   C88       1.0  0.9288947968119035  0.5929077521945559  0.9002726822515115  1.0000
  C   C89       1.0  0.3286702967565418  0.5634371822502617  0.09764048203547301  1.0000
  C   C90       1.0  0.1851054960462548  0.3153262823808093  0.6198785348352092  1.0000
  C   C91       1.0  0.07111788787476317  0.4070968121261559  0.09973294271397752  1.0000
  C   C92       1.0  0.9734030935847785  0.7384678987690734  0.19711417996742134  1.0000
  C   C93       1.0  0.5877025059005802  0.05975196268157391  0.841879368889515  1.0000
  C   C94       1.0  0.4123073973456144  0.9402480397613004  0.1581313106959071  1.0000
  C   C95       1.0  0.8133011388522962  0.7816056421567908  0.5269668026108933  1.0000
  C   C96       1.0  0.44623368096193883  0.7895276071287611  0.051950994724407555  1.0000
  C   C97       1.0  0.6350738481854562  0.21738425256353372  0.02095416444278442  1.0000
  C   C98       1.0  0.25451695097262933  0.6837506939870865  0.34407073685454764  1.0000
  C   C99       1.0  0.013551425672332659  0.6178754994981402  0.9755624745053739  1.0000
  C   C100      1.0  0.552878818206601  0.7326528697036212  0.5249531611619815  1.0000
  C   C101      1.0  0.09191818655153142  0.9045446324921542  0.2412673726008023  1.0000
  C   C102      1.0  0.9183888430995636  0.28218718232928813  0.9847742276423334  1.0000
  C   C103      1.0  0.6587260308604854  0.2972992363998231  0.1106685129763747  1.0000
  C   C104      1.0  0.02659228014788793  0.26152889710238725  0.8028860359706658  1.0000
  C   C105      1.0  0.20509193405990087  0.0069003977815001  0.7634454859683047  1.0000
  C   C106      1.0  0.1613149726791293  0.9233262469406116  0.6732262614617072  1.0000
  C   C107      1.0  0.9375508139776085  0.21266822345351957  0.018104222109897723  1.0000
  C   C108      1.0  0.9132381618426494  0.8647645781147163  0.4627219053727956  1.0000
  C   C109      1.0  0.6908614975368578  0.447829846258209  0.766072362150858  1.0000
  C   C110      1.0  0.6890375155974126  0.14355307228155573  0.0017007087920077966  1.0000
  C   C111      1.0  0.684748206851971  0.49805445096684064  0.7099768533451397  1.0000
  C   C112      1.0  0.3227811939774838  0.1824607798461386  0.8707848474257461  1.0000
  C   C113      1.0  0.3329662889009343  0.9334964273339851  0.08622304408690706  1.0000
  C   C114      1.0  0.8523849319512636  0.5735955889601885  0.15242050886264025  1.0000
  C   C115      1.0  0.8136502844702418  0.07054451578800071  0.3992233714292723  1.0000
  C   C116      1.0  0.460939868423786  0.28244747598737524  0.6199291562186034  1.0000
  C   C117      1.0  0.30030523557829975  0.1028406667944566  0.702507758415301  1.0000
  C   C118      1.0  0.6689635679229015  0.4879820742560455  0.8494391498994815  1.0000
  C   C119      1.0  0.03224132095474637  0.546880884119311  0.013290610428022388  1.0000
  C   C120      1.0  0.6287305668800656  0.45011162219326917  0.22449107144652206  1.0000
  C   C121      1.0  0.1435319647929277  0.7940101086758846  0.31012112002419917  1.0000
  C   C122      1.0  0.18670221858197075  0.218398807786656  0.4730292299397051  1.0000
  C   C123      1.0  0.5005929733282032  0.9714671810057922  0.5230237257341059  1.0000
  C   C124      1.0  0.7184621087243669  0.35341601818128515  0.736905554220428  1.0000
  C   C125      1.0  0.6713254340646697  0.4365657712005629  0.9023589221682685  1.0000
  C   C126      1.0  0.36493295645060914  0.7826272982597402  0.9790550820978794  1.0000
  C   C127      1.0  0.3894619473763115  0.6269915601719804  0.8717981151054417  1.0000
  C   C128      1.0  0.6772229307681955  0.8175290276516876  0.12921170764416695  1.0000
  N   N1        1.0  0.21869848281902907  0.30961028032434973  0.5499527617550656  1.0000
  N   N2        1.0  0.02041341937109562  0.23711036124830542  0.08892293567956241  1.0000
  N   N3        1.0  0.5582752646843119  0.679112458233945  0.4407433363471114  1.0000
  N   N4        1.0  0.781301238814386  0.6903965372265474  0.45004754156021687  1.0000
  N   N5        1.0  0.44173024373876757  0.3208920699939526  0.5592590969650857  1.0000
  N   N6        1.0  0.9795970293549843  0.7628863376994773  0.9110700455778301  1.0000
  O   O1        1.0  0.3524097337610358  0.4209230287969278  0.419090610268917  1.0000
  O   O2        1.0  0.7920392283414446  0.8383853810433238  0.9231548477911176  1.0000
  O   O3        1.0  0.5060605645974691  0.4051375740598858  0.3618827741627229  1.0000
  O   O4        1.0  0.1029389139165318  0.004213907189267701  0.9824723712977247  1.0000
  O   O5        1.0  0.41666431862461206  0.47949351284464115  0.761350696809842  1.0000
  O   O6        1.0  0.31546057987313963  0.557807046908188  0.7094526388779343  1.0000
  O   O7        1.0  0.2581789754215365  0.9545736799049679  0.34718360997655406  1.0000
  O   O8        1.0  0.49394122326071255  0.5948615272741763  0.6381170888066025  1.0000
  O   O9        1.0  0.7274894857984651  0.4812146632638631  0.5001052312479929  1.0000
  O   O10       1.0  0.493671170777482  0.44809298795040325  0.06965885166931682  1.0000
  O   O11       1.0  0.741821022463398  0.045419172125079406  0.6528096073604177  1.0000
  O   O12       1.0  0.23319820737079774  0.6659169655328088  0.4735557138195575  1.0000
  O   O13       1.0  0.5833303814730115  0.5205132134672398  0.23864204871473052  1.0000
  O   O14       1.0  0.7929307725669332  0.9384012306452972  0.7318978659600007  1.0000
  O   O15       1.0  0.6475916529746472  0.5790721708873647  0.5809054632075926  1.0000
  O   O16       1.0  0.20796852474681776  0.16161451346383873  0.0768470383884789  1.0000
  O   O17       1.0  0.766804026059276  0.33408376669579104  0.5264513435476205  1.0000
  O   O18       1.0  0.6845260015129355  0.44219889689991027  0.29053886060744116  1.0000
  O   O19       1.0  0.32571540084489203  0.2578972473076817  0.025134716259465492  1.0000
  O   O20       1.0  0.6742999383340447  0.7420940858483858  0.9748609602255416  1.0000
  O   O21       1.0  0.27251118220993936  0.5187805720990681  0.49989369331678557  1.0000
  O   O22       1.0  0.5063218288688419  0.5519029253085536  0.930332263549829  1.0000
  O   O23       1.0  0.04450416451252439  0.015552367227329002  0.18179483232889035  1.0000
  O   O24       1.0  0.2070625390757144  0.06159094543124162  0.26810275902657577  1.0000
  O   O25       1.0  0.8970677139408921  0.9957945018353983  0.017532196741129373  1.0000
  O   O26       1.0  0.9554905872850482  0.9844396411253484  0.8181923143874315  1.0000
