data_image0
_chemical_formula_structural       Zn4H80C112N24O16
_chemical_formula_sum              "Zn4 H80 C112 N24 O16"
_cell_length_a       14.182499756719084
_cell_length_b       13.853401319444682
_cell_length_c       24.100079936330634
_cell_angle_alpha    103.1160893760173
_cell_angle_beta     90.0010001144759
_cell_angle_gamma    120.78880894636315

_space_group_name_H-M_alt    "P 1"
_space_group_IT_number       1

loop_
  _space_group_symop_operation_xyz
  'x, y, z'

loop_
  _atom_site_type_symbol
  _atom_site_label
  _atom_site_symmetry_multiplicity
  _atom_site_fract_x
  _atom_site_fract_y
  _atom_site_fract_z
  _atom_site_occupancy
  Zn  Zn1       1.0  0.9684736971145542  0.7008337976292367  0.8889687167668254  1.0000
  Zn  Zn2       1.0  0.2676533075362856  0.2991535577797748  0.6110282568824273  1.0000
  Zn  Zn3       1.0  0.031524125409752884  0.2991629755189891  0.11102264336518178  1.0000
  Zn  Zn4       1.0  0.7323513842360044  0.700835800689937  0.3889717565760619  1.0000
  H   H1        1.0  0.23627859771572454  0.2032728650074773  0.8630595989395144  1.0000
  H   H2        1.0  0.033007137257939634  0.7967333770048269  0.6369397696349991  1.0000
  H   H3        1.0  0.7637268611202401  0.7967377707233894  0.13693176953123037  1.0000
  H   H4        1.0  0.9669903608548438  0.20326133673507477  0.3630637935225636  1.0000
  H   H5        1.0  0.13853760192649386  0.4239061386338391  0.8143895388786573  1.0000
  H   H6        1.0  0.7146389502302741  0.5760932460751107  0.6856032229023015  1.0000
  H   H7        1.0  0.8614653963587672  0.5761066266861404  0.18561080150423945  1.0000
  H   H8        1.0  0.2853583661629528  0.423925077533994  0.3144052569460598  1.0000
  H   H9        1.0  0.042962338065372314  0.3081707564882663  0.9686538631261641  1.0000
  H   H10       1.0  0.7348006396577844  0.691815513524979  0.5313278106348917  1.0000
  H   H11       1.0  0.9570279634272725  0.6918208458426918  0.03133811972762149  1.0000
  H   H12       1.0  0.2651947404940885  0.3081693236732974  0.4686679233577137  1.0000
  H   H13       1.0  0.1556586982825579  0.3366934842979958  0.7227811030194288  1.0000
  H   H14       1.0  0.8189457035643957  0.6632946819641318  0.7772142390032  1.0000
  H   H15       1.0  0.8443688470207107  0.6633373511873016  0.2772164319508406  1.0000
  H   H16       1.0  0.18104993246862477  0.33669630775582954  0.22278348056033787  1.0000
  H   H17       1.0  0.4344995246456095  0.30463438336468573  0.7072401497048374  1.0000
  H   H18       1.0  0.12985634320592948  0.695382024160068  0.7927689805998169  1.0000
  H   H19       1.0  0.5655268067592658  0.6953926137515863  0.29276854412229614  1.0000
  H   H20       1.0  0.8701350366358725  0.3046060940902748  0.2072225829360619  1.0000
  H   H21       1.0  0.38768505687315974  0.30720227847368153  0.8194641694067071  1.0000
  H   H22       1.0  0.08048728367554485  0.6928334696108249  0.6805459752189619  1.0000
  H   H23       1.0  0.6123332604953264  0.6928368944404966  0.18054557475763738  1.0000
  H   H24       1.0  0.9195146175026637  0.3071841527270464  0.31944664913009996  1.0000
  H   H25       1.0  0.11664716500937537  0.5753602589900524  0.8665457982389595  1.0000
  H   H26       1.0  0.541279957303715  0.4246539337674379  0.6334581403340138  1.0000
  H   H27       1.0  0.8833588243469565  0.4246457965489938  0.1334595450226175  1.0000
  H   H28       1.0  0.4587096831710937  0.575340576910257  0.3665408330200534  1.0000
  H   H29       1.0  0.8241281037387014  0.47091236919357016  0.9419138315349967  1.0000
  H   H30       1.0  0.35320360636278275  0.5290856685591762  0.55807873693994  1.0000
  H   H31       1.0  0.17586801606488925  0.5290767677537288  0.05808117486513707  1.0000
  H   H32       1.0  0.6467907648398211  0.47090984236007943  0.44192326202765037  1.0000
  H   H33       1.0  0.8948364251536917  0.31709012904075706  0.9466464402230698  1.0000
  H   H34       1.0  0.5777343729634198  0.6829034377224374  0.5533383581467746  1.0000
  H   H35       1.0  0.10515289004008106  0.6828910394748959  0.05334470190300069  1.0000
  H   H36       1.0  0.42226225203922507  0.3171078623400234  0.4466680312970651  1.0000
  H   H37       1.0  0.21810292870914344  0.18817251031376256  0.9678934972473029  1.0000
  H   H38       1.0  0.029936836274686015  0.8118420570875883  0.5321013711742211  1.0000
  H   H39       1.0  0.781898829487055  0.8118363648925495  0.032097244289019486  1.0000
  H   H40       1.0  0.97005796567548  0.18814726440400875  0.46789780772508033  1.0000
  H   H41       1.0  0.1194449078837536  0.2129247943760859  0.0027492967040813917  1.0000
  H   H42       1.0  0.9065109524506241  0.7870915400670879  0.49725060857926434  1.0000
  H   H43       1.0  0.8805771694210167  0.7870965151959837  0.9972483368446985  1.0000
  H   H44       1.0  0.09349027609505357  0.21290217348897034  0.5027499290142428  1.0000
  H   H45       1.0  0.15758477643709048  0.9826418064852049  0.9277301761372667  1.0000
  H   H46       1.0  0.17493460401695426  0.017356138147235394  0.5722680965418546  1.0000
  H   H47       1.0  0.8424227381027906  0.0173743506769028  0.0722684973428116  1.0000
  H   H48       1.0  0.8250702787085802  0.9826406535044684  0.42772368088211715  1.0000
  H   H49       1.0  0.8109891353137257  0.8198753477022009  0.8930517185420469  1.0000
  H   H50       1.0  0.9911259884817128  0.18014251915150936  0.6069438858905939  1.0000
  H   H51       1.0  0.18901819692712962  0.18013621442942448  0.10694100652276717  1.0000
  H   H52       1.0  0.008885459349372014  0.8198589413955304  0.39305550898870206  1.0000
  H   H53       1.0  0.9048130768126088  0.06044514774168869  0.9378888377649016  1.0000
  H   H54       1.0  0.8443587373873171  0.9395715238922192  0.5621071868298556  1.0000
  H   H55       1.0  0.09519521373537294  0.9395626903892236  0.0620980437223722  1.0000
  H   H56       1.0  0.15565017811216822  0.06042910252621429  0.43789293770495147  1.0000
  H   H57       1.0  0.3420609341529469  0.8865038063283632  0.9017979910164086  1.0000
  H   H58       1.0  0.4555692992163785  0.1135018318763628  0.5982072801263739  1.0000
  H   H59       1.0  0.657930693205529  0.11350172874199421  0.09821517509320897  1.0000
  H   H60       1.0  0.5444310169022942  0.8864971078054185  0.40179388644811803  1.0000
  H   H61       1.0  0.540834926743031  0.9837268492303223  0.8860957813002911  1.0000
  H   H62       1.0  0.557115510491343  0.016253577300922497  0.6139021542512991  1.0000
  H   H63       1.0  0.4591305769022186  0.016246181018196595  0.11390724714734546  1.0000
  H   H64       1.0  0.4428800376737955  0.9837301858678913  0.38608888515368267  1.0000
  H   H65       1.0  0.7411512709346227  0.10029171362850059  0.9266058839331633  1.0000
  H   H66       1.0  0.6408482427139504  0.8996782714445714  0.5733880720363728  1.0000
  H   H67       1.0  0.258817659001231  0.8996768877121113  0.07339495137649267  1.0000
  H   H68       1.0  0.35914632867605445  0.1003091788141646  0.4266079764446644  1.0000
  H   H69       1.0  0.7156660699244811  0.549512357458454  0.9925988275461106  1.0000
  H   H70       1.0  0.1661457645964005  0.4504926517026816  0.5073993203814595  1.0000
  H   H71       1.0  0.28434645625559796  0.4505011313058773  0.007398279718039189  1.0000
  H   H72       1.0  0.8338402449284248  0.549505878242755  0.49261217254552037  1.0000
  H   H73       1.0  0.6344677747056765  0.48893479913794374  0.07944806236706367  1.0000
  H   H74       1.0  0.1455108542351979  0.5110629169761509  0.42055915682269057  1.0000
  H   H75       1.0  0.3655432307628246  0.5110770583039965  0.9205513387302133  1.0000
  H   H76       1.0  0.8544835038412089  0.48892128549091746  0.5794614025430533  1.0000
  H   H77       1.0  0.47605208324999654  0.430994738741262  0.13708656809103556  1.0000
  H   H78       1.0  0.04504356495489494  0.5690187981570816  0.3629249895381647  1.0000
  H   H79       1.0  0.5239514840029714  0.5690135238300016  0.8629099101344266  1.0000
  H   H80       1.0  0.9549666808825493  0.43098871900352254  0.6370938106013283  1.0000
  C   C1        1.0  0.1952190177513629  0.25239315796100203  0.87210884352573  1.0000
  C   C2        1.0  0.9428241107387266  0.7476175295048221  0.6278817297272566  1.0000
  C   C3        1.0  0.8047935727768376  0.7476218698391291  0.12788388364334924  1.0000
  C   C4        1.0  0.05717211301973891  0.252383096827046  0.3721183947333556  1.0000
  C   C5        1.0  0.19602629496355214  0.31682921441667133  0.834978963274537  1.0000
  C   C6        1.0  0.879203181427009  0.6831794133063909  0.6650135366099403  1.0000
  C   C7        1.0  0.8039880632132681  0.6831921689240658  0.16502033923186582  1.0000
  C   C8        1.0  0.12079092227941858  0.316814152558436  0.3349836629364233  1.0000
  C   C9        1.0  0.13966123573345604  0.3762143755721111  0.8443816120303962  1.0000
  C   C10       1.0  0.763449224943315  0.6237889076284872  0.655613529992678  1.0000
  C   C11       1.0  0.8603441819842601  0.6238018184863562  0.15561789593879635  1.0000
  C   C12       1.0  0.23654943462449302  0.3762180004272365  0.3443915008064167  1.0000
  C   C13       1.0  0.0837425085947672  0.3715328109841991  0.8924082958841308  1.0000
  C   C14       1.0  0.712208335726672  0.6284547863002742  0.6075810995471613  1.0000
  C   C15       1.0  0.9162529084929573  0.6284676123335515  0.10758723881420448  1.0000
  C   C16       1.0  0.28778641558135126  0.3715414849115888  0.3924185007495779  1.0000
  C   C17       1.0  0.08545127871912676  0.3105113583393261  0.9308738360426148  1.0000
  C   C18       1.0  0.7749292627451682  0.689476826041023  0.5691192740521556  1.0000
  C   C19       1.0  0.9145493412520908  0.6894769076166725  0.06912106555277829  1.0000
  C   C20       1.0  0.22506738490787373  0.31051336648515354  0.43088000968899093  1.0000
  C   C21       1.0  0.1403730281739115  0.2499840044436112  0.920309004607432  1.0000
  C   C22       1.0  0.8903817208477989  0.7500101252058399  0.5796757164699712  1.0000
  C   C23       1.0  0.8596394840103019  0.7500224054127075  0.07968476050409379  1.0000
  C   C24       1.0  0.10961490119436228  0.24997719587958034  0.4203174112682504  1.0000
  C   C25       1.0  0.22509870364050497  0.32876536279073315  0.7344881604894553  1.0000
  C   C26       1.0  0.8963287496574496  0.6712380180837555  0.765515975922355  1.0000
  C   C27       1.0  0.7749142097878732  0.6712517207961781  0.265511869605298  1.0000
  C   C28       1.0  0.1036684556381786  0.3287504693129009  0.23448393266131962  1.0000
  C   C29       1.0  0.36979813817165313  0.31210396675353996  0.7278473259004627  1.0000
  C   C30       1.0  0.057689957620709616  0.6879114334209573  0.7721593352682773  1.0000
  C   C31       1.0  0.6302185935575082  0.6879193432006687  0.27215635878879135  1.0000
  C   C32       1.0  0.9423068765136052  0.3120777219865403  0.22783608838671646  1.0000
  C   C33       1.0  0.3460242554995006  0.31001474355131353  0.7827863844971928  1.0000
  C   C34       1.0  0.03601023877460813  0.6900083149847306  0.7172238751826894  1.0000
  C   C35       1.0  0.6539978935861727  0.6900095297384823  0.2172194913082136  1.0000
  C   C36       1.0  0.9639836093404028  0.30999320080825743  0.2827767713457732  1.0000
  C   C37       1.0  0.04440385740930707  0.5249856766240129  0.8860189994451914  1.0000
  C   C38       1.0  0.5194264199865444  0.47502732067074044  0.6139718715141456  1.0000
  C   C39       1.0  0.9555981891320828  0.47502095462487404  0.11397977261339778  1.0000
  C   C40       1.0  0.4805660408751606  0.5249671900261886  0.38602710185641337  1.0000
  C   C41       1.0  0.8948120897893334  0.4682850097888646  0.9266531755758931  1.0000
  C   C42       1.0  0.42652307487470154  0.5317114709182461  0.5733415892572111  1.0000
  C   C43       1.0  0.10517853669461631  0.5317058322542891  0.07334120595285747  1.0000
  C   C44       1.0  0.5734696972721665  0.4682893030327122  0.42666187318872045  1.0000
  C   C45       1.0  0.9277639699426605  0.3916897340945482  0.9287858441929301  1.0000
  C   C46       1.0  0.53606154121929  0.6083038283859776  0.5712001548037619  1.0000
  C   C47       1.0  0.07222943075817052  0.6083010156908839  0.07120645109860385  1.0000
  C   C48       1.0  0.4639306825189991  0.39169866914989626  0.4288031000503806  1.0000
  C   C49       1.0  0.1376983032224715  0.18029693823348225  0.9608704489716257  1.0000
  C   C50       1.0  0.9574080297115799  0.8197206460148152  0.5391257189282186  1.0000
  C   C51       1.0  0.86230507040635  0.8197095269264946  0.03912456783854165  1.0000
  C   C52       1.0  0.0425934198703644  0.1802763301667625  0.4608702309825502  1.0000
  C   C53       1.0  0.07520265676009782  0.9689566911294988  0.9237925697994455  1.0000
  C   C54       1.0  0.10624128274625384  0.031051490988183196  0.5762049307396637  1.0000
  C   C55       1.0  0.9248060487381907  0.031054797190172703  0.0761984862706484  1.0000
  C   C56       1.0  0.8937659940907423  0.9689444481131843  0.42378715911793546  1.0000
  C   C57       1.0  0.8968255049523962  0.8893294644257068  0.9071108366872306  1.0000
  C   C58       1.0  0.007495332738592697  0.1106817400497135  0.5928869248939603  1.0000
  C   C59       1.0  0.10318170962744232  0.11067763186318298  0.0928788607175051  1.0000
  C   C60       1.0  0.9925124996498697  0.8893153099967179  0.4071106940568682  1.0000
  C   C61       1.0  0.9412756915226625  0.007200539804458096  0.9278144443324832  1.0000
  C   C62       1.0  0.9340684067673167  0.9928116739994763  0.5721796026295393  1.0000
  C   C63       1.0  0.05873190316260225  0.9928073167770389  0.07217285440140835  1.0000
  C   C64       1.0  0.06594236366905191  0.0071898419089321975  0.42782104399785226  1.0000
  C   C65       1.0  0.16859729247781974  0.8179945490431492  0.9615701073077572  1.0000
  C   C66       1.0  0.35059656518122045  0.18199080630241576  0.5384292483819448  1.0000
  C   C67       1.0  0.8313810664495807  0.18198444925969434  0.0384307342775898  1.0000
  C   C68       1.0  0.6493953609780336  0.8179984044375959  0.46156742699642445  1.0000
  C   C69       1.0  0.2896450915920497  0.8864677368326496  0.9849437193294431  1.0000
  C   C70       1.0  0.40318475640733453  0.1135278267860045  0.5150647930137565  1.0000
  C   C71       1.0  0.7103250879566051  0.11351887552686428  0.015072564630557395  1.0000
  C   C72       1.0  0.5968106031854105  0.8864597895760721  0.48493501072807277  1.0000
  C   C73       1.0  0.36898236843575916  0.9153006124256463  0.9480580475718199  1.0000
  C   C74       1.0  0.45369042303246226  0.08469178060478548  0.5519378697416782  1.0000
  C   C75       1.0  0.6309834021258711  0.08467718257341518  0.05193517859652269  1.0000
  C   C76       1.0  0.5463027542510872  0.9152999324777581  0.4480566166330391  1.0000
  C   C77       1.0  0.4833492720369605  0.981342416236231  0.9694473387386748  1.0000
  C   C78       1.0  0.5020046337865197  0.018647842218555897  0.5305545345482939  1.0000
  C   C79       1.0  0.5166330687323466  0.0186487764016618  0.0305549705046957  1.0000
  C   C80       1.0  0.4979849006422937  0.9813379951491398  0.4694442249960033  1.0000
  C   C81       1.0  0.5664165065640745  0.01219388448291879  0.9325206620906737  1.0000
  C   C82       1.0  0.5542251648421727  0.9877905500121358  0.5674861704525113  1.0000
  C   C83       1.0  0.43355660388960626  0.9877943592085927  0.06749332804444205  1.0000
  C   C84       1.0  0.44577175687029325  0.012191729496670694  0.4325105008080071  1.0000
  C   C85       1.0  0.6770135484002255  0.07657499984625099  0.9546783275320149  1.0000
  C   C86       1.0  0.6004358960679568  0.9234046690239521  0.5453150234552026  1.0000
  C   C87       1.0  0.32295080302385065  0.9234013668397411  0.045321782227603094  1.0000
  C   C88       1.0  0.3995531957085419  0.07657746278881208  0.4546783097540441  1.0000
  C   C89       1.0  0.7258186908641094  0.6045034912921706  0.8908173877152945  1.0000
  C   C90       1.0  0.12132099412300329  0.39550324488985916  0.6091857741881838  1.0000
  C   C91       1.0  0.2741957662161525  0.3954927062327868  0.10918054369390258  1.0000
  C   C92       1.0  0.8786820693800623  0.6045068299217532  0.3908320886504199  1.0000
  C   C93       1.0  0.6292620315740294  0.5629346055767854  0.9248424627165049  1.0000
  C   C94       1.0  0.06631501356998362  0.43705984738297576  0.5751601193462219  1.0000
  C   C95       1.0  0.3707601380707644  0.43708688854921723  0.07515934333968488  1.0000
  C   C96       1.0  0.9336688371655628  0.5629329545003756  0.4248589847645049  1.0000
  C   C97       1.0  0.6382790064395607  0.5394451146572621  0.97680640308058  1.0000
  C   C98       1.0  0.09883415291193388  0.46053748266442796  0.5231962059208541  1.0000
  C   C99       1.0  0.36172011128792286  0.4605570691850431  0.02318975855218499  1.0000
  C   C100      1.0  0.9011693988339858  0.5394481850793936  0.4768183044004388  1.0000
  C   C101      1.0  0.5501912499929917  0.504972096205961  0.010287802833723002  1.0000
  C   C102      1.0  0.045223866900840855  0.4950408551144959  0.4897190774300597  1.0000
  C   C103      1.0  0.44982368638554265  0.49504480284146263  0.9897080547659838  1.0000
  C   C104      1.0  0.9547677235217834  0.5049490938363945  0.5102942879738208  1.0000
  C   C105      1.0  0.5579245170890205  0.48121092137062504  0.063964237579647  1.0000
  C   C106      1.0  0.07669431421800246  0.5187973295878052  0.4360480843935476  1.0000
  C   C107      1.0  0.4421022519164097  0.518814130696029  0.9360396568303883  1.0000
  C   C108      1.0  0.9232939860430278  0.48120155102451173  0.5639713363098763  1.0000
  C   C109      1.0  0.47102206377160627  0.44906519315672705  0.09580199538111596  1.0000
  C   C110      1.0  0.021967975361007957  0.5509613465599231  0.404213891162442  1.0000
  C   C111      1.0  0.5289855314932836  0.5509553560265487  0.9041980367560711  1.0000
  C   C112      1.0  0.9780397750808448  0.4490454102936495  0.5958073076355389  1.0000
  N   N1        1.0  0.294066665159484  0.32378253911340954  0.6985091980458975  1.0000
  N   N2        1.0  0.9702780294392213  0.6762086774002113  0.8014925323959187  1.0000
  N   N3        1.0  0.7059510549598259  0.6762328762836205  0.3014922914175954  1.0000
  N   N4        1.0  0.029717936057245653  0.32377451003472396  0.19850507819143803  1.0000
  N   N5        1.0  0.2536390727444556  0.3205131928525233  0.7866301049946856  1.0000
  N   N6        1.0  0.9331231383057171  0.6794845734050412  0.7133745140501089  1.0000
  N   N7        1.0  0.7463803572384506  0.6795126932754059  0.21337305970212125  1.0000
  N   N8        1.0  0.06687518465592748  0.3205117901078296  0.2866271725209443  1.0000
  N   N9        1.0  0.9683195778541959  0.5509378510217787  0.9002308705581397  1.0000
  N   N10       1.0  0.4173859706308107  0.44906186635328993  0.5997687575862187  1.0000
  N   N11       1.0  0.03167134144691636  0.4490592173646279  0.09976716554449891  1.0000
  N   N12       1.0  0.5826035429489809  0.5509281600262668  0.40022677085703856  1.0000
  N   N13       1.0  0.022997057804133202  0.4279544293192643  0.9022506897852479  1.0000
  N   N14       1.0  0.5950420416764147  0.5720397567764338  0.5977377745466653  1.0000
  N   N15       1.0  0.977000458486771  0.572041731179489  0.09774640702353568  1.0000
  N   N16       1.0  0.4049504331811563  0.42796183282850103  0.4022645409765173  1.0000
  N   N17       1.0  0.9811646805975516  0.8664123504865983  0.9051902068042776  1.0000
  N   N18       1.0  0.11475744477319687  0.13359676902530274  0.5948103418131082  1.0000
  N   N19       1.0  0.018845386833049795  0.13360186164031518  0.09480366727105859  1.0000
  N   N20       1.0  0.8852527930518478  0.8663966308516037  0.4051831025713851  1.0000
  N   N21       1.0  0.054644785416869  0.05630596851776908  0.9381417521483822  1.0000
  N   N22       1.0  0.9983354979127484  0.943709826278237  0.5618593840781116  1.0000
  N   N23       1.0  0.9453593737437842  0.9437062985162394  0.061847322472750835  1.0000
  N   N24       1.0  0.001669357400679395  0.0562855001592339  0.43813844244390043  1.0000
  O   O1        1.0  0.09823466781694622  0.793457642652214  0.9963291236005671  1.0000
  O   O2        1.0  0.3047773589651328  0.2065433958527834  0.5036698756738643  1.0000
  O   O3        1.0  0.9017600328490902  0.20653006598201526  0.0036727663908421985  1.0000
  O   O4        1.0  0.6952186479393136  0.7934483357043974  0.4963250279680763  1.0000
  O   O5        1.0  0.1430750278468267  0.7898472271197009  0.9066647205267911  1.0000
  O   O6        1.0  0.3532401417759062  0.21013291214405433  0.5933376276832616  1.0000
  O   O7        1.0  0.8569139304714002  0.21014027846673863  0.09333257967349337  1.0000
  O   O8        1.0  0.6467524179890703  0.7898519250349878  0.4066581062928518  1.0000
  O   O9        1.0  0.8182173741223835  0.630711906894845  0.9177624635797553  1.0000
  O   O10       1.0  0.18751450468444378  0.36929253763508285  0.5822437096384263  1.0000
  O   O11       1.0  0.1817961454996038  0.369299337916864  0.08224267421078926  1.0000
  O   O12       1.0  0.8124769889260224  0.6307042687591035  0.41776799090919065  1.0000
  O   O13       1.0  0.7118286380066154  0.6137046262038126  0.8413434047282209  1.0000
  O   O14       1.0  0.09813217226004405  0.38629655644036376  0.6586572418373533  1.0000
  O   O15       1.0  0.28819487214216366  0.38628006354369393  0.15864899142334105  1.0000
  O   O16       1.0  0.9018841867964653  0.613727417903142  0.34136146387444904  1.0000
