data_image0
_chemical_formula_structural       Zn8Te8H48C16N8
_chemical_formula_sum              "Zn8 Te8 H48 C16 N8"
_cell_length_a       6.923078616321901
_cell_length_b       6.97795236501596
_cell_length_c       21.653467876289536
_cell_angle_alpha    90.00018897097345
_cell_angle_beta     89.99883632934288
_cell_angle_gamma    89.99993356659981

_space_group_name_H-M_alt    "P 1"
_space_group_IT_number       1

loop_
  _space_group_symop_operation_xyz
  'x, y, z'

loop_
  _atom_site_type_symbol
  _atom_site_label
  _atom_site_symmetry_multiplicity
  _atom_site_fract_x
  _atom_site_fract_y
  _atom_site_fract_z
  _atom_site_occupancy
  Zn  Zn1       1.0  0.787967976154363  0.09302434485275062  0.7079905052400761  1.0000
  Zn  Zn2       1.0  0.21202750096497885  0.40697942207648197  0.2079935602614853  1.0000
  Zn  Zn3       1.0  0.2879641261726108  0.9070079187647336  0.7920063470816316  1.0000
  Zn  Zn4       1.0  0.7120364320966318  0.5929990346394617  0.292006886436603  1.0000
  Zn  Zn5       1.0  0.2120235415305203  0.9069645348463384  0.29200814427870364  1.0000
  Zn  Zn6       1.0  0.7879683501889189  0.5930266546222355  0.7920013946971167  1.0000
  Zn  Zn7       1.0  0.7120375024326577  0.09300389030224922  0.20799830607884218  1.0000
  Zn  Zn8       1.0  0.28796375221252657  0.40699987664554277  0.7079931485218793  1.0000
  Te  Te1       1.0  0.16076501508425883  0.054580022809148  0.6876695373140223  1.0000
  Te  Te2       1.0  0.8392347289447601  0.44542071848176334  0.18767069204068318  1.0000
  Te  Te3       1.0  0.6607658161382375  0.9454498343328694  0.812326699795065  1.0000
  Te  Te4       1.0  0.33922903065329996  0.5545386484475044  0.312333602598855  1.0000
  Te  Te5       1.0  0.8392279468136793  0.9454145892551652  0.3123360395009982  1.0000
  Te  Te6       1.0  0.16076256651708576  0.5545925236564598  0.8123284192963568  1.0000
  Te  Te7       1.0  0.33923292379137143  0.054551943117829196  0.1876714878905119  1.0000
  Te  Te8       1.0  0.6607639315297079  0.4454373334752617  0.6876631996279412  1.0000
  H   H1        1.0  0.5045430710227521  0.9424615044571639  0.651851259070895  1.0000
  H   H2        1.0  0.49547132440012837  0.5575500815124884  0.151853525201247  1.0000
  H   H3        1.0  0.004525614251271301  0.0575803819944838  0.8481491568232898  1.0000
  H   H4        1.0  0.9954516920814314  0.4424373825204809  0.3481525943455068  1.0000
  H   H5        1.0  0.49545566877107217  0.0575245090712357  0.3481506231626739  1.0000
  H   H6        1.0  0.5045389709390166  0.4424717591277201  0.8481492806603939  1.0000
  H   H7        1.0  0.9954543479194913  0.942442891767584  0.1518490309332279  1.0000
  H   H8        1.0  0.0045412700024841  0.5575543633517626  0.6518474406301492  1.0000
  H   H9        1.0  0.6867124217866305  0.7991139089076355  0.6373716394911709  1.0000
  H   H10       1.0  0.3132899554430111  0.7008803664494109  0.13737519665563977  1.0000
  H   H11       1.0  0.18670861878656816  0.2009158544910861  0.8626299823478404  1.0000
  H   H12       1.0  0.8132850390173872  0.29908482658837693  0.3626306405502148  1.0000
  H   H13       1.0  0.313274762461525  0.2008592068733677  0.3626297809491347  1.0000
  H   H14       1.0  0.6867145621220344  0.29912141100714956  0.8626271473905617  1.0000
  H   H15       1.0  0.8132872322500762  0.7990787575390146  0.1373682053417866  1.0000
  H   H16       1.0  0.18671658988001383  0.700895454568787  0.6373647761937846  1.0000
  H   H17       1.0  0.6364617637691056  0.18033052849195033  0.5794250096680003  1.0000
  H   H18       1.0  0.3635655423389253  0.31967222957529623  0.07943118909913949  1.0000
  H   H19       1.0  0.13645485724119774  0.8197022826512351  0.920567680073482  1.0000
  H   H20       1.0  0.8635109831198521  0.6803056796237996  0.42057434382751063  1.0000
  H   H21       1.0  0.36352108730143584  0.8196397211084375  0.42057179258564753  1.0000
  H   H22       1.0  0.636485197580477  0.6803567764013393  0.920567460266632  1.0000
  H   H23       1.0  0.8635149935936968  0.1803324558375792  0.0794374350180291  1.0000
  H   H24       1.0  0.13647475659217184  0.3196703023410095  0.5794298475378026  1.0000
  H   H25       1.0  0.802140164440644  0.0013779281034090002  0.5563375576045644  1.0000
  H   H26       1.0  0.19787426274216102  0.49860745180755833  0.0563445130656817  1.0000
  H   H27       1.0  0.30214637548252915  0.9986370872451005  0.9436564379386354  1.0000
  H   H28       1.0  0.6978496769769934  0.5013423944441869  0.44366340853503766  1.0000
  H   H29       1.0  0.19784990880434353  0.9985937545745286  0.4436606300875283  1.0000
  H   H30       1.0  0.8021548104507302  0.5013943255955766  0.9436555218072158  1.0000
  H   H31       1.0  0.6978451421735486  0.0013790210775184  0.05634359705736361  1.0000
  H   H32       1.0  0.30215050728973847  0.498616390458082  0.5563370882169423  1.0000
  H   H33       1.0  0.5302714888865552  0.7918494289955974  0.5216779380807707  1.0000
  H   H34       1.0  0.4697430669144752  0.7081496708555334  0.0216791719651823  1.0000
  H   H35       1.0  0.030274294671869508  0.20815510424863953  0.978328787409275  1.0000
  H   H36       1.0  0.9697317398635478  0.2918464846620025  0.47832895063569225  1.0000
  H   H37       1.0  0.46972869542906176  0.20811222207155566  0.47832117321370765  1.0000
  H   H38       1.0  0.5302686729176429  0.29187503594695124  0.978322248434594  1.0000
  H   H39       1.0  0.9697302229934551  0.7918796341576025  0.0216712475595742  1.0000
  H   H40       1.0  0.030271333314672702  0.7081237649145253  0.5216710842952637  1.0000
  H   H41       1.0  0.36116222157506433  0.9544620333925025  0.5536438752968067  1.0000
  H   H42       1.0  0.638858833393151  0.5455358841772053  0.0536420247031728  1.0000
  H   H43       1.0  0.8611570669470581  0.04555420179534761  0.9463594610961577  1.0000
  H   H44       1.0  0.13883380229759723  0.4544614671172483  0.4463537851565961  1.0000
  H   H45       1.0  0.6388321849574937  0.045489586088954995  0.4463552360085927  1.0000
  H   H46       1.0  0.3611731287213829  0.4545160512014021  0.9463580101938476  1.0000
  H   H47       1.0  0.13883011725972244  0.9544977336804764  0.05364473031455928  1.0000
  H   H48       1.0  0.8611678265333466  0.5455130817065097  0.5536434788628029  1.0000
  C   C1        1.0  0.6555068199124322  0.024247437589096397  0.5745609636716225  1.0000
  C   C2        1.0  0.3445193716603471  0.4757495499631189  0.0745646921069749  1.0000
  C   C3        1.0  0.1554925693999181  0.9757695408202803  0.9254362289545526  1.0000
  C   C4        1.0  0.8444772742743752  0.5242198295276738  0.42543910882901764  1.0000
  C   C5        1.0  0.3444846977590785  0.9757213789177187  0.4254376858340052  1.0000
  C   C6        1.0  0.6555154793763266  0.524259392848137  0.9254334954739676  1.0000
  C   C7        1.0  0.8444873926232291  0.02424370136195359  0.0745661151735106  1.0000
  C   C8        1.0  0.15551568784217554  0.4757504200616936  0.5745595406731779  1.0000
  C   C9        1.0  0.5029915203689015  0.94526557889327  0.5305187374789071  1.0000
  C   C10       1.0  0.49701810255280066  0.5547264249180017  0.030521452359771203  1.0000
  C   C11       1.0  0.002997610050918801  0.0547462183383089  0.9694826113590835  1.0000
  C   C12       1.0  0.9970032466162736  0.4452638996739609  0.4694814250695387  1.0000
  C   C13       1.0  0.49699999728407823  0.0546989383598699  0.4694803738437018  1.0000
  C   C14       1.0  0.5030066372553392  0.4453140458014104  0.9694808916505622  1.0000
  C   C15       1.0  0.9969982409869118  0.9452971185909506  0.030516500002058  1.0000
  C   C16       1.0  0.002996937739261801  0.5547106491560356  0.5305167625938196  1.0000
  N   N1        1.0  0.6463186474601913  0.9412043746294999  0.6370795229917405  1.0000
  N   N2        1.0  0.35368663843132714  0.5588099616279648  0.1370844965836682  1.0000
  N   N3        1.0  0.14632619075614167  0.05884273174019229  0.8629191106854533  1.0000
  N   N4        1.0  0.8536732251536279  0.44117514862835355  0.3629220196832392  1.0000
  N   N5        1.0  0.35366998131416955  0.05877447348048288  0.3629195883490013  1.0000
  N   N6        1.0  0.6463164347320572  0.4412319422139462  0.8629173856734125  1.0000
  N   N7        1.0  0.853686993533451  0.9412020382519586  0.1370823097231053  1.0000
  N   N8        1.0  0.14633129246831797  0.5588180303099861  0.6370784770781626  1.0000
