data_image0
_chemical_formula_structural       Cu4H16C32N20
_chemical_formula_sum              "Cu4 H16 C32 N20"
_cell_length_a       8.06007886583237
_cell_length_b       9.196318499608662
_cell_length_c       10.354768863099004
_cell_angle_alpha    90.00043351051833
_cell_angle_beta     90.00025386863973
_cell_angle_gamma    90.37039113808815

_space_group_name_H-M_alt    "P 1"
_space_group_IT_number       1

loop_
  _space_group_symop_operation_xyz
  'x, y, z'

loop_
  _atom_site_type_symbol
  _atom_site_label
  _atom_site_symmetry_multiplicity
  _atom_site_fract_x
  _atom_site_fract_y
  _atom_site_fract_z
  _atom_site_occupancy
  Cu  Cu1       1.0  0.3520291256403851  0.8843410203737393  0.9154397659847716  1.0000
  Cu  Cu2       1.0  0.647972354176119  0.6156588210203041  0.41543691512241304  1.0000
  Cu  Cu3       1.0  0.6479698075196579  0.1156560727243203  0.08456353296664079  1.0000
  Cu  Cu4       1.0  0.3520315911674246  0.3843415041496243  0.5845634866328879  1.0000
  H   H1        1.0  0.36517144015181197  0.5769359580407425  0.9347264876532149  1.0000
  H   H2        1.0  0.6348263933531372  0.9230618960567939  0.4347217931824331  1.0000
  H   H3        1.0  0.6348312645969402  0.423064374653535  0.0652748798385261  1.0000
  H   H4        1.0  0.36517639440103977  0.07694387358348109  0.5652805400663183  1.0000
  H   H5        1.0  0.08285012120325772  0.3761640361265179  0.32350645791069604  1.0000
  H   H6        1.0  0.917149068197723  0.12384648043978794  0.8234979596181443  1.0000
  H   H7        1.0  0.9171450735528238  0.6238319921273004  0.6764929780761546  1.0000
  H   H8        1.0  0.0828523959453591  0.8761538597623187  0.17650051065562877  1.0000
  H   H9        1.0  0.16278946783435796  0.37859427341655316  0.9095196874058046  1.0000
  H   H10       1.0  0.8372137122594339  0.1214028200593091  0.40950884994386877  1.0000
  H   H11       1.0  0.8372156683050843  0.6214027820680458  0.09048071434060027  1.0000
  H   H12       1.0  0.16278778508744546  0.8785996949236717  0.590490586075873  1.0000
  H   H13       1.0  0.29081296470879897  0.5727275549313122  0.3478962471539617  1.0000
  H   H14       1.0  0.7091883336739073  0.9272847575206455  0.8478900212094089  1.0000
  H   H15       1.0  0.7091810392622689  0.427271743024356  0.6521070517961787  1.0000
  H   H16       1.0  0.2908131470669843  0.07271667006570232  0.1521074833294449  1.0000
  C   C1        1.0  0.10956035806824362  0.3635353431800397  0.11496293744056629  1.0000
  C   C2        1.0  0.890436398942583  0.13647231022287798  0.6149621558383698  1.0000
  C   C3        1.0  0.8904361602934897  0.6364661145036906  0.8850384300440624  1.0000
  C   C4        1.0  0.10956392421438468  0.8635345618420731  0.3850392116711419  1.0000
  C   C5        1.0  0.34270995585780645  0.5888059849599117  0.14311055638199116  1.0000
  C   C6        1.0  0.6572937608854588  0.9111947672575981  0.6431079025528134  1.0000
  C   C7        1.0  0.6572877699030782  0.41119329043097963  0.8568917768360292  1.0000
  C   C8        1.0  0.3427089106486107  0.088803390639292  0.3568886362385583  1.0000
  C   C9        1.0  0.4623625050671265  0.7079133202882701  0.1555402230478506  1.0000
  C   C10       1.0  0.5376351617386845  0.7920930127656263  0.6555382789733456  1.0000
  C   C11       1.0  0.537632756093835  0.29208705752317604  0.84446017869233  1.0000
  C   C12       1.0  0.46236382121209363  0.207907342481036  0.3444611570347148  1.0000
  C   C13       1.0  0.30533367995492716  0.5325195702727117  0.0202133042537298  1.0000
  C   C14       1.0  0.694666863021382  0.9674801460419791  0.520209228787607  1.0000
  C   C15       1.0  0.6946664937971787  0.46747751529687787  0.9797880632226493  1.0000
  C   C16       1.0  0.305334684121675  0.03252563109786881  0.4797882757659764  1.0000
  C   C17       1.0  0.14649509641204617  0.4188565729102153  0.23873514472143137  1.0000
  C   C18       1.0  0.8535047894784783  0.08114886168770853  0.7387299983541594  1.0000
  C   C19       1.0  0.8534989075481434  0.5811427250289398  0.7612642912743083  1.0000
  C   C20       1.0  0.1464954506676293  0.9188525734229884  0.26126847192113434  1.0000
  C   C21       1.0  0.1910091766544255  0.42067371647103624  0.0054948708813995  1.0000
  C   C22       1.0  0.808986913643963  0.07932973863545101  0.5054866583109359  1.0000
  C   C23       1.0  0.8089934616921679  0.5793222666697488  0.994506496595612  1.0000
  C   C24       1.0  0.1910121689127706  0.9206771409455853  0.49451374345782273  1.0000
  C   C25       1.0  0.985545591732695  0.25570222506484447  0.09815350576919708  1.0000
  C   C26       1.0  0.014446041768721298  0.2443009651368229  0.5981561582467592  1.0000
  C   C27       1.0  0.014447155026715603  0.7442959930020266  0.9018449644820947  1.0000
  C   C28       1.0  0.9855467382108214  0.7556994277356923  0.4018490721821095  1.0000
  C   C29       1.0  0.2627624898488178  0.5301294991360166  0.2520793335600828  1.0000
  C   C30       1.0  0.7372418077687612  0.9698700101334481  0.7520763898201891  1.0000
  C   C31       1.0  0.7372364599063204  0.46986868134216325  0.7479220339178099  1.0000
  C   C32       1.0  0.26275836596430213  0.030127075407236196  0.2479182174859743  1.0000
  N   N1        1.0  0.47913204941105647  0.8186242564756797  0.0705063749478043  1.0000
  N   N2        1.0  0.5208700175932747  0.681375882410407  0.5705065250851432  1.0000
  N   N3        1.0  0.5208631619455631  0.18137285916650822  0.929493061042727  1.0000
  N   N4        1.0  0.47913022255827536  0.3186255527085464  0.42949387666735817  1.0000
  N   N5        1.0  0.6014869935056453  0.9038433449664467  0.11890390098631799  1.0000
  N   N6        1.0  0.39852149942652915  0.5961539080256272  0.618905944809299  1.0000
  N   N7        1.0  0.3985119064451581  0.0961515733424818  0.8810965007419326  1.0000
  N   N8        1.0  0.6014824293219193  0.4038453297641881  0.38109638841951465  1.0000
  N   N9        1.0  0.8773577273566743  0.17214390164249244  0.08127385525300207  1.0000
  N   N10       1.0  0.1226487977818635  0.3278655782823208  0.5812716558267255  1.0000
  N   N11       1.0  0.12265247076788197  0.8278596480790978  0.9187236493083331  1.0000
  N   N12       1.0  0.8773590187590726  0.6721445108223278  0.4187287459681954  1.0000
  N   N13       1.0  0.5732650285516528  0.7250578040736286  0.2526725329863382  1.0000
  N   N14       1.0  0.4267393056194421  0.7749438850597343  0.7526729803582979  1.0000
  N   N15       1.0  0.42673019940822593  0.2749403989610713  0.747327868746481  1.0000
  N   N16       1.0  0.5732621751296206  0.22505754253900542  0.2473274213963634  1.0000
  N   N17       1.0  0.6588150032800542  0.8474808283075533  0.2268782168983492  1.0000
  N   N18       1.0  0.34119409812198137  0.6525173480071018  0.726879471831097  1.0000
  N   N19       1.0  0.34118141547844527  0.1525141050459311  0.7731231505641813  1.0000
  N   N20       1.0  0.6588098306237454  0.34748188977858524  0.2731218956591164  1.0000
