data_image0
_chemical_formula_structural       Dy4H24C40N4O32
_chemical_formula_sum              "Dy4 H24 C40 N4 O32"
_cell_length_a       8.192213532311388
_cell_length_b       10.971216593026952
_cell_length_c       13.019130676743002
_cell_angle_alpha    89.99974853118464
_cell_angle_beta     93.61496687430251
_cell_angle_gamma    90.0000508614294

_space_group_name_H-M_alt    "P 1"
_space_group_IT_number       1

loop_
  _space_group_symop_operation_xyz
  'x, y, z'

loop_
  _atom_site_type_symbol
  _atom_site_label
  _atom_site_symmetry_multiplicity
  _atom_site_fract_x
  _atom_site_fract_y
  _atom_site_fract_z
  _atom_site_occupancy
  Dy  Dy1       1.0  0.5462759596848701  0.5495339963136772  0.19245943890280162  1.0000
  Dy  Dy2       1.0  0.9537189910974816  0.0495278183679133  0.8075410583519442  1.0000
  Dy  Dy3       1.0  0.45371378020695374  0.4504731590480091  0.8075384482864508  1.0000
  Dy  Dy4       1.0  0.04628541556975559  0.9504665763258797  0.1924605028327164  1.0000
  H   H1        1.0  0.43768694028005933  0.8007192190553241  0.2666979941310784  1.0000
  H   H2        1.0  0.06231212540550499  0.3007195473760191  0.7333038102810222  1.0000
  H   H3        1.0  0.5623125844248023  0.19927791007319232  0.7333002944043301  1.0000
  H   H4        1.0  0.9376886041211278  0.6992739358349951  0.2666999043926594  1.0000
  H   H5        1.0  0.6265896726550366  0.8100009023693528  0.24329396939923237  1.0000
  H   H6        1.0  0.8734116010636725  0.30999767001383566  0.7567073592377156  1.0000
  H   H7        1.0  0.37341106209562  0.18999622674944314  0.7567082092775905  1.0000
  H   H8        1.0  0.1265891441313087  0.6899976361610739  0.243291747462095  1.0000
  H   H9        1.0  0.9274762229837562  0.5810851458144909  0.7841887545136929  1.0000
  H   H10       1.0  0.5725297745346792  0.0810836173327871  0.21580823851638087  1.0000
  H   H11       1.0  0.07252575314940658  0.4189156292223474  0.21580809835679557  1.0000
  H   H12       1.0  0.4274697527807021  0.9189116888458384  0.7841892820272847  1.0000
  H   H13       1.0  0.0422362975772543  0.7319225860591416  0.6630446931496863  1.0000
  H   H14       1.0  0.4577822972465669  0.23192888665399639  0.3369535582930255  1.0000
  H   H15       1.0  0.9577668964347695  0.26807636602209334  0.3369537458802938  1.0000
  H   H16       1.0  0.5422257917867768  0.768073711334118  0.6630443133990555  1.0000
  H   H17       1.0  0.9532904218175985  0.7172367743955518  0.4720751198171911  1.0000
  H   H18       1.0  0.5467217971449613  0.21723724994692617  0.5279231606042529  1.0000
  H   H19       1.0  0.046713992687159596  0.28276673506367433  0.5279241373654813  1.0000
  H   H20       1.0  0.45328505834079635  0.7827644365569665  0.472077732903891  1.0000
  H   H21       1.0  0.6426876147119529  0.4172979930357599  0.5491519152987792  1.0000
  H   H22       1.0  0.8573125391710904  0.9172966526436496  0.4508443616160704  1.0000
  H   H23       1.0  0.3573155897466336  0.582704604957243  0.4508434517441557  1.0000
  H   H24       1.0  0.1426857545993059  0.082704122382367  0.5491561807319485  1.0000
  C   C1        1.0  0.8927283153687996  0.5830286138124734  0.7024093105365381  1.0000
  C   C2        1.0  0.6072703399000048  0.08302485980213699  0.2975889103630323  1.0000
  C   C3        1.0  0.10726999145905582  0.4169748956513715  0.2975873918310228  1.0000
  C   C4        1.0  0.39272673860020285  0.9169713578498814  0.7024092778421078  1.0000
  C   C5        1.0  0.9549867071777244  0.6639150133887313  0.6330038253819268  1.0000
  C   C6        1.0  0.5450132398405428  0.16391085665875238  0.3669933809855834  1.0000
  C   C7        1.0  0.04501159965013099  0.3360884960751207  0.366992876985627  1.0000
  C   C8        1.0  0.4549887310693422  0.8360880954222054  0.633005007878424  1.0000
  C   C9        1.0  0.9050952310293212  0.6560793094234755  0.5287561500343401  1.0000
  C   C10       1.0  0.5949083815111678  0.15607920062679884  0.4712404675711355  1.0000
  C   C11       1.0  0.0949091913088651  0.34392328856581145  0.471240803164747  1.0000
  C   C12       1.0  0.4050960329924748  0.8439215744045967  0.5287587896165604  1.0000
  C   C13       1.0  0.791034004492353  0.5667720306710109  0.49661071908412413  1.0000
  C   C14       1.0  0.7089719943991283  0.0667754763712622  0.5033824864640764  1.0000
  C   C15       1.0  0.2089765542451971  0.43322692143188146  0.5033803409907947  1.0000
  C   C16       1.0  0.2910324201045142  0.9332252986601405  0.4966167707236124  1.0000
  C   C17       1.0  0.7317709586172966  0.48774412464221945  0.5686668802901167  1.0000
  C   C18       1.0  0.7682267909051035  0.9877391806281466  0.43133364586275047  1.0000
  C   C19       1.0  0.2682322458427819  0.5122621192545578  0.431328486746132  1.0000
  C   C20       1.0  0.23177027192786434  0.012257948487814497  0.5686691503112442  1.0000
  C   C21       1.0  0.7232325303901845  0.5546979706696504  0.3873439926050324  1.0000
  C   C22       1.0  0.7767746765225993  0.0546990697588114  0.6126508433931193  1.0000
  C   C23       1.0  0.2767743538195262  0.445303715856248  0.6126484529571314  1.0000
  C   C24       1.0  0.2232333968394187  0.9452944134578657  0.38735163628621183  1.0000
  C   C25       1.0  0.728996104504624  0.7002880983000139  0.009021721747245704  1.0000
  C   C26       1.0  0.7709940717251128  0.2002863127212393  0.9909795578366527  1.0000
  C   C27       1.0  0.270988714252077  0.2997126767069672  0.9909844127357984  1.0000
  C   C28       1.0  0.2290054425350405  0.7997117278752198  0.009021802677438  1.0000
  C   C29       1.0  0.8026101984501112  0.8216558679681752  0.9959005968535733  1.0000
  C   C30       1.0  0.6973800742544398  0.3216555246281487  0.004101005527232399  1.0000
  C   C31       1.0  0.1973844025143165  0.17834946441872998  0.004106706943964901  1.0000
  C   C32       1.0  0.30261576809025575  0.6783479848211512  0.9959009724740041  1.0000
  C   C33       1.0  0.7457181521402559  0.8212514392556756  0.8861926086160352  1.0000
  C   C34       1.0  0.7542672173798904  0.3212496512173928  0.1138118665673957  1.0000
  C   C35       1.0  0.2542801311854461  0.17875024723828398  0.11381100571066578  1.0000
  C   C36       1.0  0.24572495043398848  0.6787493008473504  0.8861914969344583  1.0000
  C   C37       1.0  0.6717280201279293  0.700109849186262  0.8985524052575967  1.0000
  C   C38       1.0  0.828260927631284  0.20010726326069764  0.1014503608058135  1.0000
  C   C39       1.0  0.3282629376408935  0.29989092584009575  0.10144706809950318  1.0000
  C   C40       1.0  0.1717361299795215  0.7998907773272138  0.8985539713566908  1.0000
  N   N1        1.0  0.7820314075224533  0.4968012155098974  0.6694509521060324  1.0000
  N   N2        1.0  0.717966344171131  0.9967949397140429  0.3305510768166613  1.0000
  N   N3        1.0  0.2179668993072639  0.5032068513336725  0.3305457502531651  1.0000
  N   N4        1.0  0.28203071343855873  0.0032003664460375993  0.6694532553508595  1.0000
  O   O1        1.0  0.7231250498581473  0.4194951003783984  0.7366197116403015  1.0000
  O   O2        1.0  0.7768860771779131  0.9194883019454707  0.263387760650204  1.0000
  O   O3        1.0  0.2768732648035126  0.5805084090914434  0.2633746867419902  1.0000
  O   O4        1.0  0.22311707504898237  0.0804988009164944  0.7366229663229191  1.0000
  O   O5        1.0  0.5313574769640964  0.7536698350280985  0.2430496343069706  1.0000
  O   O6        1.0  0.9686437481550455  0.25366848773276013  0.7569526689525716  1.0000
  O   O7        1.0  0.46864327606506617  0.2463263826287516  0.756947168405901  1.0000
  O   O8        1.0  0.0313545377789453  0.746325906955647  0.2430501773924121  1.0000
  O   O9        1.0  0.7919316829896772  0.6083239565978148  0.3153492283695059  1.0000
  O   O10       1.0  0.7080706752931363  0.1083200778189237  0.6846452102655789  1.0000
  O   O11       1.0  0.20807886530354838  0.39167681844896407  0.6846449036824254  1.0000
  O   O12       1.0  0.2919361801885286  0.8916715824495822  0.31535568326094676  1.0000
  O   O13       1.0  0.5923037607243558  0.49267932444137597  0.3706237711089742  1.0000
  O   O14       1.0  0.9076952472645203  0.9926743538499704  0.6293675711657869  1.0000
  O   O15       1.0  0.40769089769168687  0.5073351227489695  0.6293666367799063  1.0000
  O   O16       1.0  0.09230793891072149  0.007317306417711201  0.37063317186282774  1.0000
  O   O17       1.0  0.7230993360490173  0.6296302840901548  0.0847406924787677  1.0000
  O   O18       1.0  0.7768895463368679  0.12962889657556076  0.9152646360975254  1.0000
  O   O19       1.0  0.2768940470346807  0.3703723138726432  0.9152650251676349  1.0000
  O   O20       1.0  0.22310872392876746  0.8703636751489653  0.0847428182213292  1.0000
  O   O21       1.0  0.8814401565708679  0.8961942945722329  0.0526343969018441  1.0000
  O   O22       1.0  0.6185624184533153  0.3961926345666528  0.9473643617423875  1.0000
  O   O23       1.0  0.1185667041370522  0.10380648045971702  0.9473649606177901  1.0000
  O   O24       1.0  0.381444400477669  0.6038163437168009  0.052647283683619206  1.0000
  O   O25       1.0  0.7561276843801891  0.8931889644677613  0.8115205387907665  1.0000
  O   O26       1.0  0.743863861990576  0.3931831349007097  0.1884831553570052  1.0000
  O   O27       1.0  0.24387671445733622  0.10681545645541489  0.1884833263607675  1.0000
  O   O28       1.0  0.2561307650850395  0.6068185516024157  0.8115164684963362  1.0000
  O   O29       1.0  0.5946444461006452  0.6298479516708754  0.8360220023973567  1.0000
  O   O30       1.0  0.9053407671596503  0.12985420630275263  0.1639831748685694  1.0000
  O   O31       1.0  0.4053501783637047  0.3701537348302537  0.16397838945107418  1.0000
  O   O32       1.0  0.09464896489539139  0.8701456572453877  0.8360170163193247  1.0000
