data_image0
_chemical_formula_structural       Cu2H36Au4C24N12
_chemical_formula_sum              "Cu2 H36 Au4 C24 N12"
_cell_length_a       8.497125287607602
_cell_length_b       9.448508150074776
_cell_length_c       10.81738631708125
_cell_angle_alpha    89.99958056511792
_cell_angle_beta     90.00024003195814
_cell_angle_gamma    101.83804639420113

_space_group_name_H-M_alt    "P 1"
_space_group_IT_number       1

loop_
  _space_group_symop_operation_xyz
  'x, y, z'

loop_
  _atom_site_type_symbol
  _atom_site_label
  _atom_site_symmetry_multiplicity
  _atom_site_fract_x
  _atom_site_fract_y
  _atom_site_fract_z
  _atom_site_occupancy
  Cu  Cu1       1.0  0.5646113509986462  0.1559376453393213  0.7723182203821253  1.0000
  Cu  Cu2       1.0  0.4353919411558421  0.8440670515185288  0.2723243949171987  1.0000
  H   H1        1.0  0.34606986807315115  0.1298951983395398  0.928196635831668  1.0000
  H   H2        1.0  0.6539426493561039  0.8701050456801906  0.428197811332943  1.0000
  H   H3        1.0  0.4286581587799602  0.4392727773913235  0.8730382691550602  1.0000
  H   H4        1.0  0.5713393670605527  0.5607300846261011  0.3730439486605874  1.0000
  H   H5        1.0  0.5514754917587653  0.4017631232274681  0.6949428905940991  1.0000
  H   H6        1.0  0.4485225657351464  0.5982410923487151  0.1949506983673928  1.0000
  H   H7        1.0  0.2152268305786578  0.3654882812745798  0.0312581076816372  1.0000
  H   H8        1.0  0.7847779755596708  0.6345030987370137  0.5312597275022597  1.0000
  H   H9        1.0  0.11070370839772178  0.23079814050964836  0.9311920265605025  1.0000
  H   H10       1.0  0.8893013690136942  0.7691901965304454  0.4311946259654817  1.0000
  H   H11       1.0  0.16818138688385184  0.559045201711875  0.8885273335726113  1.0000
  H   H12       1.0  0.831813449128781  0.44094564737503106  0.388525396948694  1.0000
  H   H13       1.0  0.9836513416316424  0.4423421876752371  0.9242668849594864  1.0000
  H   H14       1.0  0.016346403602028665  0.5576451370157329  0.4242652193694951  1.0000
  H   H15       1.0  0.00893312929872539  0.4980030609740638  0.6965945851754185  1.0000
  H   H16       1.0  0.9910599076624041  0.501994662014006  0.1965909265384482  1.0000
  H   H17       1.0  0.9890516507229281  0.31161603141244837  0.7257359951936877  1.0000
  H   H18       1.0  0.01093981622275914  0.6883793096179429  0.22573623953982752  1.0000
  H   H19       1.0  0.30666146056132954  0.5277239733101878  0.6795825493251043  1.0000
  H   H20       1.0  0.6933275587317739  0.4722771341286246  0.1795882762707919  1.0000
  H   H21       1.0  0.205942598571859  0.39890599572483865  0.5712026465094766  1.0000
  H   H22       1.0  0.7940443529441057  0.6010937770812461  0.0712023235206516  1.0000
  H   H23       1.0  0.23881288850770943  0.19904751520078887  0.7114793760886187  1.0000
  H   H24       1.0  0.7611877590727617  0.8009522408682342  0.2114841236367866  1.0000
  H   H25       1.0  0.5603900037899693  0.17667026844459605  0.0672106669787098  1.0000
  H   H26       1.0  0.439626732832636  0.8233413674211363  0.5672136321797936  1.0000
  H   H27       1.0  0.4423984714902646  0.3085155375742943  0.0968697072189144  1.0000
  H   H28       1.0  0.5576162696189259  0.6914969591932376  0.5968766852003213  1.0000
  H   H29       1.0  0.6217848948585357  0.35431544077312077  0.0056093607164698  1.0000
  H   H30       1.0  0.37822356283958675  0.6456923549874176  0.5056206694236351  1.0000
  H   H31       1.0  0.5977638553559074  0.2862088858774214  0.5056268139838096  1.0000
  H   H32       1.0  0.40222874006695974  0.7137913727298226  0.0056364959128032  1.0000
  H   H33       1.0  0.4277445107997977  0.3684060962369528  0.48685833490030456  1.0000
  H   H34       1.0  0.5722444443981232  0.63159267386834  0.986863899443307  1.0000
  H   H35       1.0  0.40031724879518293  0.1789827086294267  0.5128365271615323  1.0000
  H   H36       1.0  0.5996730202139274  0.8210175005246042  0.012837842430293702  1.0000
  Au  Au1       1.0  0.014733244412440137  0.7962464940481695  0.7664201091705821  1.0000
  Au  Au2       1.0  0.9852640732850093  0.20375285174208094  0.2664276051998442  1.0000
  Au  Au3       1.0  0.9925544985816476  0.9722556513806068  0.0133381176884484  1.0000
  Au  Au4       1.0  0.0074432570911469  0.027741290898894995  0.5133374179826546  1.0000
  C   C1        1.0  0.23727041862695594  0.9081819025011911  0.7548757333708025  1.0000
  C   C2        1.0  0.7627114223313998  0.0918067473586603  0.2548878465717337  1.0000
  C   C3        1.0  0.8015372529748108  0.6644852133003667  0.7724371405596884  1.0000
  C   C4        1.0  0.1984714215696854  0.3355173064238528  0.2724301131227236  1.0000
  C   C5        1.0  0.8103471955273351  0.04047864797035319  0.9375058490754001  1.0000
  C   C6        1.0  0.18965284425647866  0.9595183081584224  0.4375086227413192  1.0000
  C   C7        1.0  0.8226707838294091  0.0884485525461827  0.5912316798615294  1.0000
  C   C8        1.0  0.17732657678590158  0.9115499619517067  0.0912374967641796  1.0000
  C   C9        1.0  0.34362525151500023  0.334820336469292  0.8636794601674324  1.0000
  C   C10       1.0  0.6563778720600838  0.6651815019068791  0.3636847425999079  1.0000
  C   C11       1.0  0.18868111956940228  0.3398434661863732  0.9335657576825441  1.0000
  C   C12       1.0  0.8113245375609922  0.6601524250361166  0.4335678825390943  1.0000
  C   C13       1.0  0.09854534310649402  0.4478319659749985  0.8757675652841499  1.0000
  C   C14       1.0  0.9014520488410512  0.5521600562289634  0.37576513739438866  1.0000
  C   C15       1.0  0.06993640271897308  0.41769174790678676  0.7380790877919168  1.0000
  C   C16       1.0  0.930060562764716  0.5823067323733253  0.23808025639316813  1.0000
  C   C17       1.0  0.22834291797131812  0.41991828024680433  0.6702662863181245  1.0000
  C   C18       1.0  0.7716498459652074  0.580083971378464  0.1702706480524157  1.0000
  C   C19       1.0  0.3144888130219528  0.3075798498257995  0.7256517037869301  1.0000
  C   C20       1.0  0.6855169123346914  0.6924262783872945  0.22565135883133539  1.0000
  C   C21       1.0  0.5178541479262933  0.26854390256720245  0.027930016755014695  1.0000
  C   C22       1.0  0.482161270278823  0.7314680351457525  0.527933715633452  1.0000
  C   C23       1.0  0.47468447917813716  0.28447128244426517  0.5363743411552235  1.0000
  C   C24       1.0  0.5253063742827492  0.7155309101672599  0.0363807173402222  1.0000
  N   N1        1.0  0.3704057296128412  0.972726613485186  0.7476124355004075  1.0000
  N   N2        1.0  0.6296043528525814  0.0272825834293542  0.2476171345056102  1.0000
  N   N3        1.0  0.6817710717559748  0.5766923998955845  0.7716292697464056  1.0000
  N   N4        1.0  0.3182277246305389  0.42329283770904164  0.2716220668319949  1.0000
  N   N5        1.0  0.706838905129381  0.08486367274810651  0.8899154818529027  1.0000
  N   N6        1.0  0.29316499040413646  0.9151358003840142  0.3899225795215173  1.0000
  N   N7        1.0  0.7132869364367737  0.12185857311322217  0.6404752657933628  1.0000
  N   N8        1.0  0.28671227791154047  0.8781417263810307  0.1404835060773735  1.0000
  N   N9        1.0  0.42845783707569746  0.2241035353411931  0.9131318289191199  1.0000
  N   N10       1.0  0.5715519178503642  0.7759054851367679  0.41313796605997777  1.0000
  N   N11       1.0  0.47423504604189054  0.3057448919303809  0.6709992131010409  1.0000
  N   N12       1.0  0.5257614989130417  0.6942584273458435  0.1710038795044824  1.0000
