data_image0
_chemical_formula_structural       Zn2H6C16N2O8
_chemical_formula_sum              "Zn2 H6 C16 N2 O8"
_cell_length_a       8.157696719668023
_cell_length_b       9.32616535184275
_cell_length_c       13.161824025275727
_cell_angle_alpha    89.9988755390237
_cell_angle_beta     102.97473931283544
_cell_angle_gamma    90.00280417967028

_space_group_name_H-M_alt    "P 1"
_space_group_IT_number       1

loop_
  _space_group_symop_operation_xyz
  'x, y, z'

loop_
  _atom_site_type_symbol
  _atom_site_label
  _atom_site_symmetry_multiplicity
  _atom_site_fract_x
  _atom_site_fract_y
  _atom_site_fract_z
  _atom_site_occupancy
  Zn  Zn1       1.0  0.33632890256824044  0.4999930903255673  0.48466723865838185  1.0000
  Zn  Zn2       1.0  0.6636458027595182  0.5000062067477271  0.5153287205586706  1.0000
  H   H1        1.0  0.7165167208330416  0.5000008335786743  0.19693126236325753  1.0000
  H   H2        1.0  0.283494871436055  0.4999984641705025  0.8030740026562029  1.0000
  H   H3        1.0  0.17782444073129963  0.4999983892274143  0.14826804968049598  1.0000
  H   H4        1.0  0.8221826025728802  0.4999987640461754  0.851727595022183  1.0000
  H   H5        1.0  0.8508210334502947  0.5000057553601989  0.0444505426496704  1.0000
  H   H6        1.0  0.1491924215116498  0.5000021205435914  0.9555473154112234  1.0000
  C   C1        1.0  0.5000022156148987  0.7797116099445417  0.500004625554169  1.0000
  C   C2        1.0  0.28823242881549754  0.49999800752537016  0.11462550741636329  1.0000
  C   C3        1.0  0.4066911753901791  0.4999982806684071  0.8565926959539354  1.0000
  C   C4        1.0  0.5933036303457371  0.5000031613156252  0.1434054321780565  1.0000
  C   C5        1.0  0.4182239812592243  0.5000013825805067  0.9654013854615755  1.0000
  C   C6        1.0  0.5817913149593321  0.5000032765139367  0.034603518407237674  1.0000
  C   C7        1.0  0.5000002829626097  0.9349222399532803  0.5000064586171503  1.0000
  C   C8        1.0  0.5000017793335587  0.06508241878303518  0.5000038643559677  1.0000
  C   C9        1.0  0.49999581763677264  0.2202855429860335  0.5000022195558671  1.0000
  C   C10       1.0  0.5351501370672338  0.500000964341787  0.7016150183132766  1.0000
  C   C11       1.0  0.4648473112562994  0.500001549927667  0.29838491653876525  1.0000
  C   C12       1.0  0.44986040352596035  0.5000006013683417  0.1832419654072766  1.0000
  C   C13       1.0  0.5501505386943109  0.49999976872020113  0.8167556215653775  1.0000
  C   C14       1.0  0.7268387760787148  0.5000012866487465  0.991545628112213  1.0000
  C   C15       1.0  0.27316971863354667  0.5000001556322999  0.008452455545530292  1.0000
  C   C16       1.0  0.7117736832552382  0.4999991456791476  0.8853738407501127  1.0000
  N   N1        1.0  0.9383853841091748  0.5000014892702822  0.511105582455663  1.0000
  N   N2        1.0  0.0616055437514405  0.49999351933391967  0.48887615069406104  1.0000
  O   O1        1.0  0.35692002934569433  0.7188262041469071  0.4875503539777455  1.0000
  O   O2        1.0  0.6430667187814194  0.28117845451067314  0.5124408183622791  1.0000
  O   O3        1.0  0.6430784217690542  0.7188352885632766  0.5124559944014493  1.0000
  O   O4        1.0  0.35691681764107125  0.2811565028997903  0.487561961119347  1.0000
  O   O5        1.0  0.3870544782944521  0.5000006754103694  0.6430419898695873  1.0000
  O   O6        1.0  0.6129406528472001  0.5000147058067907  0.35695997723354367  1.0000
  O   O7        1.0  0.6717158592354835  0.4999989879245559  0.6692323569028388  1.0000
  O   O8        1.0  0.3282813936694851  0.4999885148422648  0.3307652745905186  1.0000
