data_image0
_chemical_formula_structural       Ho4P4H36C32N4O36
_chemical_formula_sum              "Ho4 P4 H36 C32 N4 O36"
_cell_length_a       9.544405488582424
_cell_length_b       10.462942019014177
_cell_length_c       15.464897526686528
_cell_angle_alpha    90.0001650672487
_cell_angle_beta     101.99347905302447
_cell_angle_gamma    90.00005471270102

_space_group_name_H-M_alt    "P 1"
_space_group_IT_number       1

loop_
  _space_group_symop_operation_xyz
  'x, y, z'

loop_
  _atom_site_type_symbol
  _atom_site_label
  _atom_site_symmetry_multiplicity
  _atom_site_fract_x
  _atom_site_fract_y
  _atom_site_fract_z
  _atom_site_occupancy
  Ho  Ho1       1.0  0.2196184619567134  0.10370216884813033  0.3942271222931025  1.0000
  Ho  Ho2       1.0  0.2803856979304768  0.6037043511060247  0.10577844488956599  1.0000
  Ho  Ho3       1.0  0.7803628039735742  0.8962973327167066  0.6057722600002434  1.0000
  Ho  Ho4       1.0  0.7196394430186146  0.3963037522841404  0.8942299929409854  1.0000
  P   P1        1.0  0.1689264262726837  0.8517992307677175  0.23330492871350827  1.0000
  P   P2        1.0  0.3310750043015672  0.35179564524257506  0.2666975242237726  1.0000
  P   P3        1.0  0.8310698348660137  0.14820313807020113  0.7666964434800647  1.0000
  P   P4        1.0  0.6689298571364262  0.6482000333170888  0.7333024026689401  1.0000
  H   H1        1.0  0.33050527433346116  0.8684003154084152  0.9265736338642511  1.0000
  H   H2        1.0  0.1694749015517303  0.3684005456871304  0.5734165599909673  1.0000
  H   H3        1.0  0.6694803707951991  0.13160492066776192  0.07341856984447048  1.0000
  H   H4        1.0  0.8305086409206834  0.6315999116100316  0.4265721314694985  1.0000
  H   H5        1.0  0.3967913503603455  0.1030525032095468  0.9228889855673046  1.0000
  H   H6        1.0  0.10319476090158015  0.603053454879259  0.5771027745939958  1.0000
  H   H7        1.0  0.6031931999700078  0.8969527328699841  0.07710501278913992  1.0000
  H   H8        1.0  0.8967920264463201  0.39694795816883033  0.4228837608964041  1.0000
  H   H9        1.0  0.29680420593361123  0.256440473390434  0.020931626083076096  1.0000
  H   H10       1.0  0.20319174581589994  0.7564403571336058  0.4790660350056299  1.0000
  H   H11       1.0  0.7031867234857498  0.7435609396854164  0.9790670986486986  1.0000
  H   H12       1.0  0.7968035706981877  0.24355818866508366  0.5209248655377506  1.0000
  H   H13       1.0  0.1451613684372361  0.1687301083182149  0.12046242835207718  1.0000
  H   H14       1.0  0.35483867891974796  0.6687296985030715  0.37953819269913674  1.0000
  H   H15       1.0  0.8548338216101925  0.8312665259941812  0.879538801699745  1.0000
  H   H16       1.0  0.6451672931255246  0.3312669358046136  0.6204586483580883  1.0000
  H   H17       1.0  0.9984749985461434  0.8391546703429996  0.09690294928907407  1.0000
  H   H18       1.0  0.501523921991044  0.3391532937674455  0.40309787583841933  1.0000
  H   H19       1.0  0.0015266575358055016  0.1608390967047413  0.9030959056006294  1.0000
  H   H20       1.0  0.49847446550152313  0.6608376060252323  0.5969050718025031  1.0000
  H   H21       1.0  0.9915763112320517  0.9907593702745174  0.15145216044651727  1.0000
  H   H22       1.0  0.5084250309584987  0.4907568113955065  0.34854863341936937  1.0000
  H   H23       1.0  0.008417839343771  0.009235352523369001  0.8485463450900851  1.0000
  H   H24       1.0  0.4915851780009603  0.5092331326445958  0.6514526497390489  1.0000
  H   H25       1.0  0.0418984520102512  0.8260867321342289  0.331531116651604  1.0000
  H   H26       1.0  0.4581039877891938  0.32609143918747213  0.16847271363958774  1.0000
  H   H27       1.0  0.9580946037698364  0.1739108579293926  0.6684691835358335  1.0000
  H   H28       1.0  0.5419051263865098  0.6739147526761188  0.831530364184239  1.0000
  H   H29       1.0  0.015133788912073995  0.2312347743318384  0.2676773825029386  1.0000
  H   H30       1.0  0.4848748837775218  0.7312386278809486  0.23232903087858858  1.0000
  H   H31       1.0  0.9848625196484093  0.7687647272354637  0.7323201161210662  1.0000
  H   H32       1.0  0.5151448385118654  0.2687732985328708  0.7676838610338592  1.0000
  H   H33       1.0  0.8934656290767578  0.17128747977393033  0.3113694964114373  1.0000
  H   H34       1.0  0.6065425277719214  0.671285086647046  0.1886406351931882  1.0000
  H   H35       1.0  0.10652746622362488  0.8287101102828275  0.688627575803963  1.0000
  H   H36       1.0  0.3934803287249976  0.3287153707332918  0.8113791390573721  1.0000
  C   C1        1.0  0.29246042008509926  0.942001096066939  0.9656843391737339  1.0000
  C   C2        1.0  0.20752950370565765  0.4419983251776074  0.5343092309194546  1.0000
  C   C3        1.0  0.707530564665241  0.05800318426167911  0.03430986640030647  1.0000
  C   C4        1.0  0.7924593783875835  0.5580002206178706  0.4656814624052856  1.0000
  C   C5        1.0  0.32663052340394927  0.0704431889367285  0.9655718105174741  1.0000
  C   C6        1.0  0.17335871108339518  0.5704421076324805  0.5344228874310629  1.0000
  C   C7        1.0  0.6733583033668677  0.9295620471472361  0.03442340197540258  1.0000
  C   C8        1.0  0.8266280367416384  0.4295564381600911  0.46556687602825514  1.0000
  C   C9        1.0  0.27292763566965306  0.1548428431856621  0.0206406163426394  1.0000
  C   C10       1.0  0.22706812617993677  0.6548446602482799  0.47935746915136684  1.0000
  C   C11       1.0  0.7270665070063912  0.8451566583842334  0.9793585347935759  1.0000
  C   C12       1.0  0.7729293087942323  0.34515388555605137  0.520635652446245  1.0000
  C   C13       1.0  0.187050508748996  0.10640148090188012  0.0754529975800438  1.0000
  C   C14       1.0  0.312949426954475  0.6064002710783285  0.4245474877727986  1.0000
  C   C15       1.0  0.812945768194403  0.893597064916783  0.924547083420549  1.0000
  C   C16       1.0  0.6870522765535368  0.39359540746943383  0.5754474935525379  1.0000
  C   C17       1.0  0.15262799128353066  0.9769663581318186  0.0749765627660963  1.0000
  C   C18       1.0  0.34737476621440067  0.4769653729619919  0.425023722436947  1.0000
  C   C19       1.0  0.8473714910159128  0.0230340991987674  0.9250245902375055  1.0000
  C   C20       1.0  0.652629063659475  0.5230322170982971  0.5749728343503051  1.0000
  C   C21       1.0  0.06190475415889549  0.9184112073639313  0.1315532975978115  1.0000
  C   C22       1.0  0.43809786682862745  0.41840910346961385  0.36844944249949657  1.0000
  C   C23       1.0  0.9380968861192116  0.081587338457183  0.8684468484859095  1.0000
  C   C24       1.0  0.5619058840003744  0.5815837078337722  0.6315535702266359  1.0000
  C   C25       1.0  0.5412858185387178  0.03311619893497661  0.4677656710067594  1.0000
  C   C26       1.0  0.9587179250230733  0.533125867421582  0.03223390733606382  1.0000
  C   C27       1.0  0.4586827603346747  0.966873745050613  0.5322184481675265  1.0000
  C   C28       1.0  0.04131893463842569  0.4668793687255929  0.9677812587372114  1.0000
  C   C29       1.0  0.005842383454208299  0.0649016040860033  0.5244723648021505  1.0000
  C   C30       1.0  0.4941649626413989  0.5649179712457056  0.975531838942743  1.0000
  C   C31       1.0  0.9941399693660526  0.9350931187062271  0.47552586843268324  1.0000
  C   C32       1.0  0.5058612019797408  0.435101601202966  0.024480614602246913  1.0000
  N   N1        1.0  0.20676405635024508  0.8967106329666734  0.01922525571277589  1.0000
  N   N2        1.0  0.2932332177595427  0.39671079452193686  0.480772852898049  1.0000
  N   N3        1.0  0.7932344101897684  0.10328791284528188  0.9807712359923854  1.0000
  N   N4        1.0  0.7067620355220753  0.6032877512877378  0.5192232124005897  1.0000
  O   O1        1.0  0.2380515303422968  0.960331000650001  0.2917859331870716  1.0000
  O   O2        1.0  0.2619468813949766  0.4603299735817926  0.2082163296341975  1.0000
  O   O3        1.0  0.7619329409474673  0.03967423544325751  0.7082145211134474  1.0000
  O   O4        1.0  0.7380654539414664  0.5396743067744653  0.7917865289996584  1.0000
  O   O5        1.0  0.0581391610968893  0.7767639779501679  0.27814088129411363  1.0000
  O   O6        1.0  0.44186111140316336  0.2767631640282247  0.22185739258276269  1.0000
  O   O7        1.0  0.9418581790285712  0.22323456787063378  0.721859987436396  1.0000
  O   O8        1.0  0.5581395447317447  0.7232334702687809  0.778135509824885  1.0000
  O   O9        1.0  0.2760587771598608  0.7585223986925483  0.2078053545744822  1.0000
  O   O10       1.0  0.2239446284937401  0.25851787379946245  0.2921971795570428  1.0000
  O   O11       1.0  0.7239492580265079  0.24148474892577818  0.7921982267092815  1.0000
  O   O12       1.0  0.7760581144850248  0.7414787605086771  0.7078005262824759  1.0000
  O   O13       1.0  0.17191413275428147  0.7746302234220938  0.015204439940191597  1.0000
  O   O14       1.0  0.32808397794570954  0.2746323436493228  0.4847948362122238  1.0000
  O   O15       1.0  0.828089665502503  0.22536641088955625  0.9847946992236558  1.0000
  O   O16       1.0  0.6719091331619252  0.7253642906505674  0.5152009448133228  1.0000
  O   O17       1.0  0.676867589597819  0.0209246961562215  0.4858055127960981  1.0000
  O   O18       1.0  0.8231361479385767  0.5209408612254975  0.014192747822505684  1.0000
  O   O19       1.0  0.32311166060716795  0.9790547345484912  0.5141832556938581  1.0000
  O   O20       1.0  0.1768921746501064  0.4790643749100738  0.9858186987890816  1.0000
  O   O21       1.0  0.4682202281336457  0.09353976229478181  0.4036010589553384  1.0000
  O   O22       1.0  0.0317860715326219  0.5935455134407519  0.09640347918853817  1.0000
  O   O23       1.0  0.5317621483919411  0.9064473144603228  0.5963952374879468  1.0000
  O   O24       1.0  0.9682411799647923  0.4064539881692966  0.9036078252812982  1.0000
  O   O25       1.0  0.06592707436115569  0.15616079061751256  0.4933730507624928  1.0000
  O   O26       1.0  0.4340696581930529  0.656174151762805  0.00663357247623958  1.0000
  O   O27       1.0  0.9340529861028697  0.843826286166255  0.5066371644867614  1.0000
  O   O28       1.0  0.5659587750627322  0.3438425534030571  0.9933688358261249  1.0000
  O   O29       1.0  0.9514886038193352  0.0671911881731972  0.5928010391488172  1.0000
  O   O30       1.0  0.5485183379287901  0.5672068801862907  0.9072070183229923  1.0000
  O   O31       1.0  0.0484839827582277  0.9328006673717301  0.4072062443738602  1.0000
  O   O32       1.0  0.45152712205511847  0.4328174710440181  0.09280670247751738  1.0000
  O   O33       1.0  0.9816958749759477  0.1528299522860479  0.2917447271960754  1.0000
  O   O34       1.0  0.5183090750749031  0.6528323455512322  0.20826170985077397  1.0000
  O   O35       1.0  0.018302528334160698  0.8471714607992671  0.7082569292674776  1.0000
  O   O36       1.0  0.48170104695788035  0.3471776693405958  0.7917466748679799  1.0000
