data_image0
_chemical_formula_structural       Zn8H42C60N6O26
_chemical_formula_sum              "Zn8 H42 C60 N6 O26"
_cell_length_a       18.394091017102877
_cell_length_b       18.413953639627003
_cell_length_c       18.430946806815793
_cell_angle_alpha    119.69717834837674
_cell_angle_beta     90.63495830789068
_cell_angle_gamma    119.73642056081212

_space_group_name_H-M_alt    "P 1"
_space_group_IT_number       1

loop_
  _space_group_symop_operation_xyz
  'x, y, z'

loop_
  _atom_site_type_symbol
  _atom_site_label
  _atom_site_symmetry_multiplicity
  _atom_site_fract_x
  _atom_site_fract_y
  _atom_site_fract_z
  _atom_site_occupancy
  Zn  Zn1       1.0  0.95468191581908  0.41289160669094843  0.8691813879726523  1.0000
  Zn  Zn2       1.0  0.12830354216365697  0.5833871810757784  0.041641636615125315  1.0000
  Zn  Zn3       1.0  0.9550234418153566  0.41217034948530085  0.04333203502999797  1.0000
  Zn  Zn4       1.0  0.9550755480553335  0.5850446126842854  0.04563977250704449  1.0000
  Zn  Zn5       1.0  0.5460674753520252  0.5854900210352197  0.634124779720203  1.0000
  Zn  Zn6       1.0  0.5472259735334505  0.5843731004937283  0.45882882216385923  1.0000
  Zn  Zn7       1.0  0.37173849021650796  0.4112200353602375  0.45857401313119783  1.0000
  Zn  Zn8       1.0  0.543963910261603  0.4109591284121877  0.45981399128971395  1.0000
  H   H1        1.0  0.6101875836594884  0.45785189079808936  0.7827802873310787  1.0000
  H   H2        1.0  0.4132649658668798  0.09163716536231453  0.3005682392176752  1.0000
  H   H3        1.0  0.126712869500075  0.09740775877320831  0.3337330591651765  1.0000
  H   H4        1.0  0.1298791014656118  0.09335350293335411  0.2352516963439442  1.0000
  H   H5        1.0  0.033571661774388445  0.9067123533185891  0.24291199801554342  1.0000
  H   H6        1.0  0.08941551205894181  0.40378686177707124  0.2244529764600928  1.0000
  H   H7        1.0  0.1884012838073801  0.4050550647069571  0.3188326334368483  1.0000
  H   H8        1.0  0.4785307662358634  0.6955458617358802  0.3165154996574773  1.0000
  H   H9        1.0  0.45610892081246135  0.5826593403908548  0.2181943337743633  1.0000
  H   H10       1.0  0.8271819525221958  0.6682466364294086  0.7773720384103909  1.0000
  H   H11       1.0  0.4699236485269154  0.6227588438684464  0.8759087755082929  1.0000
  H   H12       1.0  0.6459155180527676  0.9033457023682916  0.5350367389025125  1.0000
  H   H13       1.0  0.46772288246084776  0.7171701325839166  0.8735106150747856  1.0000
  H   H14       1.0  0.37343082010614387  0.6225350161000449  0.9715597380941644  1.0000
  H   H15       1.0  0.3699063694433279  0.7158455154316385  0.9684247413008295  1.0000
  H   H16       1.0  0.8912732115747914  0.5424239672144466  0.7233089712050785  1.0000
  H   H17       1.0  0.6764737640940766  0.3349590904430214  0.7312035810193223  1.0000
  H   H18       1.0  0.7092717038405427  0.906585816423025  0.8212794720711615  1.0000
  H   H19       1.0  0.6772008056552112  0.07911693512197361  0.6249499515579019  1.0000
  H   H20       1.0  0.7780819058536537  0.1807823033339986  0.6617706668316004  1.0000
  H   H21       1.0  0.6584958692900784  0.2637063473008537  0.21174554774738397  1.0000
  H   H22       1.0  0.6145707859309297  0.31795050783129847  0.2879503112333737  1.0000
  H   H23       1.0  0.84027800979414  0.08610402510726092  0.622390509318123  1.0000
  H   H24       1.0  0.7678670475503253  0.6903672550612328  0.9426568343304922  1.0000
  H   H25       1.0  0.796214686711174  0.6327164912862601  0.9718185716145842  1.0000
  H   H26       1.0  0.04243187136941661  0.9171772148999157  0.08881242682950599  1.0000
  H   H27       1.0  0.9754706129543536  0.8146201400691666  0.08600936398242008  1.0000
  H   H28       1.0  0.3774878847785673  0.6994866862584885  0.2294192313393353  1.0000
  H   H29       1.0  0.3507001281505568  0.5136138316486978  0.0763825179150929  1.0000
  H   H30       1.0  0.31228892765324906  0.5754098375927228  0.07253943827134188  1.0000
  H   H31       1.0  0.08586948809597324  0.3782419558143459  0.6801755065039856  1.0000
  H   H32       1.0  0.18225039720044836  0.3796126107811091  0.586537304910415  1.0000
  H   H33       1.0  0.7180748071847987  0.3700433512400068  0.5984447577630334  1.0000
  H   H34       1.0  0.755327378029527  0.3465187457626513  0.15509110554921793  1.0000
  H   H35       1.0  0.8031085918649269  0.0971744159380776  0.9142315799050067  1.0000
  H   H36       1.0  0.7079508578929962  0.808277895789054  0.47914042504910276  1.0000
  H   H37       1.0  0.8095705576284973  0.9110433563188068  0.5394775489136522  1.0000
  H   H38       1.0  0.7164478159620203  0.6894999710577778  0.32173889823220503  1.0000
  H   H39       1.0  0.8060388854174576  0.7377001920550513  0.40918934704993865  1.0000
  H   H40       1.0  0.8132333852301771  0.6957193918480798  0.22646364596737814  1.0000
  H   H41       1.0  0.9029343150182145  0.745308004273639  0.3147275010748984  1.0000
  H   H42       1.0  0.31750070210087256  0.9012174604658939  0.2009273314951019  1.0000
  C   C1        1.0  0.13699275835345068  0.7735709759454396  0.1317806317574082  1.0000
  C   C2        1.0  0.7274274451876582  0.947186111513986  0.7899428704999708  1.0000
  C   C3        1.0  0.6966011481853728  0.8891435021112031  0.6962708268424223  1.0000
  C   C4        1.0  0.8612071610023688  0.22278146040349608  0.8602693148729728  1.0000
  C   C5        1.0  0.7210270403861474  0.9441600130255454  0.658891088479898  1.0000
  C   C6        1.0  0.7135754265326782  0.9346408486383881  0.570987119363295  1.0000
  C   C7        1.0  0.7743824602955343  0.05604936734973621  0.630107540187602  1.0000
  C   C8        1.0  0.7968310125831553  0.5794580358224054  0.246490865861226  1.0000
  C   C9        1.0  0.8028761235577663  0.49719135079138976  0.19403464681663962  1.0000
  C   C10       1.0  0.7516534012975596  0.4115051623388908  0.19581573389116616  1.0000
  C   C11       1.0  0.6956343697241536  0.40553275718509246  0.24782000455795847  1.0000
  C   C12       1.0  0.7942705327180588  0.5938419823151264  0.7671491687805272  1.0000
  C   C13       1.0  0.690976145763216  0.4911506016843037  0.30250268543379394  1.0000
  C   C14       1.0  0.7427763436491688  0.5752896082597942  0.2984384030702856  1.0000
  C   C15       1.0  0.7699586122672815  0.6830864022106484  0.33719237332432794  1.0000
  C   C16       1.0  0.13676185713540434  0.49499396531562206  0.8606636581298587  1.0000
  C   C17       1.0  0.831130539406381  0.6874983050229916  0.2777171802949709  1.0000
  C   C18       1.0  0.1579945535816024  0.9439826519063459  0.21351945660939015  1.0000
  C   C19       1.0  0.19378307975001274  0.8872715430014113  0.1878714210774747  1.0000
  C   C20       1.0  0.2875368470861021  0.943396189777211  0.22006368493653397  1.0000
  C   C21       1.0  0.34111030134644693  0.049985338147074315  0.2758905676624153  1.0000
  C   C22       1.0  0.3043848996381938  0.10692924540603599  0.3025312526040906  1.0000
  C   C23       1.0  0.8286432286863673  0.5242157223252519  0.7360850845695381  1.0000
  C   C24       1.0  0.21184168113781957  0.050869342383592205  0.2688989973958514  1.0000
  C   C25       1.0  0.1340408846560024  0.059408143797668296  0.268805239821134  1.0000
  C   C26       1.0  0.07140130775162157  0.9382857743087671  0.20811229235374665  1.0000
  C   C27       1.0  0.2870100700234347  0.5551776035943092  0.21621991260367696  1.0000
  C   C28       1.0  0.8607567659416446  0.49850966451059975  0.1384153793766387  1.0000
  C   C29       1.0  0.19531875700635493  0.5014136329619988  0.19857442392815736  1.0000
  C   C30       1.0  0.1608887715960847  0.44698939485557077  0.23702904792597218  1.0000
  C   C31       1.0  0.21636111824278012  0.4476816653165302  0.2898343610989117  1.0000
  C   C32       1.0  0.3092758522107956  0.5021218744604709  0.30708066007468904  1.0000
  C   C33       1.0  0.3426479444802696  0.5552024596782063  0.26834891375158787  1.0000
  C   C34       1.0  0.7334009893321323  0.4282137636283566  0.667685922986422  1.0000
  C   C35       1.0  0.4257880721743917  0.621117518063059  0.25591334846483704  1.0000
  C   C36       1.0  0.36375555957955913  0.6232013695494986  0.19787553127918772  1.0000
  C   C37       1.0  0.2872876014145477  0.5611575965605056  0.8418713052995201  1.0000
  C   C38       1.0  0.1945789959310177  0.4957411059215461  0.8049520171469738  1.0000
  C   C39       1.0  0.15810848915133152  0.43015272176148045  0.7111990320902707  1.0000
  C   C40       1.0  0.13670968927984725  0.5004227171078313  0.14151686151035398  1.0000
  C   C41       1.0  0.21207984334296984  0.4309272828376933  0.6587277411590692  1.0000
  C   C42       1.0  0.30595895780034243  0.4973882153248185  0.6966290953610255  1.0000
  C   C43       1.0  0.3413706874568945  0.5619860631055573  0.789158089105584  1.0000
  C   C44       1.0  0.42687750152578025  0.6455664111340694  0.8684889391272036  1.0000
  C   C45       1.0  0.708518221212728  0.4085902006399706  0.7400980293148649  1.0000
  C   C46       1.0  0.3657782329656739  0.6447715191079337  0.9281226534367447  1.0000
  C   C47       1.0  0.6373938328298437  0.4939184903084453  0.3611408835727445  1.0000
  C   C48       1.0  0.3628853881631571  0.4973280949438816  0.6399046904741041  1.0000
  C   C49       1.0  0.6400568729427577  0.7752099358259273  0.640793675803238  1.0000
  C   C50       1.0  0.36234433099729557  0.2206615112786636  0.36287743683724466  1.0000
  C   C51       1.0  0.366467298250214  0.5001719538857047  0.36282959453216534  1.0000
  C   C52       1.0  0.8591103287588454  0.5014761382167379  0.8653295082227784  1.0000
  C   C53       1.0  0.6422387415635384  0.4977674902573241  0.640576049160515  1.0000
  C   C54       1.0  0.7704693846475122  0.5751402504917209  0.8405631160768864  1.0000
  C   C55       1.0  0.6733863276338212  0.477238462180516  0.7708037099304974  1.0000
  C   C56       1.0  0.8047802434363972  0.505461794208209  0.8095447527323358  1.0000
  C   C57       1.0  0.6984337179114989  0.49683051905132203  0.6978305258835962  1.0000
  C   C58       1.0  0.7737188962378383  0.05087212234641212  0.7109124181632538  1.0000
  C   C59       1.0  0.8042845109511347  0.10889698441054917  0.8035533219327461  1.0000
  C   C60       1.0  0.7797402968101822  0.053917493662623904  0.8420110946053753  1.0000
  N   N1        1.0  0.7373563124980721  0.1032764079283055  0.6154827967011229  1.0000
  N   N2        1.0  0.6457477702239841  0.3170242018703108  0.2426938726033257  1.0000
  N   N3        1.0  0.7999240134918612  0.6557749882052593  0.9309907516265101  1.0000
  N   N4        1.0  0.009429007976564423  0.8925130035760561  0.1246662473756005  1.0000
  N   N5        1.0  0.36369876774485027  0.5848306163353952  0.10724634294012253  1.0000
  N   N6        1.0  0.7474806714212648  0.8852208680489113  0.5075495157877654  1.0000
  O   O1        1.0  0.9982541416299143  0.4981582418769366  0.9992926263337409  1.0000
  O   O2        1.0  0.32289664733486495  0.26518009874857285  0.38071727284485496  1.0000
  O   O3        1.0  0.4502004916026579  0.5543475552593692  0.3778747597525723  1.0000
  O   O4        1.0  0.05294425619583628  0.7296934850339056  0.1041024811152839  1.0000
  O   O5        1.0  0.6251091124791445  0.4419875664686401  0.5568039265937017  1.0000
  O   O6        1.0  0.3272841691561369  0.4447378229579898  0.3908501316747462  1.0000
  O   O7        1.0  0.6162550505892882  0.5554279197536971  0.6806846311495962  1.0000
  O   O8        1.0  0.6217360448861129  0.7315838318861269  0.6808828869468257  1.0000
  O   O9        1.0  0.446110797782943  0.264492885519104  0.3919316621355478  1.0000
  O   O10       1.0  0.6317647205524253  0.570113481202533  0.39929857815744196  1.0000
  O   O11       1.0  0.3234072459453331  0.43300448458006  0.5559305222946592  1.0000
  O   O12       1.0  0.052583747574971175  0.43145324028410675  0.8210707698010609  1.0000
  O   O13       1.0  0.8745699553319995  0.2663912554270951  0.8203060390044143  1.0000
  O   O14       1.0  0.17710502316068502  0.5590982707318587  0.9447417934822512  1.0000
  O   O15       1.0  0.8690458845781989  0.42447349933809875  0.10111506531711008  1.0000
  O   O16       1.0  0.17564047281566542  0.5528896395102194  0.11059684680031982  1.0000
  O   O17       1.0  0.8663815567520745  0.5444931897811642  0.9475048932812912  1.0000
  O   O18       1.0  0.053228133186294754  0.44771397664654705  0.12746418180889663  1.0000
  O   O19       1.0  0.8926544419393353  0.4525782900040198  0.8256278453877286  1.0000
  O   O20       1.0  0.8978747653326594  0.5742579225376758  0.13229295234702224  1.0000
  O   O21       1.0  0.17622364729144405  0.7291203842939001  0.11635772939774124  1.0000
  O   O22       1.0  0.8921657452462313  0.2675996148790745  0.9437195185104059  1.0000
  O   O23       1.0  0.5023282820048109  0.4991909581299368  0.5037245369153709  1.0000
  O   O24       1.0  0.5998088640261586  0.42069154190262037  0.3714804515092993  1.0000
  O   O25       1.0  0.4469880656343933  0.5620646998862641  0.6805431837431614  1.0000
  O   O26       1.0  0.6144986828010419  0.7306168143291104  0.5567260028928589  1.0000
