data_image0
_chemical_formula_structural       Er4H20C16S4N8O28
_chemical_formula_sum              "Er4 H20 C16 S4 N8 O28"
_cell_length_a       6.419284272012224
_cell_length_b       11.155768015763615
_cell_length_c       12.068766706734909
_cell_angle_alpha    108.3182962266583
_cell_angle_beta     89.9999855127681
_cell_angle_gamma    90.00021715607649

_space_group_name_H-M_alt    "P 1"
_space_group_IT_number       1

loop_
  _space_group_symop_operation_xyz
  'x, y, z'

loop_
  _atom_site_type_symbol
  _atom_site_label
  _atom_site_symmetry_multiplicity
  _atom_site_fract_x
  _atom_site_fract_y
  _atom_site_fract_z
  _atom_site_occupancy
  Er  Er1       1.0  0.86296337914996  0.8410601461895483  0.39337329298910373  1.0000
  Er  Er2       1.0  0.36296464094331776  0.1589393501437613  0.10662699263786381  1.0000
  Er  Er3       1.0  0.13703902563379697  0.1589394196336329  0.6066268546182059  1.0000
  Er  Er4       1.0  0.6370346482315413  0.8410611556577907  0.8933725957408427  1.0000
  H   H1        1.0  0.7226940287868897  0.435976841875565  0.556275641589515  1.0000
  H   H2        1.0  0.22268846291385808  0.5640229871272097  0.9437227553862115  1.0000
  H   H3        1.0  0.27730681819134156  0.5640227111802077  0.44372201657873234  1.0000
  H   H4        1.0  0.7773108262608163  0.4359775229295336  0.05627766280537121  1.0000
  H   H5        1.0  0.7772019180999833  0.48990753241359636  0.22726407334604198  1.0000
  H   H6        1.0  0.2772132115663907  0.5100936414391555  0.27273504675472543  1.0000
  H   H7        1.0  0.222795813268803  0.510092973386122  0.7727355150322309  1.0000
  H   H8        1.0  0.7227891932206063  0.48990686436606984  0.7272645416248337  1.0000
  H   H9        1.0  0.725321755160138  0.3321635626528021  0.3398890436075774  1.0000
  H   H10       1.0  0.22532479660885935  0.6678365529902024  0.16011143705515715  1.0000
  H   H11       1.0  0.27467597620865547  0.6678369431469093  0.6601105447707027  1.0000
  H   H12       1.0  0.7746776081811928  0.33216489705226593  0.8398884219095208  1.0000
  H   H13       1.0  0.0427881080223713  0.9112092432035865  0.1970345561899194  1.0000
  H   H14       1.0  0.5427912648070006  0.0887913900260457  0.3029669246802982  1.0000
  H   H15       1.0  0.9572142967550974  0.0887884384003073  0.8029658800600217  1.0000
  H   H16       1.0  0.45721113998269647  0.911210068526799  0.6970345939101391  1.0000
  H   H17       1.0  0.06974924281319518  0.0324016397213285  0.3135960667254949  1.0000
  H   H18       1.0  0.5697473558806506  0.9675981129120714  0.18640515835686244  1.0000
  H   H19       1.0  0.9302562775764115  0.9675960418862388  0.6864043695252987  1.0000
  H   H20       1.0  0.4302550489061688  0.0324023971483456  0.8135952598355658  1.0000
  C   C1        1.0  0.7397724436725356  0.4882440196496346  0.49510334453679417  1.0000
  C   C2        1.0  0.23976985288110333  0.5117570615720339  0.0048949252026915125  1.0000
  C   C3        1.0  0.2602237298903631  0.5117564818930518  0.5048954140281765  1.0000
  C   C4        1.0  0.7602278784875054  0.4882434484828693  0.9951054929884577  1.0000
  C   C5        1.0  0.7713119098602234  0.5136321541228881  0.3209780287080335  1.0000
  C   C6        1.0  0.2713184168881924  0.4863680615824678  0.17902081757334548  1.0000
  C   C7        1.0  0.22868582150856295  0.4863683516768234  0.6790215596702467  1.0000
  C   C8        1.0  0.7286808722866668  0.5136324442190839  0.820978770805354  1.0000
  C   C9        1.0  0.7672323055509479  0.6144874227781045  0.5069701498638821  1.0000
  C   C10       1.0  0.2672333262274833  0.3855125156288394  0.993029101373061  1.0000
  C   C11       1.0  0.2327623102058851  0.3855130787627417  0.4930286087006621  1.0000
  C   C12       1.0  0.7327659629473756  0.6144879901727124  0.006970487005638457  1.0000
  C   C13       1.0  0.7787853507638047  0.729227905786729  0.608353867314051  1.0000
  C   C14       1.0  0.2787856606386399  0.2707730083849995  0.8916464906620262  1.0000
  C   C15       1.0  0.2212154962140644  0.27077165577942003  0.391645450479956  1.0000
  C   C16       1.0  0.7212136285390968  0.7292284459089801  0.10835419811467527  1.0000
  S   S1        1.0  0.3216896090465013  0.8363691109995911  0.4599877944900754  1.0000
  S   S2        1.0  0.8216918252362431  0.16363028364494883  0.04001163866959701  1.0000
  S   S3        1.0  0.67831123793443  0.1636313948038008  0.5400117938890503  1.0000
  S   S4        1.0  0.17830902174144816  0.8363692821763918  0.9599885089372863  1.0000
  N   N1        1.0  0.7441076429601876  0.4269689529721886  0.3775709498961888  1.0000
  N   N2        1.0  0.24411007559368866  0.5730321427446656  0.12242815203709513  1.0000
  N   N3        1.0  0.2558885306027107  0.5730315485704907  0.6224278086687818  1.0000
  N   N4        1.0  0.7558923291904307  0.42696741456813214  0.8775703359444549  1.0000
  N   N5        1.0  0.7870663635716395  0.6282782257927267  0.39733022513927096  1.0000
  N   N6        1.0  0.2870705909333466  0.37172296708342156  0.10266807056115826  1.0000
  N   N7        1.0  0.212931367794269  0.37172133151456416  0.6026682628410001  1.0000
  N   N8        1.0  0.7129255826293673  0.6282775387144497  0.8973315178166886  1.0000
  O   O1        1.0  0.725203014577687  0.724577837994957  0.7080351576615483  1.0000
  O   O2        1.0  0.2252080751150345  0.27542199694330805  0.7919632406942441  1.0000
  O   O3        1.0  0.2747978324003597  0.27542171931600734  0.2919633303195752  1.0000
  O   O4        1.0  0.7747912140628799  0.7245794530954798  0.20803661826958125  1.0000
  O   O5        1.0  0.8435608176776909  0.8283913951961139  0.5863167392316839  1.0000
  O   O6        1.0  0.3435620198763728  0.17161061187371732  0.913683095071363  1.0000
  O   O7        1.0  0.15644314490926794  0.17160722213647972  0.4136823079780498  1.0000
  O   O8        1.0  0.6564372693042344  0.828391790912683  0.08631869410334052  1.0000
  O   O9        1.0  0.5111080261131704  0.8636988201630943  0.40262992123964386  1.0000
  O   O10       1.0  0.011109142643505302  0.1362998583130732  0.0973726606967062  1.0000
  O   O11       1.0  0.4888928208673917  0.1363016941506743  0.5973713267652413  1.0000
  O   O12       1.0  0.9888870309192157  0.8637006474847979  0.9026269276811405  1.0000
  O   O13       1.0  0.3717293096779244  0.7994891023874402  0.5632232818465397  1.0000
  O   O14       1.0  0.8717284687484366  0.20050824148058416  0.9367735553659245  1.0000
  O   O15       1.0  0.6282746529117275  0.2005104676927729  0.43677769557407947  1.0000
  O   O16       1.0  0.1282708204138387  0.7994884958823932  0.06322661029803815  1.0000
  O   O17       1.0  0.19233531967700657  0.7380899450059603  0.37391240005214854  1.0000
  O   O18       1.0  0.6923381450538316  0.26191008425555395  0.1260864028789044  1.0000
  O   O19       1.0  0.8076670851069352  0.2619096165620293  0.6260869177422848  1.0000
  O   O20       1.0  0.3076658175361757  0.7380894773142757  0.8739129149159481  1.0000
  O   O21       1.0  0.18024274447639493  0.9503149181614751  0.4930367249899847  1.0000
  O   O22       1.0  0.6802426654055507  0.0496822583484189  0.006962919173190603  1.0000
  O   O23       1.0  0.8197596603075396  0.049684643406514795  0.5069625928044488  1.0000
  O   O24       1.0  0.319762854987296  0.9503163632411997  0.9930369578498529  1.0000
  O   O25       1.0  0.9909484483542668  0.952701716578666  0.2770774199537911  1.0000
  O   O26       1.0  0.49095047602700964  0.0472971419069736  0.2229234951506172  1.0000
  O   O27       1.0  0.009050840810886  0.04729596927673901  0.7229238461081664  1.0000
  O   O28       1.0  0.5090534865626424  0.9527024281732325  0.7770774822699948  1.0000
