data_image0
_chemical_formula_structural       Co2H30C46N4O10
_chemical_formula_sum              "Co2 H30 C46 N4 O10"
_cell_length_a       9.463499892260494
_cell_length_b       10.347986408217382
_cell_length_c       10.953395286132569
_cell_angle_alpha    103.8189303868887
_cell_angle_beta     112.79317234208517
_cell_angle_gamma    107.5700460933433

_space_group_name_H-M_alt    "P 1"
_space_group_IT_number       1

loop_
  _space_group_symop_operation_xyz
  'x, y, z'

loop_
  _atom_site_type_symbol
  _atom_site_label
  _atom_site_symmetry_multiplicity
  _atom_site_fract_x
  _atom_site_fract_y
  _atom_site_fract_z
  _atom_site_occupancy
  Co  Co1       1.0  0.151875419583277  0.041705367293076306  0.1815076320057472  1.0000
  Co  Co2       1.0  0.8476686606784226  0.9582430306671056  0.8168405534757287  1.0000
  H   H1        1.0  0.6548898870118904  0.850099596781419  0.053513206883110245  1.0000
  H   H2        1.0  0.34585896612262695  0.15074452167333158  0.9469242837681904  1.0000
  H   H3        1.0  0.8893978165343414  0.3054614401419825  0.03288150552180706  1.0000
  H   H4        1.0  0.1093309793026264  0.69515631114389  0.9643685417678753  1.0000
  H   H5        1.0  0.03633418849456394  0.5750084401449058  0.10492298668346929  1.0000
  H   H6        1.0  0.9608228552280805  0.4253862827523775  0.8906092624028473  1.0000
  H   H7        1.0  0.49453923984011544  0.3642759090442241  0.10764237122810981  1.0000
  H   H8        1.0  0.5089697895554792  0.6365906303204625  0.8976117353599663  1.0000
  H   H9        1.0  0.6434861196868765  0.6329362659239236  0.18067353958502955  1.0000
  H   H10       1.0  0.3597935063321955  0.368256900612721  0.8249439316071445  1.0000
  H   H11       1.0  0.27974289158102994  0.8072893873264205  0.22834247712984987  1.0000
  H   H12       1.0  0.717769514165724  0.19252148453568196  0.772783567114189  1.0000
  H   H13       1.0  0.5763169002757492  0.829830064159246  0.36446592603032724  1.0000
  H   H14       1.0  0.4204210369481274  0.1692370065819304  0.6392520213855734  1.0000
  H   H15       1.0  0.8274404513138125  0.0760112165734483  0.48593088026620285  1.0000
  H   H16       1.0  0.17034195207212097  0.9220857984103784  0.515955823895183  1.0000
  H   H17       1.0  0.9333745387637576  0.359812875500829  0.5580706708905723  1.0000
  H   H18       1.0  0.06595231896806544  0.638272755277619  0.44299081661257844  1.0000
  H   H19       1.0  0.8651661804999476  0.5676822220315357  0.5381824320454173  1.0000
  H   H20       1.0  0.13533045843964683  0.4311782763732595  0.46381707444806614  1.0000
  H   H21       1.0  0.6358698484231553  0.6567950358656275  0.4213693678973911  1.0000
  H   H22       1.0  0.36533364030456983  0.34295081713820247  0.5800490223110302  1.0000
  H   H23       1.0  0.3287095087969761  0.5791333083695492  0.2431203598531867  1.0000
  H   H24       1.0  0.6735804072776902  0.4211065348177597  0.7560505787847944  1.0000
  H   H25       1.0  0.11936722723036298  0.313126124355378  0.1232140170974105  1.0000
  H   H26       1.0  0.8824151859666642  0.6872244236113473  0.8741717049839509  1.0000
  H   H27       1.0  0.10551735099577536  0.18543866751758029  0.36499052709589114  1.0000
  H   H28       1.0  0.8954654620520585  0.8155434801057169  0.6336975249339859  1.0000
  H   H29       1.0  0.07512396995355888  0.03203113967429521  0.37161308314374253  1.0000
  H   H30       1.0  0.924524299219243  0.9687211803956473  0.6269312123668058  1.0000
  C   C1        1.0  0.8691281239870251  0.11882906618637887  0.1427626331684024  1.0000
  C   C2        1.0  0.13139850432850136  0.8817240812081549  0.8556060807510164  1.0000
  C   C3        1.0  0.6786661071754095  0.0630327963421493  0.06013495448704023  1.0000
  C   C4        1.0  0.3218339271161027  0.9374037469225271  0.939191758764004  1.0000
  C   C5        1.0  0.5839911348829074  0.9138984259859765  0.025404800945281508  1.0000
  C   C6        1.0  0.41662892001349416  0.0867245368676137  0.9745228805431623  1.0000
  C   C7        1.0  0.5947813210451472  0.1541198173828704  0.0351705161192513  1.0000
  C   C8        1.0  0.40582767323085267  0.8464653141324944  0.9647564382558897  1.0000
  C   C9        1.0  0.6827244914923085  0.31343221843934543  0.06936653297538704  1.0000
  C   C10       1.0  0.31801544000601467  0.6872698094134081  0.9311405716199419  1.0000
  C   C11       1.0  0.8354467985941272  0.3765483810076944  0.06726090681846836  1.0000
  C   C12       1.0  0.1638583406476214  0.6241006441436169  0.931151561569159  1.0000
  C   C13       1.0  0.9172610741781994  0.5282616913634898  0.1055965956623978  1.0000
  C   C14       1.0  0.08132517295610593  0.4723514089861495  0.8921776200984584  1.0000
  C   C15       1.0  0.6138280507211107  0.4089866732239996  0.10696181351248407  1.0000
  C   C16       1.0  0.3882681246096523  0.5919176495198427  0.8961523752317646  1.0000
  C   C17       1.0  0.6966852128905928  0.5605594284442007  0.14770204162604733  1.0000
  C   C18       1.0  0.3051341641752856  0.4403991221675909  0.8554026149895222  1.0000
  C   C19       1.0  0.8499963606531723  0.6227509429278724  0.14767493727343597  1.0000
  C   C20       1.0  0.14974905473094677  0.37801083281027553  0.8522346612571425  1.0000
  C   C21       1.0  0.9382090487358781  0.7873883904114151  0.197184270762932  1.0000
  C   C22       1.0  0.06095740245915237  0.213233124001647  0.801649706829025  1.0000
  C   C23       1.0  0.39215755803478164  0.9131469734950027  0.28173960847525575  1.0000
  C   C24       1.0  0.6058113614805977  0.0862037382855121  0.7188858598845799  1.0000
  C   C25       1.0  0.5578146518797025  0.9271743237291118  0.35813405114459573  1.0000
  C   C26       1.0  0.43968312200955484  0.07172258527166521  0.6436823314924425  1.0000
  C   C27       1.0  0.6982466814086764  0.06423188247505608  0.42735340572843933  1.0000
  C   C28       1.0  0.2998232800714716  0.9342095697759234  0.5737916456475106  1.0000
  C   C29       1.0  0.6709818216277129  0.18962304416205458  0.4208953627331767  1.0000
  C   C30       1.0  0.3280531658712816  0.8089877680935231  0.579231013908057  1.0000
  C   C31       1.0  0.8017530135672075  0.3392537648593148  0.4919868196651506  1.0000
  C   C32       1.0  0.19780101811980433  0.65922596971118  0.5086885633850429  1.0000
  C   C33       1.0  0.7637401478026857  0.4547530501630986  0.4796257218121339  1.0000
  C   C34       1.0  0.2364782036003703  0.5441603634618559  0.5215554076920841  1.0000
  C   C35       1.0  0.591947084438715  0.42997002794766087  0.39083637022863377  1.0000
  C   C36       1.0  0.40856957593080506  0.5694085168359208  0.6097792689345667  1.0000
  C   C37       1.0  0.5415547644252287  0.540789648121404  0.3660038836417243  1.0000
  C   C38       1.0  0.4595172242610701  0.45891973585664675  0.6348000511137712  1.0000
  C   C39       1.0  0.3722779554891105  0.4980595156059949  0.26890386923360415  1.0000
  C   C40       1.0  0.6293315306657378  0.5019771398248878  0.7305996521241838  1.0000
  C   C41       1.0  0.2516216885078038  0.34874125047203813  0.2011481100021086  1.0000
  C   C42       1.0  0.7496799157996462  0.651371612791074  0.7972960236239502  1.0000
  C   C43       1.0  0.46236306538745003  0.2830192092208392  0.31985773938904316  1.0000
  C   C44       1.0  0.5378537767923744  0.7164095445128423  0.6795855800293041  1.0000
  C   C45       1.0  0.5007378344024218  0.1650549720948149  0.338311863671251  1.0000
  C   C46       1.0  0.498668895560449  0.8340442663569474  0.6610711005163666  1.0000
  N   N1        1.0  0.36256545391034223  0.029420849415032497  0.2693133872117386  1.0000
  N   N2        1.0  0.6364335303278069  0.9700068366928606  0.7299768999886995  1.0000
  N   N3        1.0  0.29374563791353847  0.2422305315008941  0.22853991451910363  1.0000
  N   N4        1.0  0.7068550761869188  0.7576717118257575  0.7701268063156163  1.0000
  O   O1        1.0  0.9326304367042726  0.0479575179966503  0.08145614500905649  1.0000
  O   O2        1.0  0.06737067968877825  0.9522338632849167  0.9165828357169801  1.0000
  O   O3        1.0  0.9513392445183089  0.2212050533689833  0.2670533170688357  1.0000
  O   O4        1.0  0.04989786033373613  0.7798407680274833  0.7310169472020506  1.0000
  O   O5        1.0  0.02939788213102182  0.8349776184085442  0.14025795975543084  1.0000
  O   O6        1.0  0.9694536660642398  0.16508407324131008  0.8581084737201647  1.0000
  O   O7        1.0  0.9187624997215806  0.8671095978996988  0.29028744738858586  1.0000
  O   O8        1.0  0.08037998082293289  0.1340518040514382  0.7081307855931273  1.0000
  O   O9        1.0  0.1705662439807512  0.1278161857148774  0.3955500015246756  1.0000
  O   O10       1.0  0.8296684909911747  0.8726646171459932  0.6031752549924931  1.0000
