data_image0
_chemical_formula_structural       Ag4H20C32N8O16
_chemical_formula_sum              "Ag4 H20 C32 N8 O16"
_cell_length_a       7.057839722074727
_cell_length_b       10.56316435087843
_cell_length_c       12.532518325516302
_cell_angle_alpha    99.8240629801313
_cell_angle_beta     102.90029738357526
_cell_angle_gamma    105.89495797259114

_space_group_name_H-M_alt    "P 1"
_space_group_IT_number       1

loop_
  _space_group_symop_operation_xyz
  'x, y, z'

loop_
  _atom_site_type_symbol
  _atom_site_label
  _atom_site_symmetry_multiplicity
  _atom_site_fract_x
  _atom_site_fract_y
  _atom_site_fract_z
  _atom_site_occupancy
  Ag  Ag1       1.0  0.38391093803573995  0.7851422685605557  0.07905972193215402  1.0000
  Ag  Ag2       1.0  0.6160877536385242  0.21485466933560088  0.9209376818525712  1.0000
  Ag  Ag3       1.0  0.5199296171346859  0.0564094699669084  0.6718715493194268  1.0000
  Ag  Ag4       1.0  0.4800624090624126  0.9435915705990328  0.32812550229569126  1.0000
  H   H1        1.0  0.803058619303073  0.0040314702448256  0.09963908004386474  1.0000
  H   H2        1.0  0.19694158371199666  0.9959685263535504  0.9003597248014401  1.0000
  H   H3        1.0  0.16463051921049038  0.006522948157396501  0.108844326560309  1.0000
  H   H4        1.0  0.8353749149711049  0.9934760518595452  0.8911582384770682  1.0000
  H   H5        1.0  0.9781106531199131  0.5869982789701922  0.07172591460597032  1.0000
  H   H6        1.0  0.021893392144761506  0.4130037929472295  0.9282776658659843  1.0000
  H   H7        1.0  0.6225491108445524  0.5864739009654159  0.06890033782504189  1.0000
  H   H8        1.0  0.3774578195466206  0.4135281691497071  0.9311044258022037  1.0000
  H   H9        1.0  0.2819209126717865  0.2650804553738411  0.6641857344977922  1.0000
  H   H10       1.0  0.7180744620821286  0.7349216333464311  0.335815094037585  1.0000
  H   H11       1.0  0.9271519779236999  0.26667202562710207  0.6628034419358357  1.0000
  H   H12       1.0  0.07284389052299624  0.7333310902578772  0.3371983853059319  1.0000
  H   H13       1.0  0.7310307342184075  0.8461493489885542  0.6140813152512054  1.0000
  H   H14       1.0  0.2689660452706804  0.15385276732046546  0.3859220986850431  1.0000
  H   H15       1.0  0.0834045514705862  0.8437966795479213  0.6140191949923307  1.0000
  H   H16       1.0  0.916593230535291  0.1562074796945581  0.38598541882740994  1.0000
  H   H17       1.0  0.19259029895427193  0.4444566061496857  0.5426205258018371  1.0000
  H   H18       1.0  0.8074185890157891  0.5555402513646968  0.45737583508600466  1.0000
  H   H19       1.0  0.3774883045590443  0.6993205533301605  0.46978167228770223  1.0000
  H   H20       1.0  0.6225143057079948  0.3006815137904297  0.5302209178419588  1.0000
  C   C1        1.0  0.8428989249487842  0.9109032035980321  0.09184435744227673  1.0000
  C   C2        1.0  0.15710070871733714  0.08909582281542332  0.9081574363430961  1.0000
  C   C3        1.0  0.04166205210389518  0.9119301726129836  0.09602447181362095  1.0000
  C   C4        1.0  0.9583396010400521  0.0880698173862626  0.9039745258446815  1.0000
  C   C5        1.0  0.9400585863999353  0.6803606771523504  0.07644300449101137  1.0000
  C   C6        1.0  0.05994636990712367  0.3196403951891043  0.9235621626754239  1.0000
  C   C7        1.0  0.7415195943296595  0.6795092195810071  0.07371633364071069  1.0000
  C   C8        1.0  0.2584839572422268  0.3204918251717004  0.9262862481248532  1.0000
  C   C9        1.0  0.29788108227664617  0.49173795716757956  0.21299655689465175  1.0000
  C   C10       1.0  0.7021176864277907  0.5082651455191397  0.7870056559731111  1.0000
  C   C11       1.0  0.21174460298860961  0.35166148648342244  0.23309452525688815  1.0000
  C   C12       1.0  0.7882530347169022  0.6483476052576477  0.7668995434122508  1.0000
  C   C13       1.0  0.23364904346844637  0.4214133760772896  0.3528194019789055  1.0000
  C   C14       1.0  0.7663479017772231  0.5785855039909931  0.6471708407703929  1.0000
  C   C15       1.0  0.31581288468868257  0.5511117660533955  0.33007719071986946  1.0000
  C   C16       1.0  0.684172724189274  0.448879032256471  0.6699112760769452  1.0000
  C   C17       1.0  0.2823547082523348  0.6525379383419434  0.8038602509269737  1.0000
  C   C18       1.0  0.7176472239991014  0.3474507948247165  0.19613331738879944  1.0000
  C   C19       1.0  0.38022815847325825  0.7893963833181133  0.7836596610422008  1.0000
  C   C20       1.0  0.6197747164570302  0.21059754925103388  0.2163426956389785  1.0000
  C   C21       1.0  0.34896102883472924  0.7205710627979371  0.6642590877909312  1.0000
  C   C22       1.0  0.6510453308334903  0.2794238153619091  0.33573986804687905  1.0000
  C   C23       1.0  0.2572995891366929  0.5909217494525478  0.6849324067962286  1.0000
  C   C24       1.0  0.7427209459450453  0.409078131966112  0.31506750237247877  1.0000
  C   C25       1.0  0.15929550981389443  0.17153331405651784  0.6539319592700394  1.0000
  C   C26       1.0  0.8407017331054971  0.8284698522091317  0.3460740484311842  1.0000
  C   C27       1.0  0.9626960914651546  0.17231188040891254  0.653371687695639  1.0000
  C   C28       1.0  0.037300718286402836  0.8276902131081912  0.34663013118203173  1.0000
  C   C29       1.0  0.8543301288942117  0.9399521523781547  0.6262614464074475  1.0000
  C   C30       1.0  0.1456662181140302  0.06005200206749349  0.3737421770699996  1.0000
  C   C31       1.0  0.05110496326879842  0.9392296251497783  0.6265532251711861  1.0000
  C   C32       1.0  0.9488889159625415  0.0607725043574945  0.37344980313907433  1.0000
  N   N1        1.0  0.6936842607753846  0.7948230442250335  0.0827151199010032  1.0000
  N   N2        1.0  0.3063168684133117  0.2051759414014143  0.9172844741095005  1.0000
  N   N3        1.0  0.09050221029451679  0.7966000959671292  0.08927579758652367  1.0000
  N   N4        1.0  0.9095019567070395  0.20340499566779613  0.9107258010158503  1.0000
  N   N5        1.0  0.20507611582264934  0.05501798987312869  0.6422530443983803  1.0000
  N   N6        1.0  0.7949177785399257  0.94498412823819  0.3577491863825841  1.0000
  N   N7        1.0  0.8101762466265117  0.056682434684574894  0.6414883020080354  1.0000
  N   N8        1.0  0.1898186351216253  0.9433217377561719  0.35851592618570294  1.0000
  O   O1        1.0  0.2396426634254495  0.6098998506524468  0.8848348264378104  1.0000
  O   O2        1.0  0.7603552745770301  0.39008381026958017  0.1151575431794853  1.0000
  O   O3        1.0  0.4537595436841996  0.9093254527679449  0.8396542852601029  1.0000
  O   O4        1.0  0.546226134524943  0.09066358090831267  0.160353112698516  1.0000
  O   O5        1.0  0.3891305056598853  0.767501928095939  0.5819413459312415  1.0000
  O   O6        1.0  0.6108790438205459  0.23250205299796528  0.41805603757027393  1.0000
  O   O7        1.0  0.17792167124723332  0.4649011762974594  0.6267530912779264  1.0000
  O   O8        1.0  0.8220894864196779  0.5350916325324063  0.3732454359283964  1.0000
  O   O9        1.0  0.3363098181094841  0.537907588766153  0.1325347547075992  1.0000
  O   O10       1.0  0.6636936207985114  0.46210458746358524  0.8674644835782886  1.0000
  O   O11       1.0  0.150769200355505  0.23271371389231632  0.17775716749114423  1.0000
  O   O12       1.0  0.8492318753202355  0.7672901358569675  0.8222270961930036  1.0000
  O   O13       1.0  0.1923797583276965  0.3768608567772135  0.43560224473514353  1.0000
  O   O14       1.0  0.8076230849661172  0.6231268768134798  0.5643929102751173  1.0000
  O   O15       1.0  0.38479790560135996  0.6794068457961728  0.38563527063727326  1.0000
  O   O16       1.0  0.6151911605000535  0.3205973644370417  0.6143689838337636  1.0000
