data_image0
_chemical_formula_structural       Cu4H22C18N30
_chemical_formula_sum              "Cu4 H22 C18 N30"
_cell_length_a       7.586350808288364
_cell_length_b       8.681918008519185
_cell_length_c       12.974930423330933
_cell_angle_alpha    83.5674426055891
_cell_angle_beta     78.95275272930017
_cell_angle_gamma    71.95603113667534

_space_group_name_H-M_alt    "P 1"
_space_group_IT_number       1

loop_
  _space_group_symop_operation_xyz
  'x, y, z'

loop_
  _atom_site_type_symbol
  _atom_site_label
  _atom_site_symmetry_multiplicity
  _atom_site_fract_x
  _atom_site_fract_y
  _atom_site_fract_z
  _atom_site_occupancy
  Cu  Cu1       1.0  0.16690901621156942  0.03958225236409871  0.9131679441052396  1.0000
  Cu  Cu2       1.0  0.8330948143967731  0.960414590868112  0.08683412795292605  1.0000
  Cu  Cu3       1.0  0.3050634917061359  0.5459502905911365  0.5827615832197066  1.0000
  Cu  Cu4       1.0  0.6949279984480584  0.454055029111089  0.41724053916892234  1.0000
  H   H1        1.0  0.4753162122409903  0.6802755686594678  0.8938175378382593  1.0000
  H   H2        1.0  0.5246943073401411  0.31972493088088794  0.10617882531239073  1.0000
  H   H3        1.0  0.8518053679357819  0.6570090563729069  0.8338773521864693  1.0000
  H   H4        1.0  0.14820526042468876  0.3429914415123891  0.16612362278599582  1.0000
  H   H5        1.0  0.5378148042900364  0.15247750453735887  0.8506593669115714  1.0000
  H   H6        1.0  0.46218885983627445  0.8475229849883876  0.14933165162761944  1.0000
  H   H7        1.0  0.1733635631553554  0.38011333972912104  0.9778666955071667  1.0000
  H   H8        1.0  0.826655866865309  0.6198811037317711  0.022133694488573497  1.0000
  H   H9        1.0  0.24170594295295436  0.6129451124077506  0.8242075553633509  1.0000
  H   H10       1.0  0.7583033647672934  0.3870517389464824  0.17579848492919575  1.0000
  H   H11       1.0  0.2116530640536993  0.21190930242448058  0.6792001785405473  1.0000
  H   H12       1.0  0.7883490935590557  0.7880923941243408  0.3208017179115642  1.0000
  H   H13       1.0  0.07955869165269999  0.8708448748236038  0.4680714933165077  1.0000
  H   H14       1.0  0.9204242914939799  0.12916164409383415  0.5319300132778222  1.0000
  H   H15       1.0  0.6898270846611964  0.9666707664190356  0.4977285073879255  1.0000
  H   H16       1.0  0.31015075891207283  0.03332360099359021  0.5022776390474275  1.0000
  H   H17       1.0  0.8858661435123522  0.5119548817507464  0.661190893332275  1.0000
  H   H18       1.0  0.11413081682429989  0.48803830793174563  0.3388092012637073  1.0000
  H   H19       1.0  0.8672400252127799  0.9466217358632891  0.8075392314036446  1.0000
  H   H20       1.0  0.13276519524234942  0.05338239660756021  0.19245671409607465  1.0000
  H   H21       1.0  0.5926603340305688  0.7409497110742508  0.6147069882379409  1.0000
  H   H22       1.0  0.40733392732293067  0.25903983018459803  0.38529679530103766  1.0000
  C   C1        1.0  0.5413562010767804  0.7760890877946169  0.875922682881743  1.0000
  C   C2        1.0  0.458657005983639  0.2239077728233312  0.12407749426143505  1.0000
  C   C3        1.0  0.729145113292972  0.7620390452173283  0.8459839335711192  1.0000
  C   C4        1.0  0.2708672210098726  0.237960242610619  0.15401461849508982  1.0000
  C   C5        1.0  0.5682905910221335  0.021882162806882408  0.8543380486247185  1.0000
  C   C6        1.0  0.43171193044983625  0.9781183212403164  0.14566158581800434  1.0000
  C   C7        1.0  0.1897037392144441  0.38014470538448836  0.8931235956650664  1.0000
  C   C8        1.0  0.8102979128129703  0.6198545620617538  0.10687854948693591  1.0000
  C   C9        1.0  0.22509834098048023  0.4954577689055527  0.8168025644312774  1.0000
  C   C10       1.0  0.7748954002742109  0.5045451254792681  0.18320255941139144  1.0000
  C   C11       1.0  0.2117294996599099  0.28918777211107743  0.7392845560135795  1.0000
  C   C12       1.0  0.7882624235600558  0.7108199777971014  0.2607142431272748  1.0000
  C   C13       1.0  0.9819220382061856  0.8099387364507112  0.51221670011855  1.0000
  C   C14       1.0  0.018061835827971575  0.19006535498088795  0.4877872001897144  1.0000
  C   C15       1.0  0.7888373071768553  0.8582111600865193  0.5261890303679309  1.0000
  C   C16       1.0  0.2111441443969326  0.1417844279880782  0.4738165894753264  1.0000
  C   C17       1.0  0.8875423102145207  0.6210226371764802  0.6119313445873755  1.0000
  C   C18       1.0  0.11245480997813212  0.3789741938343668  0.38807153195508426  1.0000
  N   N1        1.0  0.8934292606091817  0.13632220306647722  0.9788668935211358  1.0000
  N   N2        1.0  0.10656679402312354  0.8636697705667448  0.02113417451018049  1.0000
  N   N3        1.0  0.7963310444673792  0.27008998419595553  0.9527538923392451  1.0000
  N   N4        1.0  0.20367456128987263  0.7299092916864753  0.047244695574292506  1.0000
  N   N5        1.0  0.7055354926149493  0.3976708699411518  0.927463788353165  1.0000
  N   N6        1.0  0.2944897898806999  0.6023296564861911  0.07253080493202894  1.0000
  N   N7        1.0  0.11217974409176176  0.940932206161577  0.7638228869525177  1.0000
  N   N8        1.0  0.88782641501448  0.05907678561779762  0.23616948659955728  1.0000
  N   N9        1.0  0.2295840105004032  0.8607926225247696  0.7014719508899742  1.0000
  N   N10       1.0  0.7704202498606989  0.13921029472434301  0.29852266213418216  1.0000
  N   N11       1.0  0.34660980845963246  0.7801877039671937  0.6383259950597658  1.0000
  N   N12       1.0  0.6533911929433033  0.2198091365832155  0.3616702496963595  1.0000
  N   N13       1.0  0.4423328933775394  0.9391044479682834  0.8811196771450365  1.0000
  N   N14       1.0  0.5576748909606549  0.06089240370011591  0.11887883767467135  1.0000
  N   N15       1.0  0.7424357268242757  0.917721762886764  0.8325351905773598  1.0000
  N   N16       1.0  0.25757303242481566  0.0822799475384741  0.16746128956863515  1.0000
  N   N17       1.0  0.18137369562916206  0.25079858529837656  0.8433359764060736  1.0000
  N   N18       1.0  0.8186218899809957  0.7492103844442399  0.15666460205360258  1.0000
  N   N19       1.0  0.23848551180569896  0.43703452696748013  0.7199243194426469  1.0000
  N   N20       1.0  0.7615027704669899  0.5629683590194716  0.2800776048026135  1.0000
  N   N21       1.0  0.041710674397243915  0.6617998861863585  0.5661978701870749  1.0000
  N   N22       1.0  0.9582816703846434  0.33820300658172203  0.4338051086415432  1.0000
  N   N23       1.0  0.7329082764831439  0.7372643367702523  0.5887648341884455  1.0000
  N   N24       1.0  0.26708295166172746  0.26273005563677293  0.41123816600437363  1.0000
  N   N25       1.0  0.5795059608329254  0.411217001942049  0.5703968232320303  1.0000
  N   N26       1.0  0.42048221597342905  0.5887822418890069  0.4296046249776565  1.0000
  N   N27       1.0  0.659551544227824  0.34212404244826905  0.6427914752263815  1.0000
  N   N28       1.0  0.3404433940708813  0.6578788565875654  0.35720733862367376  1.0000
  N   N29       1.0  0.7391018794460322  0.27609258154889454  0.7108221446621453  1.0000
  N   N30       1.0  0.2609002929835923  0.7239127585350291  0.28917638464069023  1.0000
