data_image0
_chemical_formula_structural       Co2H28C36N24
_chemical_formula_sum              "Co2 H28 C36 N24"
_cell_length_a       7.889590976299055
_cell_length_b       9.02638858512339
_cell_length_c       12.706442170366394
_cell_angle_alpha    101.21495652850777
_cell_angle_beta     89.99960969552758
_cell_angle_gamma    90.00206734010908

_space_group_name_H-M_alt    "P 1"
_space_group_IT_number       1

loop_
  _space_group_symop_operation_xyz
  'x, y, z'

loop_
  _atom_site_type_symbol
  _atom_site_label
  _atom_site_symmetry_multiplicity
  _atom_site_fract_x
  _atom_site_fract_y
  _atom_site_fract_z
  _atom_site_occupancy
  Co  Co1       1.0  0.9999988333549081  3.8007309868031302e-06  0.9999991622525072  1.0000
  Co  Co2       1.0  0.5000008050208323  0.4999978514043592  0.49999652162119185  1.0000
  H   H1        1.0  0.0010821105668839001  0.6091988746033297  0.8167514764394851  1.0000
  H   H2        1.0  0.5010827709773976  0.89080365317151  0.6832489307994365  1.0000
  H   H3        1.0  0.9989169646095917  0.39080463789228764  0.1832497805067774  1.0000
  H   H4        1.0  0.49892390914398993  0.1091998274675845  0.3167546826294582  1.0000
  H   H5        1.0  0.6936826946794952  0.5694831513307435  0.7710285387811027  1.0000
  H   H6        1.0  0.19368846782964508  0.9305072796380784  0.7289778252518528  1.0000
  H   H7        1.0  0.30631638044818027  0.4305180917467269  0.2289731767308183  1.0000
  H   H8        1.0  0.8063194797563966  0.06949612640860892  0.2710312866394133  1.0000
  H   H9        1.0  0.5430160896291342  0.3437655653129141  0.8061307183841179  1.0000
  H   H10       1.0  0.04301221276505629  0.15621580787605893  0.6938776634289637  1.0000
  H   H11       1.0  0.45698298550257027  0.656235688423479  0.19387021163313992  1.0000
  H   H12       1.0  0.9569868622977326  0.8437831231475955  0.3061276526272323  1.0000
  H   H13       1.0  0.6912792447214712  0.15035951742411413  0.8855362122601775  1.0000
  H   H14       1.0  0.19127773802153314  0.34962211194764603  0.6144651792261655  1.0000
  H   H15       1.0  0.30871856289501665  0.8496406069126367  0.11446455429280182  1.0000
  H   H16       1.0  0.8087175345501907  0.6503746455280321  0.38553352594443874  1.0000
  H   H17       1.0  0.2745669045717348  0.4633621129369061  0.9011166664663859  1.0000
  H   H18       1.0  0.7745652542114029  0.0366527606608784  0.5988804686219636  1.0000
  H   H19       1.0  0.7254321705720486  0.536639172776255  0.09888190706689673  1.0000
  H   H20       1.0  0.22543762339653736  0.9633474170506352  0.4011163704568332  1.0000
  H   H21       1.0  0.34402641921329297  0.11072098080236971  0.005085687152906402  1.0000
  H   H22       1.0  0.8440277994366808  0.38929120154140434  0.494906490048315  1.0000
  H   H23       1.0  0.6559726559752548  0.8892825636700081  0.9949132133093812  1.0000
  H   H24       1.0  0.15596747321829701  0.6107089867087867  0.5050895635371688  1.0000
  H   H25       1.0  0.4280204986332024  0.2934041483889587  0.022007516678776512  1.0000
  H   H26       1.0  0.9280145448875388  0.20660943262141984  0.47799389324656255  1.0000
  H   H27       1.0  0.5719773089832854  0.7065959759477921  0.9779932498742028  1.0000
  H   H28       1.0  0.0719819952177545  0.7933895729745971  0.5220059243474822  1.0000
  C   C1        1.0  0.1953036452831753  0.26084144063299425  0.950957500265524  1.0000
  C   C2        1.0  0.6953069875182721  0.2391686784726944  0.5490385504713089  1.0000
  C   C3        1.0  0.8046928948668893  0.739159823722247  0.049042644257525636  1.0000
  C   C4        1.0  0.3046908201143168  0.76083148849974  0.4509590741030394  1.0000
  C   C5        1.0  0.0145205812447884  0.40144283960562893  0.8775847926499407  1.0000
  C   C6        1.0  0.5145123716664415  0.09857042707133701  0.6224251977482566  1.0000
  C   C7        1.0  0.9854835639804733  0.5985651585118179  0.122419474637411  1.0000
  C   C8        1.0  0.4854892384572126  0.9014319134490665  0.37757903771168344  1.0000
  C   C9        1.0  0.9336632066451855  0.5102015661290835  0.8317258113746603  1.0000
  C   C10       1.0  0.43366186146519686  0.9897999374841574  0.6682738886061443  1.0000
  C   C11       1.0  0.06633713608724887  0.4898053238664843  0.1682767214595486  1.0000
  C   C12       1.0  0.5663435511288951  0.0102023817785266  0.3317319178424398  1.0000
  C   C13       1.0  0.7616754975915826  0.48803856303548815  0.8078909361462507  1.0000
  C   C14       1.0  0.26167965897593587  0.011953166183765502  0.6921139311420177  1.0000
  C   C15       1.0  0.23832484510413107  0.5119660895187012  0.1921096987696345  1.0000
  C   C16       1.0  0.7383257535693631  0.9880468836607791  0.3078923338722177  1.0000
  C   C17       1.0  0.6762450288658144  0.3603028411195269  0.8281267081684474  1.0000
  C   C18       1.0  0.17625082663779781  0.1396907254710129  0.6718772722455313  1.0000
  C   C19       1.0  0.3237527788970526  0.6397040914716359  0.171872682687578  1.0000
  C   C20       1.0  0.8237545859522726  0.8603115831327486  0.32812931969770887  1.0000
  C   C21       1.0  0.7590250376780008  0.24973098721865486  0.8722569005617942  1.0000
  C   C22       1.0  0.2590307314040743  0.25026184088593345  0.6277442036561425  1.0000
  C   C23       1.0  0.2409727700584625  0.7502748053339803  0.12774311232438157  1.0000
  C   C24       1.0  0.7409708786909093  0.7497382835109364  0.3722565628961618  1.0000
  C   C25       1.0  0.9303789787355541  0.27146015570349397  0.8987080602108007  1.0000
  C   C26       1.0  0.43037516463395065  0.22853703605512982  0.6012873213924975  1.0000
  C   C27       1.0  0.06962263141627291  0.7285422594293608  0.10129067678653308  1.0000
  C   C28       1.0  0.569627713049691  0.77146869262414  0.3987174044607257  1.0000
  C   C29       1.0  0.7016992187442527  0.2123822523005502  0.11935695801871302  1.0000
  C   C30       1.0  0.2016989245237752  0.2876106514665367  0.38064021400487036  1.0000
  C   C31       1.0  0.29830492633413286  0.7876167960513955  0.8806397175953578  1.0000
  C   C32       1.0  0.7983115577931558  0.7123781686156079  0.6193597033954887  1.0000
  C   C33       1.0  0.6211501287456116  0.37616193303573203  0.2734437564990486  1.0000
  C   C34       1.0  0.1211509434207727  0.12384198683169251  0.22655462013216265  1.0000
  C   C35       1.0  0.37884767891790727  0.623841526145242  0.7265614279207283  1.0000
  C   C36       1.0  0.8788443289919954  0.8761457889017237  0.7734388498491285  1.0000
  N   N1        1.0  0.18015868815703578  0.3902668659594539  0.910990744501845  1.0000
  N   N2        1.0  0.6801537960096341  0.1097438608446097  0.5890086170435396  1.0000
  N   N3        1.0  0.8198416544939137  0.6097355278355182  0.0890095634850354  1.0000
  N   N4        1.0  0.31984781414445257  0.8902596303732437  0.41099421089158733  1.0000
  N   N5        1.0  0.04635779584252479  0.186635722595021  0.946118663315289  1.0000
  N   N6        1.0  0.546352729075558  0.3133594367092628  0.5538822529526044  1.0000
  N   N7        1.0  0.953645081686183  0.8133610350009024  0.05388004185396514  1.0000
  N   N8        1.0  0.45364634603375725  0.6866406876475255  0.4461185136001474  1.0000
  N   N9        1.0  0.34354469651128033  0.21515732264408882  0.9860995882401722  1.0000
  N   N10       1.0  0.843538847038154  0.284858624048205  0.5138957879649197  1.0000
  N   N11       1.0  0.6564531111620511  0.7848450924286396  0.013899148757836604  1.0000
  N   N12       1.0  0.1564589606248674  0.7151426936216795  0.48610042908462253  1.0000
  N   N13       1.0  0.7462140572915316  0.09942422973715281  0.0629284011106819  1.0000
  N   N14       1.0  0.24620517726302893  0.4005587664329441  0.4370686914926765  1.0000
  N   N15       1.0  0.2537951577845874  0.9005759587334837  0.9370676524723363  1.0000
  N   N16       1.0  0.753787559836354  0.5994120898840976  0.562920755532204  1.0000
  N   N17       1.0  0.6525888697382457  0.3445525590754457  0.17077539659126018  1.0000
  N   N18       1.0  0.1525887188478521  0.1554286486228804  0.3292187506560893  1.0000
  N   N19       1.0  0.34741147291848756  0.6554487799523587  0.8292192494685151  1.0000
  N   N20       1.0  0.8474116232940361  0.8445467146739177  0.6707721357201136  1.0000
  N   N21       1.0  0.5895659160809925  0.41918037112598944  0.3645821429308498  1.0000
  N   N22       1.0  0.08956331344688098  0.080824893958841  0.1354102878590311  1.0000
  N   N23       1.0  0.41043442658379087  0.5808209892196601  0.6354109321396066  1.0000
  N   N24       1.0  0.9104319592506018  0.9191764769655606  0.8645820017176645  1.0000
