data_image0
_chemical_formula_structural       Al4H32C45O25
_chemical_formula_sum              "Al4 H32 C45 O25"
_cell_length_a       6.782312656162512
_cell_length_b       17.075022333834
_cell_length_c       18.192883903583148
_cell_angle_alpha    74.21932653818355
_cell_angle_beta     89.79800643831872
_cell_angle_gamma    90.19579779148012

_space_group_name_H-M_alt    "P 1"
_space_group_IT_number       1

loop_
  _space_group_symop_operation_xyz
  'x, y, z'

loop_
  _atom_site_type_symbol
  _atom_site_label
  _atom_site_symmetry_multiplicity
  _atom_site_fract_x
  _atom_site_fract_y
  _atom_site_fract_z
  _atom_site_occupancy
  Al  Al1       1.0  0.1126687689051451  0.5011159503277867  0.5013430892942949  1.0000
  Al  Al2       1.0  0.6121342262526992  0.5037730924335976  0.5005776189348836  1.0000
  Al  Al3       1.0  0.6240235100137141  0.0014313704103798997  0.003524628401685  1.0000
  Al  Al4       1.0  0.12489783380402028  0.0021099578510118  0.0059011397148439  1.0000
  H   H1        1.0  0.6009148780627029  0.7280676802945434  0.35070240574025746  1.0000
  H   H2        1.0  0.32962949958611887  0.7945220097270108  0.15810029773511047  1.0000
  H   H3        1.0  0.1825604542202299  0.73415012002755  0.11337501648130648  1.0000
  H   H4        1.0  0.3446445377718774  0.6795663206904619  0.27774717775274377  1.0000
  H   H5        1.0  0.0732198926048753  0.3309219745965493  0.7172552827606893  1.0000
  H   H6        1.0  0.0816349681488404  0.213431554988766  0.834078470090411  1.0000
  H   H7        1.0  0.8031037394595514  0.220616651450527  0.8169991161879437  1.0000
  H   H8        1.0  0.8861029728881035  0.28902653987388044  0.5171216763400892  1.0000
  H   H9        1.0  0.6525381027829696  0.31147854920858714  0.5499599820757837  1.0000
  H   H10       1.0  0.5521129548362395  0.16474955761427884  0.5788000251447016  1.0000
  H   H11       1.0  0.631232673122696  0.20155449808936507  0.4821841639927343  1.0000
  H   H12       1.0  0.7912468451178538  0.13933540084218518  0.5510979315826035  1.0000
  H   H13       1.0  0.8733494246058341  0.340641187849421  0.8064980271760405  1.0000
  H   H14       1.0  0.6198184146936684  0.3556707546052778  0.7810445668079353  1.0000
  H   H15       1.0  0.691665336628816  0.4970962179767752  0.7052327500078307  1.0000
  H   H16       1.0  0.7923503269299416  0.48175893674287806  0.7983385385258684  1.0000
  H   H17       1.0  0.950087381676468  0.48089768167957897  0.720299624178125  1.0000
  H   H18       1.0  0.43313135648993756  0.8424419165958028  0.2898819451639055  1.0000
  H   H19       1.0  0.09881330032659717  0.6052376563362928  0.12691311236542893  1.0000
  H   H20       1.0  0.9437845884696187  0.5812299151919191  0.20963486094882455  1.0000
  H   H21       1.0  0.0948369682341976  0.4439872758225221  0.25457503774423873  1.0000
  H   H22       1.0  0.006827908418955499  0.4591532060494359  0.1595949118858258  1.0000
  H   H23       1.0  0.2636943414007433  0.4676208056976278  0.17643474099474324  1.0000
  H   H24       1.0  0.686932345544754  0.09826951468985361  0.6928081900990932  1.0000
  H   H25       1.0  0.706405247371933  0.022241037385242596  0.7814801599669395  1.0000
  H   H26       1.0  0.06644644034219029  0.0040230049551226  0.7513779363148957  1.0000
  H   H27       1.0  0.9082130964970574  0.9841172401532958  0.6805701259993313  1.0000
  H   H28       1.0  0.03835960926319609  0.0789994282597206  0.6623576247597213  1.0000
  H   H29       1.0  0.3582836876892586  0.6004006724373739  0.5120467914610812  1.0000
  H   H30       1.0  0.8597375139131102  0.41308440898059473  0.5680057655730053  1.0000
  H   H31       1.0  0.37092834361354227  0.9050930029865611  0.9907041828902123  1.0000
  H   H32       1.0  0.8766177521437228  0.09714354405699767  0.9457605773261549  1.0000
  C   C1        1.0  0.3707859312673918  0.4148516593036574  0.4184008092644191  1.0000
  C   C2        1.0  0.35561952586610346  0.3897803666551384  0.6153616346091084  1.0000
  C   C3        1.0  0.8590264637911886  0.5986012207722595  0.5788931577804419  1.0000
  C   C4        1.0  0.8711028696097712  0.6087425426861158  0.3851943330043355  1.0000
  C   C5        1.0  0.0261998321965891  0.7013647592931562  0.2653685592737745  1.0000
  C   C6        1.0  0.8744496820464744  0.682428892320992  0.31895846610492373  1.0000
  C   C7        1.0  0.7212891958763734  0.7398063784664615  0.30903921048768973  1.0000
  C   C8        1.0  0.7212968949118517  0.812490148551383  0.2501435358361731  1.0000
  C   C9        1.0  0.8732167119098619  0.8291514242778745  0.19376005302770946  1.0000
  C   C10       1.0  0.02239261370380769  0.771547028865534  0.20380198802077834  1.0000
  C   C11       1.0  0.2081220843794469  0.7502447597272306  0.16707171049205974  1.0000
  C   C12       1.0  0.22339465199595307  0.6732836589385726  0.23979455787432608  1.0000
  C   C13       1.0  0.8776677075343998  0.8619330864299996  0.8684220039566598  1.0000
  C   C14       1.0  0.8761955287135734  0.8216262124899529  0.8219784775372218  1.0000
  C   C15       1.0  0.8740119188640563  0.7784356218211883  0.7705422942407125  1.0000
  C   C16       1.0  0.8709521642875799  0.7386374589952924  0.7232138643275334  1.0000
  C   C17       1.0  0.8670606348974133  0.6941232386729509  0.6728911202461987  1.0000
  C   C18       1.0  0.8631815592144249  0.6522235601712439  0.6278104965523141  1.0000
  C   C19       1.0  0.3723724147990523  0.3609365643552777  0.3698753914998392  1.0000
  C   C20       1.0  0.376937731734067  0.3155995851469412  0.3278967562073447  1.0000
  C   C21       1.0  0.3798023966143446  0.2673592243412699  0.280778432580945  1.0000
  C   C22       1.0  0.3812978699963664  0.223758749880588  0.23666256252518283  1.0000
  C   C23       1.0  0.381629013391958  0.1770157821798648  0.1881863727585014  1.0000
  C   C24       1.0  0.3810796068758505  0.13448516916614753  0.14366211031273926  1.0000
  C   C25       1.0  0.526846546526258  0.26331001543195504  0.6989028629172793  1.0000
  C   C26       1.0  0.362454747134521  0.3140998483758465  0.6802495084572371  1.0000
  C   C27       1.0  0.20313702205151427  0.29319482271340286  0.7307994741769264  1.0000
  C   C28       1.0  0.2067446607042811  0.226503047014738  0.7952724718822566  1.0000
  C   C29       1.0  0.37245866668698807  0.17683511144969088  0.8146958194424343  1.0000
  C   C30       1.0  0.5336032904126496  0.19902897736545808  0.7654630662832602  1.0000
  C   C31       1.0  0.756207149234747  0.19677729914355518  0.7694785815269825  1.0000
  C   C32       1.0  0.7490101049685975  0.26919065539969017  0.6901080434701754  1.0000
  C   C33       1.0  0.3764716089797843  0.11007322585997058  0.8868597338066521  1.0000
  C   C34       1.0  0.3770786926764557  0.08582181162136493  0.09024197564788489  1.0000
  C   C35       1.0  0.8704572359081552  0.8974788372311906  0.12230408543643272  1.0000
  C   C36       1.0  0.876049413237851  0.9114495646355036  0.9211484149251846  1.0000
  C   C37       1.0  0.764822741051816  0.2641655420584215  0.5569004721842532  1.0000
  C   C38       1.0  0.680182601772316  0.1876572481391321  0.5419412295936112  1.0000
  C   C39       1.0  0.7716124415113582  0.372821209367565  0.7610622122752275  1.0000
  C   C40       1.0  0.802894472778462  0.4636477965275104  0.7449387581159286  1.0000
  C   C41       1.0  0.5658313425450245  0.8716119531235478  0.25647538809735687  1.0000
  C   C42       1.0  0.0894727583933559  0.5696272508779501  0.1874606249824566  1.0000
  C   C43       1.0  0.11537639517426608  0.4797606913620527  0.1950590698526611  1.0000
  C   C44       1.0  0.7896655394916436  0.06863107601673589  0.7383032764421458  1.0000
  C   C45       1.0  0.9610229632787154  0.031687354388651605  0.7061441570801605  1.0000
  O   O1        1.0  0.5199048207553573  0.4157433407411375  0.5834413393375613  1.0000
  O   O2        1.0  0.20408249880737372  0.4277413398357197  0.4453860693329402  1.0000
  O   O3        1.0  0.0351818904082108  0.5743858025980656  0.4065735193681874  1.0000
  O   O4        1.0  0.18863882674379076  0.42314438532408627  0.5962112458574111  1.0000
  O   O5        1.0  0.026117241586646897  0.5815057776237254  0.5550437242890425  1.0000
  O   O6        1.0  0.537742356950119  0.44312578285097  0.43067435056755693  1.0000
  O   O7        1.0  0.3612026507618182  0.5521723407888642  0.49359925852562725  1.0000
  O   O8        1.0  0.6885885236635759  0.5736888667545657  0.5657267136186162  1.0000
  O   O9        1.0  0.7037206065736399  0.5878207472621211  0.4163314162424001  1.0000
  O   O10       1.0  0.8614353749768923  0.45396677159622817  0.5184518260621828  1.0000
  O   O11       1.0  0.20709516701833763  0.06629593332787917  0.071488700014477  1.0000
  O   O12       1.0  0.5455365757555769  0.08279399248672087  0.9118584456076206  1.0000
  O   O13       1.0  0.7058381436110749  0.9307186886495059  0.9402769969149817  1.0000
  O   O14       1.0  0.5429447432451298  0.0687025535760739  0.065927209802588  1.0000
  O   O15       1.0  0.7047926240165907  0.9198198750354577  0.09172178861899735  1.0000
  O   O16       1.0  0.2101794048948449  0.08634877038744553  0.9180906877358551  1.0000
  O   O17       1.0  0.37329088452481324  0.9521339033995628  0.010937550849987987  1.0000
  O   O18       1.0  0.0390154088187984  0.9231802636924867  0.09508363735709215  1.0000
  O   O19       1.0  0.0441572562584369  0.9302762482230449  0.9425669133045174  1.0000
  O   O20       1.0  0.8748873333514028  0.0505338304343397  0.9905367483273438  1.0000
  O   O21       1.0  0.8509472998387009  0.24805547285782129  0.6326730717839695  1.0000
  O   O22       1.0  0.8121978492924737  0.3493928459679481  0.6921118127843044  1.0000
  O   O23       1.0  0.5789535218800169  0.9454760156988086  0.2325870490919327  1.0000
  O   O24       1.0  0.2430400188423221  0.5946900679938311  0.23047426129574689  1.0000
  O   O25       1.0  0.8679117026904277  0.12709348709702784  0.7747189750868984  1.0000
