data_image0
_chemical_formula_structural       Zn8P8H104C168O56
_chemical_formula_sum              "Zn8 P8 H104 C168 O56"
_cell_length_a       14.643853248000134
_cell_length_b       16.254565294008977
_cell_length_c       23.734987213012847
_cell_angle_alpha    89.99988065133466
_cell_angle_beta     90.00000019072128
_cell_angle_gamma    90.00001539563408

_space_group_name_H-M_alt    "P 1"
_space_group_IT_number       1

loop_
  _space_group_symop_operation_xyz
  'x, y, z'

loop_
  _atom_site_type_symbol
  _atom_site_label
  _atom_site_symmetry_multiplicity
  _atom_site_fract_x
  _atom_site_fract_y
  _atom_site_fract_z
  _atom_site_occupancy
  Zn  Zn1       1.0  0.3128542720637811  0.9338542346881837  0.6473243084607034  1.0000
  Zn  Zn2       1.0  0.8128530827782471  0.5661462108968891  0.8526750087556111  1.0000
  Zn  Zn3       1.0  0.18714679243945653  0.06614599434816171  0.6473232425464275  1.0000
  Zn  Zn4       1.0  0.6871450293015325  0.4338547463209252  0.852675524372721  1.0000
  Zn  Zn5       1.0  0.6871463394556088  0.0661458876777772  0.3526755175344789  1.0000
  Zn  Zn6       1.0  0.1871454801001136  0.43385452668123753  0.14732439592017954  1.0000
  Zn  Zn7       1.0  0.8128545019603096  0.9338541280191635  0.35267574081084524  1.0000
  Zn  Zn8       1.0  0.3128542164572963  0.5661466064677825  0.14732472294053883  1.0000
  P   P1        1.0  0.42200789463273475  0.7641450589579081  0.6106347112375019  1.0000
  P   P2        1.0  0.922008804468483  0.7358547979946408  0.8893646062459696  1.0000
  P   P3        1.0  0.07799112106895478  0.2358546663505692  0.6106355093180867  1.0000
  P   P4        1.0  0.5779906735322767  0.2641454325261209  0.8893640999726955  1.0000
  P   P5        1.0  0.5779920340062787  0.23585506340860724  0.38936469343872915  1.0000
  P   P6        1.0  0.0779911241704383  0.2641447091594599  0.11063521974965343  1.0000
  P   P7        1.0  0.922008124689597  0.7641448408021675  0.38936515931544596  1.0000
  P   P8        1.0  0.42200925510701376  0.735856535475726  0.1106353047022139  1.0000
  H   H1        1.0  0.04667563256858639  0.5061457234075206  0.4609234176547688  1.0000
  H   H2        1.0  0.5466786660128236  0.9938524854185999  0.03907662412901661  1.0000
  H   H3        1.0  0.4533261139999141  0.4938513807650652  0.46092300561042526  1.0000
  H   H4        1.0  0.9533228569129618  0.006147867985731601  0.03907648717655831  1.0000
  H   H5        1.0  0.9533270275915697  0.49385193811222183  0.5390759870232245  1.0000
  H   H6        1.0  0.45332331126695646  0.006145176099138899  0.9609240445058375  1.0000
  H   H7        1.0  0.5466744975189286  0.5061450503315115  0.5390759777494837  1.0000
  H   H8        1.0  0.0466729744436236  0.99385102395609  0.9609233388194981  1.0000
  H   H9        1.0  0.3915978523995278  0.6755787164673565  0.5027906042630264  1.0000
  H   H10       1.0  0.8915987889671155  0.8244211330796888  0.997209134465095  1.0000
  H   H11       1.0  0.10840389435238511  0.32442133654384964  0.5027904333128745  1.0000
  H   H12       1.0  0.6084000066245565  0.17557876973859976  0.9972087547332649  1.0000
  H   H13       1.0  0.608404124880792  0.3244226363229643  0.49720880041233073  1.0000
  H   H14       1.0  0.10840250543228792  0.175576528437972  0.0027915341697593  1.0000
  H   H15       1.0  0.8915967171670117  0.6755787858221112  0.49720939268231495  1.0000
  H   H16       1.0  0.3915958247325761  0.8244238134745316  0.0027906499411969013  1.0000
  H   H17       1.0  0.2591996272660708  0.5935661010278467  0.4683954471589757  1.0000
  H   H18       1.0  0.7592019518769318  0.9064346203950606  0.0316045951423547  1.0000
  H   H19       1.0  0.24080416797630014  0.4064315956510215  0.468395580744378  1.0000
  H   H20       1.0  0.740798888135913  0.0935663709260695  0.0316043328431448  1.0000
  H   H21       1.0  0.740804398654923  0.406432175704481  0.5316035361996256  1.0000
  H   H22       1.0  0.2408007082837713  0.0935667323940663  0.9683956521709121  1.0000
  H   H23       1.0  0.7591984921837633  0.5935654506562997  0.531604245253007  1.0000
  H   H24       1.0  0.2591955774600123  0.9064331362273707  0.9683954931524712  1.0000
  H   H25       1.0  0.11754702640456569  0.6376900657703501  0.6244422659303269  1.0000
  H   H26       1.0  0.6175459250334967  0.8623091018330626  0.8755574721285911  1.0000
  H   H27       1.0  0.38245472087859866  0.3623071567339551  0.6244437268251987  1.0000
  H   H28       1.0  0.8824535529071154  0.13769240106544336  0.8755575684857962  1.0000
  H   H29       1.0  0.8824549508751146  0.3623069805394508  0.375555874791239  1.0000
  H   H30       1.0  0.38245605224665263  0.1376910205317827  0.12444319650450102  1.0000
  H   H31       1.0  0.6175458906406134  0.6376917352065306  0.37555736312773297  1.0000
  H   H32       1.0  0.11754569285162118  0.8623083365089316  0.12444436410372363  1.0000
  H   H33       1.0  0.24858836880699192  0.7235834375566199  0.6584278982381165  1.0000
  H   H34       1.0  0.7485886075801886  0.7764157619562796  0.8415714188220491  1.0000
  H   H35       1.0  0.251410647103647  0.27641675773484314  0.6584299027796803  1.0000
  H   H36       1.0  0.7514108702118135  0.22358522900313457  0.8415709708904018  1.0000
  H   H37       1.0  0.7514115598320217  0.27641668481246034  0.3415698211622953  1.0000
  H   H38       1.0  0.2514126868193998  0.2235831299849309  0.15842924981192402  1.0000
  H   H39       1.0  0.7485872328944296  0.7235845950517755  0.3415716084904404  1.0000
  H   H40       1.0  0.24858905842747694  0.7764167389967939  0.1584296977413757  1.0000
  H   H41       1.0  0.37712559858287154  0.8774819628453657  0.5218235438670717  1.0000
  H   H42       1.0  0.877125792321422  0.622519113602415  0.978175352186895  1.0000
  H   H43       1.0  0.12287409961109566  0.12251803232935289  0.5218245038947843  1.0000
  H   H44       1.0  0.6228736860675355  0.37748146226460483  0.978175105506111  1.0000
  H   H45       1.0  0.6228756958169012  0.122518159521313  0.47817586080915936  1.0000
  H   H46       1.0  0.12287345343731458  0.3774816239751573  0.021824473807846804  1.0000
  H   H47       1.0  0.877125146147641  0.8774827052475798  0.47817574341891617  1.0000
  H   H48       1.0  0.37712555969110884  0.6225186601005532  0.021825141808030007  1.0000
  H   H49       1.0  0.4733557452858719  0.9459766893275371  0.4483922358035742  1.0000
  H   H50       1.0  0.9733545510902883  0.554024699454544  0.051607385701636616  1.0000
  H   H51       1.0  0.0266446354675764  0.054023528980103215  0.44839287208298373  1.0000
  H   H52       1.0  0.5266449232492221  0.4459762310849771  0.0516070409799312  1.0000
  H   H53       1.0  0.5266455491139936  0.054024048250283806  0.5516075901911748  1.0000
  H   H54       1.0  0.0266433289076957  0.44597603812285774  0.9483924402931054  1.0000
  H   H55       1.0  0.9733559760518135  0.9459765933858576  0.5516069539121986  1.0000
  H   H56       1.0  0.47335568827017477  0.5540238912797052  0.9483936276531608  1.0000
  H   H57       1.0  0.705296043651934  0.8031558411475218  0.4994570379916539  1.0000
  H   H58       1.0  0.2052957962603301  0.6968448671482222  0.0005438468158658  1.0000
  H   H59       1.0  0.7947034326447593  0.19684434374438106  0.49945620703049093  1.0000
  H   H60       1.0  0.29470321677518296  0.3031560968049547  0.0005437066869831  1.0000
  H   H61       1.0  0.29470525074783177  0.19684428121724554  0.5005436306414452  1.0000
  H   H62       1.0  0.7947027666179379  0.30315525521685055  0.9994564004982678  1.0000
  H   H63       1.0  0.2052951302333241  0.8031545481990608  0.5005427763276629  1.0000
  H   H64       1.0  0.7052960289836462  0.6968452559837602  0.9994565406262768  1.0000
  H   H65       1.0  0.6111821430288273  0.7332898075076886  0.5731280775219717  1.0000
  H   H66       1.0  0.1111826010965373  0.766710588969616  0.9268716605205186  1.0000
  H   H67       1.0  0.8888166507094368  0.2667101535215579  0.5731284109837134  1.0000
  H   H68       1.0  0.3888164159873853  0.23329002104014762  0.9268720417044776  1.0000
  H   H69       1.0  0.3888184684905695  0.2667103148582725  0.42687174847321785  1.0000
  H   H70       1.0  0.8888166446621992  0.23329014860731695  0.0731285867931746  1.0000
  H   H71       1.0  0.1111805464079936  0.7332893536315694  0.42687183633086095  1.0000
  H   H72       1.0  0.6111828297713513  0.7667107165367851  0.07312820560922262  1.0000
  H   H73       1.0  0.4405835794501485  0.5807817811625354  0.6271640274023724  1.0000
  H   H74       1.0  0.9405838607018069  0.9192186955255508  0.8728348688070966  1.0000
  H   H75       1.0  0.05941816784537218  0.41921850913093556  0.6271649849254217  1.0000
  H   H76       1.0  0.5594176658678549  0.080781585223221  0.8728346243199783  1.0000
  H   H77       1.0  0.5594197635905617  0.41921711078148144  0.3728349559557885  1.0000
  H   H78       1.0  0.059418116578342485  0.0807814268399412  0.1271653785070441  1.0000
  H   H79       1.0  0.9405817607934636  0.5807803828101115  0.37283568370855136  1.0000
  H   H80       1.0  0.4405829456516273  0.9192191523557938  0.1271643590368541  1.0000
  H   H81       1.0  0.5335543167622417  0.5030767467370509  0.6976098761606053  1.0000
  H   H82       1.0  0.0335534767847676  0.996923015628447  0.8023881764168197  1.0000
  H   H83       1.0  0.9664465261613131  0.4969240664593856  0.6976098810823359  1.0000
  H   H84       1.0  0.46644553975497866  0.0030767422188660003  0.8023893078382329  1.0000
  H   H85       1.0  0.4664476605179075  0.49692337562843397  0.3023903711535354  1.0000
  H   H86       1.0  0.966446451853976  0.0030752611033833003  0.1976108069417748  1.0000
  H   H87       1.0  0.0335527195973313  0.5030760559064122  0.30238994491284643  1.0000
  H   H88       1.0  0.5335537060038433  0.9969246105704812  0.1976105181560683  1.0000
  H   H89       1.0  0.6514290633614976  0.7282915524315072  0.7570906828810352  1.0000
  H   H90       1.0  0.1514288392267602  0.7717082386340977  0.7429090552602347  1.0000
  H   H91       1.0  0.8485690483006676  0.2717103104473466  0.7570901664679823  1.0000
  H   H92       1.0  0.34856881129212525  0.22829046952773524  0.742909022164561  1.0000
  H   H93       1.0  0.3485674508761035  0.27171164599091924  0.24291040706881264  1.0000
  H   H94       1.0  0.848568357890393  0.22828942288434456  0.2570907707367027  1.0000
  H   H95       1.0  0.15143019745807607  0.7282904271276678  0.24291134480257884  1.0000
  H   H96       1.0  0.6514304344666116  0.7717102680485582  0.25709164646809063  1.0000
  H   H97       1.0  0.5553566837770562  0.8086020045772672  0.6891314567288661  1.0000
  H   H98       1.0  0.05535643612683569  0.6913983783070564  0.8108678598582559  1.0000
  H   H99       1.0  0.944641427587946  0.191398834381161  0.6891318978672629  1.0000
  H   H100      1.0  0.44464121468921297  0.30860135377457004  0.8108681336383796  1.0000
  H   H101      1.0  0.4446398304600905  0.19139811778755703  0.3108687905852677  1.0000
  H   H102      1.0  0.9446407609905023  0.3086005136355752  0.1891315448188493  1.0000
  H   H103      1.0  0.05535781817070529  0.8086012879814393  0.31087003472269  1.0000
  H   H104      1.0  0.5553580310694314  0.691398768590588  0.18913211367576116  1.0000
  C   C1        1.0  0.3288322727140169  0.7029782734726735  0.583265875503983  1.0000
  C   C2        1.0  0.8288338836861086  0.7970215607909806  0.9167338630707677  1.0000
  C   C3        1.0  0.17116742574827265  0.2970203045768827  0.5832665864709341  1.0000
  C   C4        1.0  0.6711655944343491  0.20297920177572593  0.9167334443669191  1.0000
  C   C5        1.0  0.6711683388051953  0.2970206184710095  0.4167331078541708  1.0000
  C   C6        1.0  0.1711660449528196  0.20297794636248062  0.0832663842438066  1.0000
  C   C7        1.0  0.8288311371298177  0.7029785873639938  0.4167340821630391  1.0000
  C   C8        1.0  0.3288329684441038  0.7970221510128964  0.08326680294634063  1.0000
  C   C9        1.0  0.3319516647921644  0.6668340481856134  0.5296581201683283  1.0000
  C   C10       1.0  0.8319532867154606  0.8331651716258434  0.9703416184144871  1.0000
  C   C11       1.0  0.16805008207698077  0.333164692759695  0.5296587795159624  1.0000
  C   C12       1.0  0.668046874519547  0.1668348128336774  0.9703412513142665  1.0000
  C   C13       1.0  0.6680509953682545  0.3331654589713793  0.47034002055148244  1.0000
  C   C14       1.0  0.16804869056468158  0.16683495073900897  0.02965905021860491  1.0000
  C   C15       1.0  0.8319498465618622  0.666834199181352  0.47034188911801084  1.0000
  C   C16       1.0  0.3319496397176919  0.8331659247422821  0.029659417318377696  1.0000
  C   C17       1.0  0.2578980614365065  0.6210469321982898  0.5102172322462835  1.0000
  C   C18       1.0  0.7579003799014145  0.8789528847935558  0.9897820848361935  1.0000
  C   C19       1.0  0.24210436822797016  0.37895125260955353  0.510217826394289  1.0000
  C   C20       1.0  0.7420997814187372  0.1210482710152831  0.9897826259358455  1.0000
  C   C21       1.0  0.7421039158434579  0.3789519597455637  0.48978175111187744  1.0000
  C   C22       1.0  0.24210091449817375  0.1210460071489337  0.0102177411598703  1.0000
  C   C23       1.0  0.7578969261715256  0.6210470241205144  0.4897824209211663  1.0000
  C   C24       1.0  0.2578967328186792  0.8789536969848726  0.0102176213769667  1.0000
  C   C25       1.0  0.18101733865584177  0.6104049371186022  0.5447059880548935  1.0000
  C   C26       1.0  0.6810203430059116  0.8895954763633043  0.955294171477192  1.0000
  C   C27       1.0  0.3189864569200012  0.38959252767953967  0.5447057245573106  1.0000
  C   C28       1.0  0.8189818668046486  0.110405784243234  0.955294306642607  1.0000
  C   C29       1.0  0.818986687265152  0.3895933396130857  0.4552934166226592  1.0000
  C   C30       1.0  0.31898368291535917  0.1104046460024293  0.0447060758369489  1.0000
  C   C31       1.0  0.6810168861205241  0.6104051338409208  0.45529325880172433  1.0000
  C   C32       1.0  0.18101396455202934  0.8895937229097298  0.04470594067196031  1.0000
  C   C33       1.0  0.10094073006907679  0.5624504298220147  0.5249263612334403  1.0000
  C   C34       1.0  0.6009396514422535  0.937550579373095  0.9750733767835841  1.0000
  C   C35       1.0  0.39906101677938466  0.4375483255042597  0.524925186816816  1.0000
  C   C36       1.0  0.8990598269332395  0.062450621129571  0.9750744232593718  1.0000
  C   C37       1.0  0.8990626129716404  0.4375484621194444  0.47507430740054  1.0000
  C   C38       1.0  0.3990589114358301  0.062448312571625315  0.024924763936660103  1.0000
  C   C39       1.0  0.6009389118593518  0.5624499512288494  0.4750729539038617  1.0000
  C   C40       1.0  0.10093805306473767  0.937550116449117  0.0249245600974604  1.0000
  C   C41       1.0  0.1782243633441567  0.6461898784942619  0.5984936468410851  1.0000
  C   C42       1.0  0.6782246253270827  0.8538099190954398  0.9015065126846197  1.0000
  C   C43       1.0  0.32177738382589643  0.3538092684948779  0.5984946984045223  1.0000
  C   C44       1.0  0.8217755356073938  0.14619212016479116  0.9015065967568887  1.0000
  C   C45       1.0  0.8217782968161769  0.3538090134503165  0.40150491519811743  1.0000
  C   C46       1.0  0.32177666907259816  0.1461895880575454  0.0984941559489201  1.0000
  C   C47       1.0  0.6782232276935005  0.6461908538704436  0.40150554890961837  1.0000
  C   C48       1.0  0.17822234439086768  0.8538104630453845  0.0984949145123579  1.0000
  C   C49       1.0  0.25147011936685  0.6930000921318041  0.617563773351634  1.0000
  C   C50       1.0  0.7514710502671776  0.8069991080816054  0.8824363863534829  1.0000
  C   C51       1.0  0.2485302621257759  0.30699899691019533  0.6175644702590831  1.0000
  C   C52       1.0  0.7485284277033131  0.1930011434908323  0.8824364034052794  1.0000
  C   C53       1.0  0.7485311750329159  0.3070000302355211  0.38243521000564584  1.0000
  C   C54       1.0  0.24853092701287235  0.19300039907210484  0.1175638609610985  1.0000
  C   C55       1.0  0.7514689836328686  0.6930011254543231  0.38243619837401616  1.0000
  C   C56       1.0  0.251469452294856  0.8070008245088474  0.1175642652264983  1.0000
  C   C57       1.0  0.48841596783546487  0.8011482986223726  0.5521720454404431  1.0000
  C   C58       1.0  0.988416866955113  0.6988521897117366  0.9478276935238058  1.0000
  C   C59       1.0  0.011583730491210496  0.1988522195469784  0.552172053558472  1.0000
  C   C60       1.0  0.5115832941816053  0.3011484783718785  0.9478271342506588  1.0000
  C   C61       1.0  0.5115846436840172  0.19885243895472374  0.4478282018732571  1.0000
  C   C62       1.0  0.011583061683907702  0.30114793265350676  0.0521725537903279  1.0000
  C   C63       1.0  0.9884155152674338  0.8011479028188191  0.4478277724367176  1.0000
  C   C64       1.0  0.4884159515771315  0.6988522592056938  0.052172691744083  1.0000
  C   C65       1.0  0.4486586810715067  0.8602148307927777  0.5164361508101791  1.0000
  C   C66       1.0  0.9486588799534204  0.6397862630733683  0.983562745418574  1.0000
  C   C67       1.0  0.05134033421854408  0.13978518075232668  0.5164370860067535  1.0000
  C   C68       1.0  0.5513399155787012  0.3602142964231022  0.983562523219355  1.0000
  C   C69       1.0  0.5513412475676063  0.13978590678615893  0.48356283254665305  1.0000
  C   C70       1.0  0.0513396829247554  0.3602132440805619  0.016437080577041702  1.0000
  C   C71       1.0  0.9486582286597239  0.8602149416127461  0.4835631613073873  1.0000
  C   C72       1.0  0.4486593301799431  0.6397858259426885  0.0164373027758273  1.0000
  C   C73       1.0  0.5020490059641105  0.8988563507524105  0.47579864615870804  1.0000
  C   C74       1.0  0.0020480474196773  0.6011443080537049  0.024201395514268104  1.0000
  C   C75       1.0  0.9979504702291067  0.10114329081525143  0.4757992163054965  1.0000
  C   C76       1.0  0.49795096571912717  0.3988559688014348  0.024200697909485303  1.0000
  C   C77       1.0  0.4979522884356626  0.1011437716136356  0.5242011798364743  1.0000
  C   C78       1.0  0.9979505154586831  0.3988564295225032  0.9757992731183835  1.0000
  C   C79       1.0  0.0020480926491615002  0.898856831550461  0.5242006096896858  1.0000
  C   C80       1.0  0.5020489629198934  0.6011441535638015  0.9757995494046554  1.0000
  C   C81       1.0  0.5949337087980522  0.8792606447718256  0.4703792345498812  1.0000
  C   C82       1.0  0.09493275608756588  0.6207400366511493  0.029621228669015003  1.0000
  C   C83       1.0  0.9050657673715747  0.12073962847600941  0.47037935516890883  1.0000
  C   C84       1.0  0.405066257074921  0.37926022373431323  0.029620980137629302  1.0000
  C   C85       1.0  0.4050675856017206  0.12073947759357402  0.5296210127642597  1.0000
  C   C86       1.0  0.9050658067907021  0.37926008571392344  0.9703790186451258  1.0000
  C   C87       1.0  0.09493347838706967  0.8792604938897881  0.5296204708262806  1.0000
  C   C88       1.0  0.5949336715640996  0.6207398986309302  0.9703792671765116  1.0000
  C   C89       1.0  0.6536020171231484  0.924748858826007  0.4286985392849588  1.0000
  C   C90       1.0  0.15360105110727323  0.5752518368821171  0.07130234539624782  1.0000
  C   C91       1.0  0.8463981417447072  0.0752515410763124  0.428697882076797  1.0000
  C   C92       1.0  0.3463986451177376  0.42474829684839227  0.0713024530863891  1.0000
  C   C93       1.0  0.3463992772768093  0.07525249396167771  0.5713025506662106  1.0000
  C   C94       1.0  0.8463981946512859  0.424747670271266  0.9286979019183335  1.0000
  C   C95       1.0  0.15360178689430629  0.9247485812914888  0.5713006799615243  1.0000
  C   C96       1.0  0.6536012835212829  0.5752518255155651  0.9286986368656615  1.0000
  C   C97       1.0  0.6333894253090335  0.8184745975910774  0.5047559554586982  1.0000
  C   C98       1.0  0.1333884926570477  0.6815264195040458  0.9952446252755254  1.0000
  C   C99       1.0  0.8666107338911926  0.1815255711980086  0.5047559891853481  1.0000
  C   C100      1.0  0.36661052472565797  0.31847398274540245  0.995244042130068  1.0000
  C   C101      1.0  0.3666118690908249  0.1815261399860972  0.49524429185500213  1.0000
  C   C102      1.0  0.86661007022132  0.3184743180721624  0.0047560433571263005  1.0000
  C   C103      1.0  0.13338851186735917  0.818473935956007  0.4952438368102747  1.0000
  C   C104      1.0  0.6333894039133625  0.6815261396198339  0.0047562051840728  1.0000
  C   C105      1.0  0.5806116440648523  0.7795045542048341  0.5456647897522302  1.0000
  C   C106      1.0  0.08061208854951468  0.7204952196161187  0.9543353695349527  1.0000
  C   C107      1.0  0.9193885153140543  0.2204948750641336  0.5456651892806762  1.0000
  C   C108      1.0  0.4193869286544185  0.2795053069423189  0.9543348421632558  1.0000
  C   C109      1.0  0.4193889674544522  0.2204949529493518  0.45433503624339283  1.0000
  C   C110      1.0  0.9193871572090373  0.2795042875372645  0.045664877779621804  1.0000
  C   C111      1.0  0.0806107304444978  0.779504632088603  0.45433547935285656  1.0000
  C   C112      1.0  0.580612317104503  0.720496661058803  0.045664983830604904  1.0000
  C   C113      1.0  0.49261020425493746  0.6995200809938426  0.653704930235655  1.0000
  C   C114      1.0  0.9926097673034419  0.800479793150899  0.8462939661013708  1.0000
  C   C115      1.0  0.0073908602762742  0.3004807438630833  0.6537056358627211  1.0000
  C   C116      1.0  0.5073897105090168  0.19951995303407705  0.8462939732551151  1.0000
  C   C117      1.0  0.5073910901450062  0.30048127179639283  0.3462944744396951  1.0000
  C   C118      1.0  0.007390844215862599  0.19951971400328009  0.15370585989425223  1.0000
  C   C119      1.0  0.9926097512432077  0.6995199937133804  0.3462950327699374  1.0000
  C   C120      1.0  0.4926102181300961  0.800480784544213  0.15370543142067566  1.0000
  C   C121      1.0  0.4865373363390688  0.613563303235047  0.6555078154052795  1.0000
  C   C122      1.0  0.9865376077468254  0.8864365694310409  0.8444910809169103  1.0000
  C   C123      1.0  0.0134630453195612  0.3864369009312227  0.6555088196259505  1.0000
  C   C124      1.0  0.5134625529381296  0.11356318223282362  0.8444907895071625  1.0000
  C   C125      1.0  0.5134625923000371  0.3864374343438898  0.3444911679515599  1.0000
  C   C126      1.0  0.013463003772479  0.1135629377231453  0.15550874507871273  1.0000
  C   C127      1.0  0.9865362004389977  0.6135626062208742  0.34449227032653346  1.0000
  C   C128      1.0  0.4865373757009833  0.8864375553461131  0.155508193849677  1.0000
  C   C129      1.0  0.5384382870964686  0.5698364577499931  0.6946943013365114  1.0000
  C   C130      1.0  0.0384374273370369  0.9301633058053937  0.8053033299338922  1.0000
  C   C131      1.0  0.9615625558143464  0.43016436430507815  0.6946948228937302  1.0000
  C   C132      1.0  0.46156227209582557  0.0698364431833625  0.805304787333867  1.0000
  C   C133      1.0  0.4615630073033897  0.4301642798284675  0.3053051033392791  1.0000
  C   C134      1.0  0.961562501301799  0.0698355861388507  0.19469523210530332  1.0000
  C   C135      1.0  0.03843737282458189  0.5698351428483759  0.305305424420844  1.0000
  C   C136      1.0  0.5384383394237561  0.930164909606148  0.1946950386604414  1.0000
  C   C137      1.0  0.5969406551241506  0.6116972638885728  0.7315074364977859  1.0000
  C   C138      1.0  0.09693978279182862  0.8883025139102686  0.7684914588724325  1.0000
  C   C139      1.0  0.9030595050670697  0.3883028310928083  0.7315075963680899  1.0000
  C   C140      1.0  0.4030585507194147  0.1116973469382359  0.7684920137169939  1.0000
  C   C141      1.0  0.4030592735151473  0.3883047041113628  0.26849323213398435  1.0000
  C   C142      1.0  0.9030594629666383  0.11169637803261172  0.23150794580467962  1.0000
  C   C143      1.0  0.09694042357176608  0.6116960608482317  0.2684930722658834  1.0000
  C   C144      1.0  0.5969406950394145  0.888304005850472  0.23150823359626577  1.0000
  C   C145      1.0  0.6505843164210817  0.5666950768409933  0.7758019943472618  1.0000
  C   C146      1.0  0.15058414011890156  0.9333040988077813  0.7241973224734295  1.0000
  C   C147      1.0  0.8494158439639746  0.4333067291812612  0.7758012471871824  1.0000
  C   C148      1.0  0.34941487607887467  0.06669405099928842  0.7241983627663802  1.0000
  C   C149      1.0  0.3494156122183085  0.43330750636943094  0.22419951692198486  1.0000
  C   C150      1.0  0.8494157885197493  0.06669356271226691  0.2758016608856053  1.0000
  C   C151      1.0  0.15058476755559977  0.5666946236076172  0.22419900012607746  1.0000
  C   C152      1.0  0.6505850525603306  0.9333073017895045  0.2758018845468797  1.0000
  C   C153      1.0  0.6046196576563928  0.6974983953206718  0.7283504323211787  1.0000
  C   C154      1.0  0.10461944277772517  0.8025019995605049  0.7716480417484135  1.0000
  C   C155      1.0  0.8953791367602759  0.30250170925340575  0.7283507146910753  1.0000
  C   C156      1.0  0.3953788907474022  0.19749846690755393  0.7716488953752432  1.0000
  C   C157      1.0  0.3953775394611228  0.3025017270442376  0.2716498149929549  1.0000
  C   C158      1.0  0.8953791201004435  0.19749750759534382  0.2283505202903413  1.0000
  C   C159      1.0  0.104621474758936  0.6974971826870799  0.2716503752618565  1.0000
  C   C160      1.0  0.6046203550114271  0.8025028858818005  0.22835093061906525  1.0000
  C   C161      1.0  0.5522126925954396  0.7415777555752924  0.6901624720600382  1.0000
  C   C162      1.0  0.052213830574501706  0.7584220113331384  0.8098360018819335  1.0000
  C   C163      1.0  0.9477874674151039  0.258422465038855  0.6901628175003438  1.0000
  C   C164      1.0  0.44778586887816363  0.24157772388404913  0.8098363713750703  1.0000
  C   C165      1.0  0.4477865531632972  0.2584229820010009  0.3098381965726134  1.0000
  C   C166      1.0  0.9477867809447104  0.24157688061119137  0.19016256015726188  1.0000
  C   C167      1.0  0.05221450986495309  0.741577042113576  0.3098382724521471  1.0000
  C   C168      1.0  0.5522133768805728  0.7584230136941628  0.19016303330071344  1.0000
  O   O1        1.0  0.3886471500137318  0.833405540222536  0.647845973136171  1.0000
  O   O2        1.0  0.888647356270283  0.666594308605923  0.8521537655847382  1.0000
  O   O3        1.0  0.1113505000898272  0.16659407201539278  0.6478456062408995  1.0000
  O   O4        1.0  0.6113521215677834  0.33340541977408833  0.8521531604939271  1.0000
  O   O5        1.0  0.6113527786252889  0.16659458214397926  0.35215343154006024  1.0000
  O   O6        1.0  0.11135188948818349  0.3334045833363177  0.1478460604113181  1.0000
  O   O7        1.0  0.8886473799079724  0.8334054351403781  0.35215295579785527  1.0000
  O   O8        1.0  0.3886464413107617  0.6665965482269555  0.1478466654999337  1.0000
  O   O9        1.0  0.10392559677035247  0.540179845147712  0.4714209764982584  1.0000
  O   O10       1.0  0.6039293029582993  0.959822068889558  0.02857906542278241  1.0000
  O   O11       1.0  0.3960768327243969  0.4598172271251499  0.4714214555504412  1.0000
  O   O12       1.0  0.8960729028022596  0.04018016204742741  0.02857972237379161  1.0000
  O   O13       1.0  0.8960770633897964  0.45981781637330954  0.528577585541818  1.0000
  O   O14       1.0  0.396073357202134  0.0401774382610327  0.9714232884865766  1.0000
  O   O15       1.0  0.603925144555106  0.5401785887598151  0.5285775278099152  1.0000
  O   O16       1.0  0.1039222456736795  0.9598168842557796  0.9714222102183571  1.0000
  O   O17       1.0  0.036350487326068  0.5453991631099483  0.55733212072154  1.0000
  O   O18       1.0  0.5363528280151258  0.954600599933606  0.942668038457498  1.0000
  O   O19       1.0  0.46365330830523277  0.45460010895465797  0.5573334500280325  1.0000
  O   O20       1.0  0.963648015979416  0.045400083828582204  0.9426674241619681  1.0000
  O   O21       1.0  0.9636542214753021  0.4545991136237433  0.44266601999915184  1.0000
  O   O22       1.0  0.4636518807859815  0.0453958311577125  0.05733473677301501  1.0000
  O   O23       1.0  0.5363507176157681  0.545398167775744  0.44266679728742997  1.0000
  O   O24       1.0  0.03634713249743269  0.9546031145936809  0.05733366578787981  1.0000
  O   O25       1.0  0.6160668231331385  0.9839008914811062  0.4023239304486027  1.0000
  O   O26       1.0  0.1160658396936469  0.5161004102989324  0.09767695414044651  1.0000
  O   O27       1.0  0.8839340184999287  0.0161002037762543  0.4023233577968739  1.0000
  O   O28       1.0  0.383933856646621  0.4838996432883891  0.09767697745802913  1.0000
  O   O29       1.0  0.38393515414719553  0.016100461307296105  0.5976767381836154  1.0000
  O   O30       1.0  0.8839334060649049  0.48389909685508314  0.9023228718551765  1.0000
  O   O31       1.0  0.11606591013917718  0.9839005338033218  0.597675204241007  1.0000
  O   O32       1.0  0.6160653891120232  0.5161004790761227  0.9023236911750703  1.0000
  O   O33       1.0  0.7360379667079542  0.9009094203401066  0.42353908448824035  1.0000
  O   O34       1.0  0.2360363249028978  0.5990919106529303  0.07646180039395742  1.0000
  O   O35       1.0  0.76396287501791  0.0990922256630569  0.42353881435554547  1.0000
  O   O36       1.0  0.2639633713446585  0.40090820739973054  0.0764619419247268  1.0000
  O   O37       1.0  0.2639640105724652  0.09909254766071744  0.5764611628245859  1.0000
  O   O38       1.0  0.7639615550949941  0.4009082117126965  0.9235380256012249  1.0000
  O   O39       1.0  0.2360370536212884  0.900909127127015  0.5764605903198046  1.0000
  O   O40       1.0  0.7360365572942695  0.5990912997530911  0.9235387267088129  1.0000
  O   O41       1.0  0.6345932953804478  0.4904137266350049  0.7821184625574488  1.0000
  O   O42       1.0  0.1345943591759706  0.0095851556022666  0.717880304234619  1.0000
  O   O43       1.0  0.8654048163911767  0.5095886754053822  0.782117606511264  1.0000
  O   O44       1.0  0.3654046569940234  0.990411782975279  0.7178821321524111  1.0000
  O   O45       1.0  0.36540526749818986  0.5095888565765351  0.21788220607388814  1.0000
  O   O46       1.0  0.8654055694624958  0.990411275494864  0.2821182578063387  1.0000
  O   O47       1.0  0.13459374648736142  0.49041329259630123  0.21788179816364567  1.0000
  O   O48       1.0  0.6345932230038756  0.009588339389708298  0.2821181151617225  1.0000
  O   O49       1.0  0.7070093625189598  0.6098398428221259  0.803981881890607  1.0000
  O   O50       1.0  0.20700849042063396  0.890159961779169  0.696016592429608  1.0000
  O   O51       1.0  0.7929901151088643  0.3901618775710247  0.8039811962005958  1.0000
  O   O52       1.0  0.29298984277371437  0.1098388888698949  0.6960184136151001  1.0000
  O   O53       1.0  0.2929905661204231  0.3901627403889378  0.19601920805968123  1.0000
  O   O54       1.0  0.7929907553377333  0.10983831495321542  0.3039819696100281  1.0000
  O   O55       1.0  0.20700913064996473  0.6098394752183296  0.19601862979371282  1.0000
  O   O56       1.0  0.707008720104561  0.8901612334938918  0.3039826763369505  1.0000
