data_image0
_chemical_formula_structural       Cu2P2H22C12O8
_chemical_formula_sum              "Cu2 P2 H22 C12 O8"
_cell_length_a       5.862164277335179
_cell_length_b       5.956934274149537
_cell_length_c       12.286961833450464
_cell_angle_alpha    84.1228183482047
_cell_angle_beta     78.48190333067544
_cell_angle_gamma    77.603406402455

_space_group_name_H-M_alt    "P 1"
_space_group_IT_number       1

loop_
  _space_group_symop_operation_xyz
  'x, y, z'

loop_
  _atom_site_type_symbol
  _atom_site_label
  _atom_site_symmetry_multiplicity
  _atom_site_fract_x
  _atom_site_fract_y
  _atom_site_fract_z
  _atom_site_occupancy
  Cu  Cu1       1.0  0.21777216787879897  0.7768076485011404  0.012665283886313711  1.0000
  Cu  Cu2       1.0  0.7822274234583022  0.22320477396535662  0.9873362674112088  1.0000
  P   P1        1.0  0.3049245428015722  0.3177112687923512  0.9215612059768077  1.0000
  P   P2        1.0  0.6950764533077135  0.682302846691506  0.0784368699463016  1.0000
  H   H1        1.0  0.6803633003474305  0.9257522272116248  0.8900060650985608  1.0000
  H   H2        1.0  0.3196401318317896  0.07425845374540778  0.10999358409669209  1.0000
  H   H3        1.0  0.7232408630171746  0.5007757847381669  0.7925660124006841  1.0000
  H   H4        1.0  0.2767490030766168  0.4992417555984757  0.2074280584572463  1.0000
  H   H5        1.0  0.49712520084634104  0.5414774194570668  0.712869147348286  1.0000
  H   H6        1.0  0.5028720133843337  0.45852115827867823  0.28712357272330996  1.0000
  H   H7        1.0  0.8910932577679135  0.4902320654690867  0.5883008516474463  1.0000
  H   H8        1.0  0.10890779545060524  0.5097561893032605  0.4116936622226746  1.0000
  H   H9        1.0  0.9874462512572749  0.22362164711799437  0.6592859485273337  1.0000
  H   H10       1.0  0.012554400859329615  0.7763770081755151  0.3407170224398683  1.0000
  H   H11       1.0  0.8593648824671406  0.15954070715392987  0.484185453921363  1.0000
  H   H12       1.0  0.14064416301123123  0.8404338321390058  0.5158179594048775  1.0000
  H   H13       1.0  0.5751328683821555  0.3267373048045954  0.5307734068682209  1.0000
  H   H14       1.0  0.42487968113596974  0.6732371892325303  0.4692247937229724  1.0000
  H   H15       1.0  0.5711881922001326  0.9058145338872166  0.5727196346082623  1.0000
  H   H16       1.0  0.428808993949538  0.0941669261877607  0.42728617439199473  1.0000
  H   H17       1.0  0.7993938928116223  0.8804554228475324  0.6505151209491515  1.0000
  H   H18       1.0  0.20060396183347254  0.11953123910181773  0.3494952411664798  1.0000
  H   H19       1.0  0.39905785611679084  0.9240863058357858  0.7758287721946999  1.0000
  H   H20       1.0  0.6009309331893393  0.07591927670364379  0.2241774083218147  1.0000
  H   H21       1.0  0.3000625940610391  0.18254305399315027  0.7015964784878435  1.0000
  H   H22       1.0  0.6999321492818992  0.8174590229081531  0.2984028070645763  1.0000
  C   C1        1.0  0.5466070064942983  0.21360654872530924  0.8025037262068582  1.0000
  C   C2        1.0  0.4533957362988162  0.7863989691405846  0.197496253124811  1.0000
  C   C3        1.0  0.6473160018559768  0.4146142718338908  0.7372509035184437  1.0000
  C   C4        1.0  0.35268537446454223  0.5853894819120383  0.2627435985593678  1.0000
  C   C5        1.0  0.8307548808971035  0.33835309698081056  0.6336776423626773  1.0000
  C   C6        1.0  0.16924894356619555  0.6616386149288614  0.3663188733868808  1.0000
  C   C7        1.0  0.7282647999833574  0.21032817983243032  0.5593196950115314  1.0000
  C   C8        1.0  0.2717425057747392  0.789654944150726  0.4406801871555572  1.0000
  C   C9        1.0  0.6459314653141064  0.0006256868303751006  0.6245840363426042  1.0000
  C   C10       1.0  0.35406572268983894  0.9993643546985426  0.37541807675686567  1.0000
  C   C11       1.0  0.4592756294344724  0.0729860709943893  0.7274786349458111  1.0000
  C   C12       1.0  0.5407166430207371  0.9270195050724582  0.2725272160874397  1.0000
  O   O1        1.0  0.19987640331566334  0.5739567438234943  0.9004422996401118  1.0000
  O   O2        1.0  0.8001381676968934  0.4260590808069438  0.09955603096894093  1.0000
  O   O3        1.0  0.4315493128383566  0.26952598544831113  0.025010540019749797  1.0000
  O   O4        1.0  0.5684495805215805  0.7304898747726015  0.9749900871392896  1.0000
  O   O5        1.0  0.12268648963629401  0.16056735864280108  0.9325346012345292  1.0000
  O   O6        1.0  0.8773082156338248  0.8394519587328444  0.06746705901989006  1.0000
  O   O7        1.0  0.7387370669227097  0.0676196973392464  0.8519390886624763  1.0000
  O   O8        1.0  0.2612566121589525  0.9323961531989083  0.14805959109556707  1.0000
