data_image0
_chemical_formula_structural       Rb8H24C48N8O16
_chemical_formula_sum              "Rb8 H24 C48 N8 O16"
_cell_length_a       7.129934229
_cell_length_b       12.4075706
_cell_length_c       16.5323
_cell_angle_alpha    90.0
_cell_angle_beta     90.0
_cell_angle_gamma    90.0

_space_group_name_H-M_alt    "P 1"
_space_group_IT_number       1

loop_
  _space_group_symop_operation_xyz
  'x, y, z'

loop_
  _atom_site_type_symbol
  _atom_site_label
  _atom_site_symmetry_multiplicity
  _atom_site_fract_x
  _atom_site_fract_y
  _atom_site_fract_z
  _atom_site_occupancy
  Rb  Rb1       1.0  0.9196648649758501  0.0888070707411472  0.8916992795920748  1.0000
  Rb  Rb2       1.0  0.4196574475862533  0.9111928809012753  0.8917004893450979  1.0000
  Rb  Rb3       1.0  0.08034155457845317  0.5888066435825863  0.3916986747155561  1.0000
  Rb  Rb4       1.0  0.419661655198702  0.5888098674207853  0.6083001155314136  1.0000
  Rb  Rb5       1.0  0.0803387495034897  0.9111904630226348  0.1083013252844438  1.0000
  Rb  Rb6       1.0  0.5803391542056813  0.0888070707411472  0.1083001155314136  1.0000
  Rb  Rb7       1.0  0.9196634624383717  0.4111933080598362  0.6083013252844438  1.0000
  Rb  Rb8       1.0  0.5803419592806447  0.4111925021002917  0.3916998844685864  1.0000
  H   H1        1.0  0.0114138500280987  0.6503835650147352  0.9789611850740698  1.0000
  H   H2        1.0  0.5114254750301441  0.3496163866276945  0.9789617899505814  1.0000
  H   H3        1.0  0.9885785441513943  0.1503856040923921  0.4789617899505814  1.0000
  H   H4        1.0  0.5114142547302905  0.1503807683350971  0.5210388149259302  1.0000
  H   H5        1.0  0.9885813492263578  0.34961558066814286  0.0210388149259302  1.0000
  H   H6        1.0  0.4885893597490564  0.6503811471360876  0.021040629555479  1.0000
  H   H7        1.0  0.011420862715503697  0.8496191833073254  0.5210394198024488  1.0000
  H   H8        1.0  0.4885921648240198  0.8496199892668769  0.4789599753210396  1.0000
  H   H9        1.0  0.1406408485398671  0.47244945759164375  0.9302026941199983  1.0000
  H   H10       1.0  0.6406440583170221  0.5275545238485293  0.9302008794904495  1.0000
  H   H11       1.0  0.859357155789553  0.9724482244735312  0.4302032989965099  1.0000
  H   H12       1.0  0.6406342405546466  0.9724433887162434  0.5697991205095505  1.0000
  H   H13       1.0  0.859357155789553  0.5275513000103373  0.0697997253860621  1.0000
  H   H14       1.0  0.3593623612372879  0.4724462337534447  0.0697997253860621  1.0000
  H   H15       1.0  0.1406422510773453  0.0275533390879943  0.569799725386062  1.0000
  H   H16       1.0  0.35936095869980267  0.027554145047538697  0.4301996697374264  1.0000
  H   H17       1.0  0.2246219878839781  0.4539212535288755  0.7831445110480715  1.0000
  H   H18       1.0  0.7246266001986115  0.5460803100326501  0.7831420915420109  1.0000
  H   H19       1.0  0.7753746139079565  0.9539208263703145  0.2831445110480715  1.0000
  H   H20       1.0  0.7246223925861699  0.9539216323298589  0.7168573035814771  1.0000
  H   H21       1.0  0.7753788215204052  0.5460786981135541  0.2168585133345005  1.0000
  H   H22       1.0  0.27537420920576483  0.4539220594884198  0.2168566987049587  1.0000
  H   H23       1.0  0.22462058534649285  0.0460791252721151  0.7168585133345005  1.0000
  H   H24       1.0  0.27537561174325015  0.0460791252721151  0.2831408817889809  1.0000
  C   C1        1.0  0.0793275199790031  0.7053419466337729  0.7801431137833176  1.0000
  C   C2        1.0  0.5793335348311217  0.2946596169277456  0.7801443235363479  1.0000
  C   C3        1.0  0.920666276737961  0.20533995591369347  0.28014432353634783  1.0000
  C   C4        1.0  0.5793321322936436  0.2053407618732379  0.7198520472045615  1.0000
  C   C5        1.0  0.9206620691255194  0.2946555871300092  0.2198550715871335  1.0000
  C   C6        1.0  0.4206686771107399  0.7053419466337729  0.2198574910931939  1.0000
  C   C7        1.0  0.07933172759145177  0.7946575778500886  0.7198568862166823  1.0000
  C   C8        1.0  0.42067007964821806  0.7946583838096402  0.2801449284128665  1.0000
  C   C9        1.0  0.021092761191020794  0.7220760847413601  0.8605203147777373  1.0000
  C   C10       1.0  0.5210973735056611  0.277927896698813  0.8605197099012258  1.0000
  C   C11       1.0  0.9788968279135017  0.2220732880617291  0.3605191050247072  1.0000
  C   C12       1.0  0.5210959709681758  0.22207248210217756  0.6394778705927209  1.0000
  C   C13       1.0  0.9788968279135017  0.277921449022422  0.1394784754692324  1.0000
  C   C14       1.0  0.4789076435111638  0.722072860903168  0.1394784754692324  1.0000
  C   C15       1.0  0.021098371340947594  0.777924245702053  0.6394784754692324  1.0000
  C   C16       1.0  0.4789104485861344  0.7779250516616045  0.360520919654256  1.0000
  C   C17       1.0  0.9367828349430309  0.8277252921696032  0.8883210442588165  1.0000
  C   C18       1.0  0.4367824302408464  0.1722786892705628  0.888315600370184  1.0000
  C   C19       1.0  0.0632179744613452  0.3277233014495167  0.3883180198762446  1.0000
  C   C20       1.0  0.436774015015949  0.3277233014495167  0.611683794753304  1.0000
  C   C21       1.0  0.0632137668489037  0.1722722415941789  0.1116807703707323  1.0000
  C   C22       1.0  0.5632239893134638  0.8277228742909557  0.111685609382846  1.0000
  C   C23       1.0  0.9367786273305894  0.6722726203951623  0.6116807703707252  1.0000
  C   C24       1.0  0.5632253918509491  0.6722790680715534  0.3883156003701842  1.0000
  C   C25       1.0  0.04743241510201559  0.6376647173782786  0.9155235508670925  1.0000
  C   C26       1.0  0.5474412350290976  0.3623392640618945  0.9155199216080021  1.0000
  C   C27       1.0  0.9525585765399922  0.137665950496384  0.4155211313610323  1.0000
  C   C28       1.0  0.5474300147292439  0.1376619206986405  0.5844764491329073  1.0000
  C   C29       1.0  0.9525543689275435  0.362335234264151  0.08447826376245618  1.0000
  C   C30       1.0  0.4525707946751395  0.637662299499631  0.0844806832685094  1.0000
  C   C31       1.0  0.04743662271446419  0.8623372249842375  0.5844764491329073  1.0000
  C   C32       1.0  0.4525693921376542  0.8623388369033335  0.4155217362375438  1.0000
  C   C33       1.0  0.1198846963445135  0.5397535275761385  0.8888279307779285  1.0000
  C   C34       1.0  0.6198921137341102  0.4602504538640275  0.8888255112718753  1.0000
  C   C35       1.0  0.8801020876850527  0.039753148775155  0.3888249063953566  1.0000
  C   C36       1.0  0.6198879061216687  0.0397499249369559  0.6111744887281247  1.0000
  C   C37       1.0  0.8801062952974943  0.46024561810673953  0.1111756984811549  1.0000
  C   C38       1.0  0.38011570835767816  0.5397519156570425  0.11117630335766647  1.0000
  C   C39       1.0  0.11988890395695508  0.9602476088268259  0.6111732789750945  1.0000
  C   C40       1.0  0.3801129032827148  0.9602500267054664  0.3888243015188451  1.0000
  C   C41       1.0  0.1681221679611653  0.5293340825318396  0.8073256594666205  1.0000
  C   C42       1.0  0.6681309878882471  0.470670704867878  0.8073238448370788  1.0000
  C   C43       1.0  0.8318688236808425  0.0293312858522015  0.3073226350840486  1.0000
  C   C44       1.0  0.6681239752008352  0.029332091811753  0.6926773649159514  1.0000
  C   C45       1.0  0.8318702262183206  0.47066828698923757  0.19267676003943987  1.0000
  C   C46       1.0  0.3318768342035411  0.5293308586936405  0.1926773649159514  1.0000
  C   C47       1.0  0.1681221679611653  0.9706646359924775  0.6926767600394399  1.0000
  C   C48       1.0  0.3318768342035411  0.9706678598306766  0.3073226350840486  1.0000
  N   N1        1.0  0.15131135370253185  0.6107714591605884  0.7544249741415285  1.0000
  N   N2        1.0  0.6513285888545042  0.3892309103604887  0.7544237643884982  1.0000
  N   N3        1.0  0.8486768328645125  0.1107694684405018  0.2544279985241005  1.0000
  N   N4        1.0  0.6513229787045773  0.1107718863191494  0.7455720014758995  1.0000
  N   N5        1.0  0.8486796379394759  0.3892292984413856  0.2455726063524111  1.0000
  N   N6        1.0  0.3486792332372843  0.6107698472414924  0.24557321122892967  1.0000
  N   N7        1.0  0.15131275624001003  0.8892272593637285  0.745575630734983  1.0000
  N   N8        1.0  0.3486778306998062  0.8892296772423762  0.2544267887710703  1.0000
  O   O1        1.0  0.7905963531995466  0.8606237549839121  0.8528002758236894  1.0000
  O   O2        1.0  0.2906043637222453  0.1393794204967094  0.8527942270585456  1.0000
  O   O3        1.0  0.20940726127980006  0.3606193463851852  0.3528014855767196  1.0000
  O   O4        1.0  0.2905973510348332  0.3606177344660821  0.6472087973240264  1.0000
  O   O5        1.0  0.20938902829253433  0.1393778085776134  0.1472015388058523  1.0000
  O   O6        1.0  0.7094034583695432  0.8606148894288808  0.1472106119535681  1.0000
  O   O7        1.0  0.7906005608119882  0.6393765754595009  0.6471973046702502  1.0000
  O   O8        1.0  0.7094062634445066  0.6393854410145394  0.3527881782934016  1.0000
  O   O9        1.0  0.0223199814877262  0.8742485011529979  0.946127882992684  1.0000
  O   O10       1.0  0.522328801414808  0.1257554802871752  0.9461224391040588  1.0000
  O   O11       1.0  0.9776766203042084  0.3742481223520073  0.4461254634866307  1.0000
  O   O12       1.0  0.5223091658900643  0.37425054023065474  0.553876351142911  1.0000
  O   O13       1.0  0.977673815229245  0.1257474206916882  0.053872117007316  1.0000
  O   O14       1.0  0.47769585112676066  0.8742501130720939  0.0538769560194297  1.0000
  O   O15       1.0  0.022329799250101697  0.6257526352499667  0.5538709072542858  1.0000
  O   O16       1.0  0.47770286381417276  0.6257494114117748  0.446123648857089  1.0000
