data_image0
_chemical_formula_structural       Zn2H14C28N5ClO14
_chemical_formula_sum              "Zn2 H14 C28 N5 Cl1 O14"
_cell_length_a       9.7499489497719
_cell_length_b       11.160611311538624
_cell_length_c       13.447579483165548
_cell_angle_alpha    87.76870514448277
_cell_angle_beta     84.74377313159853
_cell_angle_gamma    95.70211145120587

_space_group_name_H-M_alt    "P 1"
_space_group_IT_number       1

loop_
  _space_group_symop_operation_xyz
  'x, y, z'

loop_
  _atom_site_type_symbol
  _atom_site_label
  _atom_site_symmetry_multiplicity
  _atom_site_fract_x
  _atom_site_fract_y
  _atom_site_fract_z
  _atom_site_occupancy
  Zn  Zn1       1.0  0.13412635889215346  0.5237798672277448  0.5350107959803695  1.0000
  Zn  Zn2       1.0  0.8606640392360346  0.5023823265443852  0.48053214862168403  1.0000
  H   H1        1.0  0.7751467644542062  0.502440778950252  0.16364851100773592  1.0000
  H   H2        1.0  0.31414375753441  0.5068472522367955  0.2407210792114897  1.0000
  H   H3        1.0  0.9612398732564101  0.6823454591509305  0.17800421620845  1.0000
  H   H4        1.0  0.28070138561322716  0.7727486500896888  0.885792716828327  1.0000
  H   H5        1.0  0.9542917240067367  0.47458160793997445  0.034982986109660975  1.0000
  H   H6        1.0  0.046515933869073885  0.48293269500192787  0.8543262849683516  1.0000
  H   H7        1.0  0.5046660516458417  0.7139173636603288  0.8278763564297907  1.0000
  H   H8        1.0  0.07873002232658168  0.7592762599919921  0.011417300441067414  1.0000
  H   H9        1.0  0.796322174717382  0.8781748854017268  0.5441731894220967  1.0000
  H   H10       1.0  0.11332908596537548  0.9276245221571742  0.4953796089685981  1.0000
  H   H11       1.0  0.09798584363616672  0.12170424033737963  0.48672684005035205  1.0000
  H   H12       1.0  0.40058613554484884  0.6825058304797408  0.4669986722363363  1.0000
  H   H13       1.0  0.37501738242594473  0.45017692222833006  0.5788416515448278  1.0000
  H   H14       1.0  0.6516868102283412  0.6713395578618419  0.47386395301922607  1.0000
  C   C1        1.0  0.9921814529247682  0.2822706150735925  0.5151956225012315  1.0000
  C   C2        1.0  0.9128403695468775  0.5210431410865654  0.696031897678239  1.0000
  C   C3        1.0  0.006187332205868798  0.7460993241790634  0.502884208925039  1.0000
  C   C4        1.0  0.0664376119101249  0.5409452691375448  0.3172707554870727  1.0000
  C   C5        1.0  0.8578788302390876  0.534813391964576  0.8027988264046403  1.0000
  C   C6        1.0  0.1345981288363234  0.589688979792612  0.21728360765779806  1.0000
  C   C7        1.0  0.8920430709436573  0.5022763775470124  0.9766069575289226  1.0000
  C   C8        1.0  0.9428477247502796  0.5059432746168753  0.8777173108141628  1.0000
  C   C9        1.0  0.7257745818805006  0.5669595349523676  0.830456765471425  1.0000
  C   C10       1.0  0.6715674297933775  0.5743852149601238  0.9317174826928467  1.0000
  C   C11       1.0  0.7577774402602131  0.5344655609967219  0.00473933511457861  1.0000
  C   C12       1.0  0.5384181755786912  0.6149548774046565  0.9657695399597446  1.0000
  C   C13       1.0  0.4839568005442842  0.5928189865502916  0.06770170000419282  1.0000
  C   C14       1.0  0.5766644210459972  0.5538855888093651  0.13563779299593653  1.0000
  C   C15       1.0  0.7078859589223185  0.5274103992255305  0.10738545579104652  1.0000
  C   C16       1.0  0.4606046691703582  0.6825325349495371  0.9025272287825531  1.0000
  C   C17       1.0  0.33411978714370605  0.717388476504304  0.9352280579400729  1.0000
  C   C18       1.0  0.2683321189956303  0.6799473573974524  0.0317028683725624  1.0000
  C   C19       1.0  0.3418118152603853  0.6129098093853926  0.09822151600059931  1.0000
  C   C20       1.0  0.1319695418804017  0.705881035369231  0.06244181096086272  1.0000
  C   C21       1.0  0.06602272446451002  0.662546393676756  0.15381553091938124  1.0000
  C   C22       1.0  0.26955929333573175  0.5662293352933075  0.18947630672017376  1.0000
  C   C23       1.0  0.8953055216142829  0.9336615665960223  0.5297392028833416  1.0000
  C   C24       1.0  0.010287863886617293  0.8786750796926128  0.5075920734260608  1.0000
  C   C25       1.0  0.8922574630445865  0.06269602964128748  0.5374151720963098  1.0000
  C   C26       1.0  0.9971718291656159  0.14954020584619343  0.5126837372796231  1.0000
  C   C27       1.0  0.43243826307298144  0.6004922551272854  0.5014454445855209  1.0000
  C   C28       1.0  0.5815098726671695  0.5883811060571773  0.48897006256425624  1.0000
  N   N1        1.0  0.33868341552541636  0.5245383640956832  0.547392873847855  1.0000
  N   N2        1.0  0.6460982802465907  0.49321145989365783  0.4889448429099519  1.0000
  N   N3        1.0  0.7538950799036995  0.09788615535853039  0.5738740489221642  1.0000
  N   N4        1.0  0.6370812688557521  0.5867750055772304  0.7486143569530769  1.0000
  N   N5        1.0  0.5430160706314028  0.5529302254968229  0.24477230612269113  1.0000
  Cl  Cl1       1.0  0.5603198668757159  0.35278115514628894  0.5119886983382715  1.0000
  O   O1        1.0  0.0919579343832382  0.3392006692272743  0.5537662146483626  1.0000
  O   O2        1.0  0.8936325863340285  0.3260278064421485  0.4755445512204377  1.0000
  O   O3        1.0  0.042369625838382795  0.5485553941443442  0.6754673117931419  1.0000
  O   O4        1.0  0.8270562630746524  0.4808150180410848  0.6373200970277537  1.0000
  O   O5        1.0  0.12327460222436318  0.7034449848811093  0.5000558757394913  1.0000
  O   O6        1.0  0.8886643524735545  0.6845661245291198  0.5028800221218077  1.0000
  O   O7        1.0  0.1446225855071077  0.5023774181744258  0.3794156262761988  1.0000
  O   O8        1.0  0.9354888411577988  0.5439910532019779  0.3339321557889293  1.0000
  O   O9        1.0  0.6546895581739777  0.05454718311359133  0.530563509655309  1.0000
  O   O10       1.0  0.7467582258966343  0.16472657506707117  0.6447290477535149  1.0000
  O   O11       1.0  0.5390188012347822  0.509638294263418  0.7413052695347347  1.0000
  O   O12       1.0  0.665444838659191  0.6802737842730268  0.694683524797384  1.0000
  O   O13       1.0  0.5277105137840508  0.6511773360233448  0.28235528919587705  1.0000
  O   O14       1.0  0.5369276819524771  0.45486052342823763  0.2920036148623241  1.0000
