data_image0
_chemical_formula_structural       Cu2H10C10N2Cl4O2
_chemical_formula_sum              "Cu2 H10 C10 N2 Cl4 O2"
_cell_length_a       3.822940636352985
_cell_length_b       9.820280931471446
_cell_length_c       10.250202453652294
_cell_angle_alpha    65.1511616664015
_cell_angle_beta     89.73912442748647
_cell_angle_gamma    87.50336000672124

_space_group_name_H-M_alt    "P 1"
_space_group_IT_number       1

loop_
  _space_group_symop_operation_xyz
  'x, y, z'

loop_
  _atom_site_type_symbol
  _atom_site_label
  _atom_site_symmetry_multiplicity
  _atom_site_fract_x
  _atom_site_fract_y
  _atom_site_fract_z
  _atom_site_occupancy
  Cu  Cu1       1.0  0.6549805197084025  0.9563780748340561  0.17145074471658014  1.0000
  Cu  Cu2       1.0  0.34501658928544277  0.043618943153205705  0.8285509906171953  1.0000
  H   H1        1.0  0.4089510175078387  0.1235007719663201  0.5024767443186349  1.0000
  H   H2        1.0  0.5910617146539678  0.8764972674576724  0.4975245799033345  1.0000
  H   H3        1.0  0.8225582790228854  0.276250383319997  0.0874286805210502  1.0000
  H   H4        1.0  0.17744898621405977  0.7237510893568808  0.9125693542631695  1.0000
  H   H5        1.0  0.7884973031755249  0.5377905649409626  0.07199307564300741  1.0000
  H   H6        1.0  0.21148918000054096  0.46220878210478106  0.9280067815019708  1.0000
  H   H7        1.0  0.5360366803064945  0.586598547843792  0.2746374588422711  1.0000
  H   H8        1.0  0.46394711481070045  0.41340196920173605  0.7253599915689435  1.0000
  H   H9        1.0  0.33607692911770926  0.36226102183692876  0.49448132020258134  1.0000
  H   H10       1.0  0.6639278602673213  0.6377381616972285  0.5055215140921447  1.0000
  C   C1        1.0  0.6007714659263356  0.17880608762546754  0.2983728168263511  1.0000
  C   C2        1.0  0.3992254815247519  0.8211931766626177  0.7016280404557663  1.0000
  C   C3        1.0  0.7175278220611359  0.300749477246434  0.17436544394801254  1.0000
  C   C4        1.0  0.2824682118154626  0.6992620669534801  0.8256354916889778  1.0000
  C   C5        1.0  0.6978018601475922  0.44437128410093146  0.16730336841430926  1.0000
  C   C6        1.0  0.30219797203017135  0.5556246685263487  0.8326939029586456  1.0000
  C   C7        1.0  0.5582364762930748  0.4733591512956038  0.2807914259779452  1.0000
  C   C8        1.0  0.44175730348872816  0.5266480368432837  0.7192034088876512  1.0000
  C   C9        1.0  0.44901368627836996  0.3538715033489836  0.40039964335503  1.0000
  C   C10       1.0  0.550983922397343  0.646118820581428  0.5996017815503265  1.0000
  N   N1        1.0  0.47252618281912345  0.21269093158538507  0.40713184225509746  1.0000
  N   N2        1.0  0.5274810723820946  0.7873105111944053  0.5928681555847178  1.0000
  Cl  Cl1       1.0  0.6969083979789443  0.860321268943764  0.9993632890576408  1.0000
  Cl  Cl2       1.0  0.3030887867684127  0.1396746109445388  0.000639866829750702  1.0000
  Cl  Cl3       1.0  0.07691095806104897  0.789841328049178  0.30226129207517266  1.0000
  Cl  Cl4       1.0  0.9230939171132204  0.21015674728311493  0.6977409997175812  1.0000
  O   O1        1.0  0.6071984711007019  0.039574684346789  0.3191481807579493  1.0000
  O   O2        1.0  0.39280355948979906  0.9604268222346515  0.6808498447215997  1.0000
