data_image0
_chemical_formula_structural       K4Tb4H24C16O44
_chemical_formula_sum              "K4 Tb4 H24 C16 O44"
_cell_length_a       7.380356294831001
_cell_length_b       11.865163535269197
_cell_length_c       12.730678136994962
_cell_angle_alpha    99.12304080257557
_cell_angle_beta     89.98097255933519
_cell_angle_gamma    108.12572079629312

_space_group_name_H-M_alt    "P 1"
_space_group_IT_number       1

loop_
  _space_group_symop_operation_xyz
  'x, y, z'

loop_
  _atom_site_type_symbol
  _atom_site_label
  _atom_site_symmetry_multiplicity
  _atom_site_fract_x
  _atom_site_fract_y
  _atom_site_fract_z
  _atom_site_occupancy
  K   K1        1.0  0.40673870236522464  0.8349230413642913  0.6334437786943071  1.0000
  K   K2        1.0  0.5719299649503073  0.16545414349599238  0.8665068388596495  1.0000
  K   K3        1.0  0.5932641757844694  0.1650791007195807  0.3665533918560868  1.0000
  K   K4        1.0  0.42806165550495495  0.8345498757563873  0.1334968765595193  1.0000
  Tb  Tb1       1.0  0.8642699027615993  0.7252518684894228  0.4840549665177463  1.0000
  Tb  Tb2       1.0  0.13908689711597336  0.2747380297177955  0.015950274376415097  1.0000
  Tb  Tb3       1.0  0.13573616549685855  0.2747458163014826  0.5159447300400402  1.0000
  Tb  Tb4       1.0  0.8609096899515196  0.7252623725972001  0.9840513696900501  1.0000
  H   H1        1.0  0.4587237926095398  0.10294177933646859  0.6055939788809611  1.0000
  H   H2        1.0  0.35558530701031554  0.8971963870386832  0.8943605960940674  1.0000
  H   H3        1.0  0.5412773102034123  0.8970568145439443  0.3944066293188015  1.0000
  H   H4        1.0  0.6444157793911175  0.10280759303137191  0.105639970798201  1.0000
  H   H5        1.0  0.679240964923679  0.12447017581530419  0.6384251725647375  1.0000
  H   H6        1.0  0.5545952769752561  0.8757058445464095  0.8615132226817936  1.0000
  H   H7        1.0  0.32076239224893016  0.8755302167780098  0.3615756839575752  1.0000
  H   H8        1.0  0.4454040188446413  0.12429726566195136  0.1384895808416005  1.0000
  H   H9        1.0  0.18901957680462536  0.6266318297608321  0.7823142162987224  1.0000
  H   H10       1.0  0.56251178116392  0.3734841569167245  0.7177517250219765  1.0000
  H   H11       1.0  0.8109801569706862  0.3733667345907179  0.2176840312989725  1.0000
  H   H12       1.0  0.43749067191590296  0.6265144271510508  0.28224809614123103  1.0000
  H   H13       1.0  0.2935648649536803  0.5530038192160092  0.7066847277851878  1.0000
  H   H14       1.0  0.740564574638711  0.4470050490888795  0.793455551999088  1.0000
  H   H15       1.0  0.7064366629291358  0.4469983326805007  0.2933132298017611  1.0000
  H   H16       1.0  0.25943650823675307  0.5529962132979235  0.20654306827278654  1.0000
  H   H17       1.0  0.17793429587077714  0.6383538905078793  0.3693509717538319  1.0000
  H   H18       1.0  0.5396192349115694  0.3616115372812273  0.1304717175042143  1.0000
  H   H19       1.0  0.822067233178764  0.36164555354074673  0.6306458261223824  1.0000
  H   H20       1.0  0.4603827532234065  0.6383888257832311  0.8695267784160381  1.0000
  H   H21       1.0  0.1431219838565525  0.5874781711606901  0.4782184343261662  1.0000
  H   H22       1.0  0.5558147657025928  0.41260149447052896  0.021648535311207678  1.0000
  H   H23       1.0  0.8568827048121577  0.4125221722784928  0.521778487520983  1.0000
  H   H24       1.0  0.4441885762252228  0.5874015764645506  0.9783511201928833  1.0000
  C   C1        1.0  0.9312339305550099  0.6937310110503317  0.7286421111602834  1.0000
  C   C2        1.0  0.23760879313368832  0.3064110758606872  0.771332397198627  1.0000
  C   C3        1.0  0.0687568139378172  0.3062604174618428  0.27135986460511674  1.0000
  C   C4        1.0  0.7623855301887659  0.6935875080706566  0.2286674247259697  1.0000
  C   C5        1.0  0.8077964393596347  0.7782747596430681  0.7418441310842212  1.0000
  C   C6        1.0  0.029694769619545976  0.22179359394197454  0.758166129967272  1.0000
  C   C7        1.0  0.19219923070372155  0.2217210967923791  0.2581529571834338  1.0000
  C   C8        1.0  0.9703004566289694  0.7782095063627921  0.24183588702716466  1.0000
  C   C9        1.0  0.09723898139873202  0.0029405568137405983  0.5264758352415484  1.0000
  C   C10       1.0  0.09422027667896744  0.9970773732558338  0.9734449190041373  1.0000
  C   C11       1.0  0.9027630559966012  0.9970544889086805  0.4735282103537841  1.0000
  C   C12       1.0  0.9057672941424076  0.0029239675865682  0.026559997813954805  1.0000
  C   C13       1.0  0.4394895831699373  0.542712749388528  0.5093904325840768  1.0000
  C   C14       1.0  0.8968191740114623  0.45726379044074866  0.9906024740821027  1.0000
  C   C15       1.0  0.5605254943085003  0.4572894027353696  0.49060752373388544  1.0000
  C   C16       1.0  0.10318143100780477  0.5427365135887287  0.009391300507118703  1.0000
  O   O1        1.0  0.9639101038012754  0.6521495289336485  0.8106496823650816  1.0000
  O   O2        1.0  0.3118057579422598  0.3481258318274455  0.6893471241744678  1.0000
  O   O3        1.0  0.03609463765376831  0.3478482148467634  0.1893547357775276  1.0000
  O   O4        1.0  0.6881881062947601  0.651871833088073  0.3106509997060982  1.0000
  O   O5        1.0  0.5461522694144918  0.07906971991810247  0.6491435944839878  1.0000
  O   O6        1.0  0.4669881908670561  0.9211595795782086  0.8508492667801875  1.0000
  O   O7        1.0  0.45385017897264396  0.9209288543143046  0.3508554397695676  1.0000
  O   O8        1.0  0.5330106364820183  0.07884259194356959  0.1491502648798715  1.0000
  O   O9        1.0  0.9929288885714984  0.6723470958147431  0.6377924193690419  1.0000
  O   O10       1.0  0.32067146927636975  0.3277551220345812  0.8621603305007712  1.0000
  O   O11       1.0  0.00706728867093177  0.32764707014239036  0.3622130763284659  1.0000
  O   O12       1.0  0.6793246504870327  0.6722416337459478  0.1378368819916176  1.0000
  O   O13       1.0  0.3176155041622549  0.6233809099894216  0.7625163353469304  1.0000
  O   O14       1.0  0.6942634730938765  0.3766506136157161  0.73760093046986  1.0000
  O   O15       1.0  0.6823869242873856  0.37662033274936857  0.23748071097873694  1.0000
  O   O16       1.0  0.30574031500801624  0.6233506389811864  0.2623969026385637  1.0000
  O   O17       1.0  0.7601188620823295  0.8072721552925228  0.8354247714643036  1.0000
  O   O18       1.0  0.9530621365854587  0.192775221099474  0.6645943853079646  1.0000
  O   O19       1.0  0.23988539918307344  0.1927300458263304  0.16457712041712114  1.0000
  O   O20       1.0  0.04693036330661476  0.8072224241225501  0.33540216488018615  1.0000
  O   O21       1.0  0.11248216779309672  0.6447335059126047  0.4379681926526615  1.0000
  O   O22       1.0  0.4678291308755932  0.3553385467209651  0.06189104226972121  1.0000
  O   O23       1.0  0.8875225302610023  0.3552668571973284  0.562030303013799  1.0000
  O   O24       1.0  0.5321692444399915  0.6446681411514986  0.9381106845870734  1.0000
  O   O25       1.0  0.7654316631103131  0.8103866096038175  0.6578550112108772  1.0000
  O   O26       1.0  0.955088378369247  0.18981108915509987  0.8421849976992349  1.0000
  O   O27       1.0  0.23456944439533337  0.18961199411197058  0.34214638389854457  1.0000
  O   O28       1.0  0.04490997464960592  0.8101928416926042  0.1578116348985574  1.0000
  O   O29       1.0  0.22624856595057008  0.10482425926387857  0.5430621673817342  1.0000
  O   O30       1.0  0.12141975526186832  0.8952203930433027  0.9569046325426314  1.0000
  O   O31       1.0  0.7737561637856414  0.8951788805415571  0.4569429963630327  1.0000
  O   O32       1.0  0.8785696166931559  0.10477912948366001  0.04309846175290491  1.0000
  O   O33       1.0  0.11319310807966329  0.9065736499781707  0.5491957658957745  1.0000
  O   O34       1.0  0.20638246758946374  0.09340733451121248  0.9505300530466487  1.0000
  O   O35       1.0  0.8868084432666168  0.09342855109520799  0.4508061262394493  1.0000
  O   O36       1.0  0.7935969793339555  0.906591308182243  0.04947449173175757  1.0000
  O   O37       1.0  0.5221645604002562  0.6525422084275975  0.5076838678281419  1.0000
  O   O38       1.0  0.8697276076106706  0.3474520270454703  0.992280226233291  1.0000
  O   O39       1.0  0.4778451230368433  0.3474545770864452  0.4923157041242234  1.0000
  O   O40       1.0  0.1302766395766497  0.6525501445672646  0.007719304919170592  1.0000
  O   O41       1.0  0.26408172601706076  0.4946571938175808  0.5254570014682756  1.0000
  O   O42       1.0  0.7694642877440501  0.505284955170019  0.9745177906351118  1.0000
  O   O43       1.0  0.7359243387154278  0.5053377732900727  0.47454074846912425  1.0000
  O   O44       1.0  0.23053677988661295  0.49471898555854216  0.02547962861853388  1.0000
