data_image0
_chemical_formula_structural       AlH24C45Cl3O6
_chemical_formula_sum              "Al1 H24 C45 Cl3 O6"
_cell_length_a       3.95450570493836
_cell_length_b       23.516154947148145
_cell_length_c       23.527639219204758
_cell_angle_alpha    60.047761949455996
_cell_angle_beta     87.01553744694472
_cell_angle_gamma    86.73529621683737

_space_group_name_H-M_alt    "P 1"
_space_group_IT_number       1

loop_
  _space_group_symop_operation_xyz
  'x, y, z'

loop_
  _atom_site_type_symbol
  _atom_site_label
  _atom_site_symmetry_multiplicity
  _atom_site_fract_x
  _atom_site_fract_y
  _atom_site_fract_z
  _atom_site_occupancy
  Al  Al1       1.0  0.9900843992741526  0.49971790450096876  0.5004505947186856  1.0000
  H   H1        1.0  0.5124088188964107  0.3208975852922009  0.6808639181383072  1.0000
  H   H2        1.0  0.5109051556105725  0.2578931447186505  0.8024349049604568  1.0000
  H   H3        1.0  0.8232909376878438  0.2258481758688191  0.8918240345452445  1.0000
  H   H4        1.0  0.8366610233896025  0.1652053623088676  0.012207886310719096  1.0000
  H   H5        1.0  0.47730227854112417  0.8045837508145797  0.25494837036243456  1.0000
  H   H6        1.0  0.22713723768205793  0.8983376877727808  0.22470885614843886  1.0000
  H   H7        1.0  0.24102973085913246  0.0181241979931599  0.16502969259244082  1.0000
  H   H8        1.0  0.5266164973074722  0.10584171017771378  0.10523955181401594  1.0000
  H   H9        1.0  0.5439183744130316  0.6794248087640541  0.4971087137722065  1.0000
  H   H10       1.0  0.5398953944598262  0.8008685027269066  0.43950525553356107  1.0000
  H   H11       1.0  0.8026444273746448  0.8914687718385325  0.37883424953390227  1.0000
  H   H12       1.0  0.8158728861890976  0.011345487345956003  0.3190927994065191  1.0000
  H   H13       1.0  0.5541803740945993  0.2549989486234877  0.4391521852127482  1.0000
  H   H14       1.0  0.26067723646899305  0.22796164005266215  0.3802912907595725  1.0000
  H   H15       1.0  0.2583777489178302  0.16754140268092496  0.3204836031348819  1.0000
  H   H16       1.0  0.548887784159369  0.10531917667673701  0.28805513588049075  1.0000
  H   H17       1.0  0.5916789949529715  0.4977902884915508  0.32145188823211873  1.0000
  H   H18       1.0  0.5849251806029797  0.4400686083851966  0.2576308924648671  1.0000
  H   H19       1.0  0.8583199580035197  0.3766688427021165  0.2235061147063675  1.0000
  H   H20       1.0  0.8555899106414555  0.3161520728793263  0.1636702686763343  1.0000
  H   H21       1.0  0.5072144741094177  0.4401569917655834  0.8050645642154778  1.0000
  H   H22       1.0  0.20654983099446148  0.37963634806006763  0.8983306085007213  1.0000
  H   H23       1.0  0.2207084848904158  0.3190181684810015  0.018706357252639763  1.0000
  H   H24       1.0  0.5496459366623299  0.28806456270857694  0.10562029241644671  1.0000
  C   C1        1.0  0.4798721980312023  0.45032801788084237  0.6013691072466187  1.0000
  C   C2        1.0  0.5251066005661399  0.44827477977575825  0.4506477089896137  1.0000
  C   C3        1.0  0.47697750732251604  0.6006172866591514  0.4487067744315495  1.0000
  C   C4        1.0  0.5063710140951087  0.3464952222085671  0.7088497994349723  1.0000
  C   C5        1.0  0.5097493193339061  0.311376538646833  0.7769514659107982  1.0000
  C   C6        1.0  0.6839809202066006  0.24598126953969773  0.9193958328254651  1.0000
  C   C7        1.0  0.6912880492294915  0.21162668901072829  0.9875328030953839  1.0000
  C   C8        1.0  0.4623403937627017  0.7101782315090261  0.3414408842793578  1.0000
  C   C9        1.0  0.47905304137374555  0.7783633369144383  0.3083576022423529  1.0000
  C   C10       1.0  0.3653583494443423  0.9225582963279138  0.24507881339562235  1.0000
  C   C11       1.0  0.3727831184474437  0.9906493337950124  0.21119783615390023  1.0000
  C   C12       1.0  0.48813867838500596  0.4153332543709141  0.6745330388849453  1.0000
  C   C13       1.0  0.5064253712090688  0.3441171000964189  0.8132642159188919  1.0000
  C   C14       1.0  0.5145467571639484  0.3076002326236349  0.8855709425982566  1.0000
  C   C15       1.0  0.5298811028652393  0.23737931534949297  0.0248730448634618  1.0000
  C   C16       1.0  0.5377738588493981  0.20102660863678073  0.09721510093436342  1.0000
  C   C17       1.0  0.5342630312413305  0.13228160162064032  0.1322186910127314  1.0000
  C   C18       1.0  0.52298494514244  0.7078132425569947  0.44392508139001313  1.0000
  C   C19       1.0  0.5255109831848586  0.7758815947581963  0.41127416891705343  1.0000
  C   C20       1.0  0.6712821566993696  0.9188743124009089  0.33263559471582504  1.0000
  C   C21       1.0  0.6783503753701438  0.9870067847529994  0.29873509521824804  1.0000
  C   C22       1.0  0.5406387243619192  0.3414402218300623  0.4477239367458595  1.0000
  C   C23       1.0  0.5508062197713739  0.30847185609065525  0.412244243963066  1.0000
  C   C24       1.0  0.3994791103377364  0.2469008071673997  0.33346240561493795  1.0000
  C   C25       1.0  0.39842260305549354  0.21258467607081843  0.2995986997124263  1.0000
  C   C26       1.0  0.4859594653000626  0.6736253695099989  0.41002886449793874  1.0000
  C   C27       1.0  0.5059040164655567  0.8126297473282236  0.3424921402335599  1.0000
  C   C28       1.0  0.5147318639169214  0.8849613424146979  0.3066139426884149  1.0000
  C   C29       1.0  0.5297006634462846  0.024567362654316593  0.2371501263626428  1.0000
  C   C30       1.0  0.5375867522542347  0.09696126171991892  0.20099449357859808  1.0000
  C   C31       1.0  0.5466153406224591  0.1320653458747003  0.2345986024663489  1.0000
  C   C32       1.0  0.5791420811056865  0.44444115740719076  0.3466355332789774  1.0000
  C   C33       1.0  0.5789526232331068  0.4117851207808982  0.3110865735951478  1.0000
  C   C34       1.0  0.7188070861970459  0.3315727669294404  0.24449110283732267  1.0000
  C   C35       1.0  0.7174810893702527  0.2972287756560591  0.21059874153903724  1.0000
  C   C36       1.0  0.48287465044615613  0.44815973430111467  0.710616357415617  1.0000
  C   C37       1.0  0.49669543750744066  0.4130361326987213  0.7788553040491735  1.0000
  C   C38       1.0  0.3524032444040087  0.3332883923219327  0.9229394357695213  1.0000
  C   C39       1.0  0.3600999523070456  0.2989498101886027  0.9910541960460507  1.0000
  C   C40       1.0  0.5519378807232725  0.41019360020250434  0.41536363939883364  1.0000
  C   C41       1.0  0.563077049437602  0.3429894099257425  0.3433398135209629  1.0000
  C   C42       1.0  0.5603132316736249  0.307128953401957  0.3067946715616046  1.0000
  C   C43       1.0  0.5572428218032498  0.23697184971095447  0.23733059936649434  1.0000
  C   C44       1.0  0.5515588190337579  0.20081537091390803  0.20108305166180424  1.0000
  C   C45       1.0  0.5469113084767157  0.23457367698011924  0.13234708032341297  1.0000
  Cl  Cl1       1.0  0.5337837229998784  0.2949831941995739  0.5325191034731346  1.0000
  Cl  Cl2       1.0  0.4800923607515343  0.5330431619536784  0.6715432562669931  1.0000
  Cl  Cl3       1.0  0.43365859693351877  0.6724522910351282  0.29489738538991617  1.0000
  O   O1        1.0  0.24612509885523784  0.5724852856954997  0.4372347260969676  1.0000
  O   O2        1.0  0.23181608076534838  0.4900669657348046  0.5736067108820962  1.0000
  O   O3        1.0  0.27660641189383023  0.43674471487454997  0.49105806095062826  1.0000
  O   O4        1.0  0.7008484449291145  0.5711974393588832  0.4922685824078102  1.0000
  O   O5        1.0  0.7467401933827912  0.4909714104456244  0.43663675399180585  1.0000
  O   O6        1.0  0.7220362981857915  0.43641143453162107  0.5719044227049466  1.0000
