data_image0
_chemical_formula_structural       Ni2H12C12N16O8
_chemical_formula_sum              "Ni2 H12 C12 N16 O8"
_cell_length_a       8.212796528628264
_cell_length_b       8.212813010284064
_cell_length_c       9.507453867907069
_cell_angle_alpha    66.03383026659753
_cell_angle_beta     66.03374724889565
_cell_angle_gamma    60.318100014567854

_space_group_name_H-M_alt    "P 1"
_space_group_IT_number       1

loop_
  _space_group_symop_operation_xyz
  'x, y, z'

loop_
  _atom_site_type_symbol
  _atom_site_label
  _atom_site_symmetry_multiplicity
  _atom_site_fract_x
  _atom_site_fract_y
  _atom_site_fract_z
  _atom_site_occupancy
  Ni  Ni1       1.0  0.542714466428059  0.4572855629801893  0.25000013348537914  1.0000
  Ni  Ni2       1.0  0.4572872077057894  0.5427125712039853  0.7500003274446809  1.0000
  H   H1        1.0  0.985800618756997  0.0919179723265131  0.8382588678269725  1.0000
  H   H2        1.0  0.9080825266925246  0.014196690134127702  0.6617432505556805  1.0000
  H   H3        1.0  0.014201618105701416  0.9080787015916273  0.16173875495013587  1.0000
  H   H4        1.0  0.09192087059698639  0.985797098227742  0.33826024115041525  1.0000
  H   H5        1.0  0.9147917872435584  0.32908572174377326  0.707595386867588  1.0000
  H   H6        1.0  0.6709140580854437  0.08520723265030478  0.7924064460169974  1.0000
  H   H7        1.0  0.08520873282149202  0.6709153043559156  0.2924013042671021  1.0000
  H   H8        1.0  0.32908800611193073  0.9147865572469344  0.20759751641216426  1.0000
  H   H9        1.0  0.1212037337992554  0.5232939834968988  0.6507528881505138  1.0000
  H   H10       1.0  0.4767054147776759  0.8787948715100028  0.8492473312812905  1.0000
  H   H11       1.0  0.8787948872657977  0.4767085012245787  0.3492460622933819  1.0000
  H   H12       1.0  0.5232949199060142  0.12120325785031126  0.15075150123821862  1.0000
  C   C1        1.0  0.9389601548974157  0.2466079305842186  0.8262534322146705  1.0000
  C   C2        1.0  0.753393224686853  0.0610387424745795  0.6737479352106206  1.0000
  C   C3        1.0  0.061042276883668464  0.7533916496121549  0.17374519787804843  1.0000
  C   C4        1.0  0.2466109270708827  0.9389564887198671  0.3262526760913218  1.0000
  C   C5        1.0  0.16161445861406773  0.41261276505539257  0.7559951341827044  1.0000
  C   C6        1.0  0.5873854615039279  0.8383876874793685  0.7440042158252351  1.0000
  C   C7        1.0  0.8383902590515363  0.5873810090526276  0.24400368853309107  1.0000
  C   C8        1.0  0.41261354008761936  0.16161044341631486  0.2559950874173396  1.0000
  C   C9        1.0  0.7491032412909034  0.3074267185495856  0.9558259892940839  1.0000
  C   C10       1.0  0.6925734181460187  0.2508962773923002  0.544176623354396  1.0000
  C   C11       1.0  0.25087778131401706  0.692582963565627  0.04415244632956221  1.0000
  C   C12       1.0  0.30741709800663114  0.7491237129793477  0.45585055824717097  1.0000
  N   N1        1.0  0.29587016530251026  0.3816856926190367  0.8184649266335456  1.0000
  N   N2        1.0  0.6183145386603713  0.7041328639011724  0.6815333675833698  1.0000
  N   N3        1.0  0.7041276917572785  0.6183153397310122  0.18153375551408155  1.0000
  N   N4        1.0  0.38168674540994363  0.295869614569952  0.31846359184759626  1.0000
  N   N5        1.0  0.30835161990466986  0.21992450143498127  0.9424882465602452  1.0000
  N   N6        1.0  0.7800756256719197  0.6916504019436117  0.5575104037772505  1.0000
  N   N7        1.0  0.6916483310735089  0.7800779785715048  0.05750918359377974  1.0000
  N   N8        1.0  0.21992546983802438  0.3083491766085089  0.44248764747172226  1.0000
  N   N9        1.0  0.09362201711198986  0.2724566324233706  0.8401827954123108  1.0000
  N   N10       1.0  0.7275453328217049  0.9063778210039359  0.6598170853864999  1.0000
  N   N11       1.0  0.9063766039530632  0.7275458522981069  0.15981615503159213  1.0000
  N   N12       1.0  0.27245691357801854  0.09361886245306288  0.3401836860910307  1.0000
  N   N13       1.0  0.18725257635746564  0.15299350181737026  0.956098309098529  1.0000
  N   N14       1.0  0.8470082217396706  0.8127487273651115  0.5439000421856476  1.0000
  N   N15       1.0  0.8127471860603421  0.8470060782701266  0.04390021287350967  1.0000
  N   N16       1.0  0.15299553995453855  0.18725084811627113  0.4560970676171934  1.0000
  O   O1        1.0  0.5960432019057791  0.34103970739565176  0.9274827192812226  1.0000
  O   O2        1.0  0.6589662572211167  0.4039523875301967  0.572520313420348  1.0000
  O   O3        1.0  0.40397086943109156  0.6589642350655254  0.07251866847289523  1.0000
  O   O4        1.0  0.3410388443767403  0.5960268790882353  0.42748139852881906  1.0000
  O   O5        1.0  0.7626422712375812  0.3069341210537929  0.08401269137195304  1.0000
  O   O6        1.0  0.6930649756795759  0.23735762974675373  0.4159889242824659  1.0000
  O   O7        1.0  0.2373535332309585  0.6930655049748677  0.9160008871377909  1.0000
  O   O8        1.0  0.3069311264344421  0.7626477166294022  0.5839962314210397  1.0000
