data_image0
_chemical_formula_structural       K2Er2H54C62N2O18
_chemical_formula_sum              "K2 Er2 H54 C62 N2 O18"
_cell_length_a       7.204672425779108
_cell_length_b       10.945406867846712
_cell_length_c       19.8331539111131
_cell_angle_alpha    79.9774093924867
_cell_angle_beta     84.42687820685273
_cell_angle_gamma    79.29936350640958

_space_group_name_H-M_alt    "P 1"
_space_group_IT_number       1

loop_
  _space_group_symop_operation_xyz
  'x, y, z'

loop_
  _atom_site_type_symbol
  _atom_site_label
  _atom_site_symmetry_multiplicity
  _atom_site_fract_x
  _atom_site_fract_y
  _atom_site_fract_z
  _atom_site_occupancy
  K   K1        1.0  0.1857338636376725  0.5853050006331699  0.7716167326328218  1.0000
  K   K2        1.0  0.8142654334357431  0.41468754280187897  0.22839058549262597  1.0000
  Er  Er1       1.0  0.7224693947284776  0.4611135115986329  0.7610192273782629  1.0000
  Er  Er2       1.0  0.27752534774653975  0.5388856308693664  0.238983086937253  1.0000
  H   H1        1.0  0.3519393418035222  0.8518585214032229  0.6587623800210877  1.0000
  H   H2        1.0  0.648064760968431  0.14813686405979357  0.3412409623331882  1.0000
  H   H3        1.0  0.42710403977596906  0.023333728869381804  0.5781839622067793  1.0000
  H   H4        1.0  0.57290521159198  0.9766579012584773  0.42181703144792937  1.0000
  H   H5        1.0  0.7174676361866689  0.05202158088603433  0.5201879908498909  1.0000
  H   H6        1.0  0.2825441774706262  0.9479709895981404  0.4798153408845067  1.0000
  H   H7        1.0  0.011734277284545994  0.9138472548452304  0.530886806775271  1.0000
  H   H8        1.0  0.9882807688504516  0.08614907908395253  0.4691205854903231  1.0000
  H   H9        1.0  0.0857918239437083  0.722115673939598  0.6027295589014017  1.0000
  H   H10       1.0  0.914217884552926  0.27787971196853084  0.39727710938679184  1.0000
  H   H11       1.0  0.17208352243459757  0.37536543409720474  0.6735229168726489  1.0000
  H   H12       1.0  0.8279121540273734  0.6246459690855632  0.32647365280679  1.0000
  H   H13       1.0  0.10779813204988645  0.3351060385555868  0.568489796141506  1.0000
  H   H14       1.0  0.8921935175206812  0.6649100707981647  0.43150596531206975  1.0000
  H   H15       1.0  0.3146686121154403  0.305084445752371  0.470400858935484  1.0000
  H   H16       1.0  0.6853261641672291  0.6949250716130849  0.5295959238164156  1.0000
  H   H17       1.0  0.6406308910402242  0.30947542668678113  0.45758541714682366  1.0000
  H   H18       1.0  0.35936686524038924  0.6905227838846743  0.5424143558714363  1.0000
  H   H19       1.0  0.8397858502878394  0.33978302226183393  0.5368784184158315  1.0000
  H   H20       1.0  0.16021190175995065  0.6602151894545684  0.46312085043792445  1.0000
  H   H21       1.0  0.9009080740392224  0.712185168046638  0.9144578968629345  1.0000
  H   H22       1.0  0.09909283567513681  0.2878224569019637  0.08554640740695157  1.0000
  H   H23       1.0  0.7533418699544185  0.783849791387958  0.014492546270013033  1.0000
  H   H24       1.0  0.24664563564032693  0.21616630131641307  0.9855079050772488  1.0000
  H   H25       1.0  0.45391257536766016  0.7587525673080011  0.0685992746874362  1.0000
  H   H26       1.0  0.5460695671918074  0.2412625842450212  0.9313974276954295  1.0000
  H   H27       1.0  0.22148044472555042  0.6700575197740976  0.029520497562934612  1.0000
  H   H28       1.0  0.7785058545082039  0.3299576449934493  0.9704730274197501  1.0000
  H   H29       1.0  0.23702121031129764  0.5670055294882347  0.9349508343603999  1.0000
  H   H30       1.0  0.7629701627073188  0.43301152973135254  0.065041316807644  1.0000
  H   H31       1.0  0.7637907757024465  0.05199387571490633  0.9038924333539242  1.0000
  H   H32       1.0  0.23620957535045053  0.9479996368751742  0.09610366121408731  1.0000
  H   H33       1.0  0.015953842266917276  0.900070229512103  0.9444982320706501  1.0000
  H   H34       1.0  0.9840523106390362  0.09992235541130873  0.0554952195913145  1.0000
  H   H35       1.0  0.34230590245330467  0.9046524214427055  0.9290476254112858  1.0000
  H   H36       1.0  0.6576992542981301  0.0953439331753358  0.0709444933855536  1.0000
  H   H37       1.0  0.4899815636531245  0.07177166589270463  0.8709332999757816  1.0000
  H   H38       1.0  0.5100172804695263  0.9282275046741759  0.12905928280105164  1.0000
  H   H39       1.0  0.3565630410751695  0.2660310784158711  0.8123870161246314  1.0000
  H   H40       1.0  0.6434286029378596  0.733969018847681  0.18760775619814038  1.0000
  H   H41       1.0  0.14823698445201924  0.026207233134087505  0.6946018003726235  1.0000
  H   H42       1.0  0.851769638281084  0.9737891041347454  0.3053988384163304  1.0000
  H   H43       1.0  0.9941295509052562  0.17313767286726292  0.7019561881712091  1.0000
  H   H44       1.0  0.005873383601084494  0.8268567743543829  0.29804476529898943  1.0000
  H   H45       1.0  0.9843586859185437  0.09773240784353734  0.6303572988788417  1.0000
  H   H46       1.0  0.01564335687414338  0.9022601512708949  0.36964487599281165  1.0000
  H   H47       1.0  0.5819825366626787  0.004286357901463603  0.7520888460284921  1.0000
  H   H48       1.0  0.4180253037502554  0.9957052746912539  0.2479101817726104  1.0000
  H   H49       1.0  0.6257458883125723  0.09975240403029063  0.6719470649487675  1.0000
  H   H50       1.0  0.3742699099079231  0.9002354717324014  0.32805203336648947  1.0000
  H   H51       1.0  0.6487205725516175  0.154531351486682  0.7501216894609185  1.0000
  H   H52       1.0  0.35128283040224795  0.8454612189023007  0.2498764012903365  1.0000
  H   H53       1.0  0.8000496111002134  0.8530825012765961  0.7861795067100273  1.0000
  H   H54       1.0  0.19996098911007457  0.1469147727387465  0.21382594017671858  1.0000
  C   C1        1.0  0.6144176108480083  0.731733504772201  0.6666365556951418  1.0000
  C   C2        1.0  0.38558953112645616  0.2682609419245666  0.33336727034887287  1.0000
  C   C3        1.0  0.49931804044550193  0.8451724288892635  0.6381116705503301  1.0000
  C   C4        1.0  0.500690482854239  0.15482202335729772  0.36189059219578457  1.0000
  C   C5        1.0  0.5449029742182676  0.9461462633449074  0.5905618890880078  1.0000
  C   C6        1.0  0.45510374872289117  0.0538444172670296  0.4094407998030291  1.0000
  C   C7        1.0  0.7186539722810821  0.9640619278734383  0.5559581574080423  1.0000
  C   C8        1.0  0.28135455525147535  0.03593252322817621  0.4440446095025833  1.0000
  C   C9        1.0  0.8919061399149161  0.8828519885551601  0.5629805036451145  1.0000
  C   C10       1.0  0.1081073358524378  0.11713963646802479  0.43702537924141893  1.0000
  C   C11       1.0  0.9375584096378944  0.7679995286587132  0.6054618188627288  1.0000
  C   C12       1.0  0.06244710832189779  0.23199585319449068  0.3945439935096573  1.0000
  C   C13       1.0  0.823491950055775  0.6981107362109853  0.6536205017112451  1.0000
  C   C14       1.0  0.17650797487779352  0.3018846417622499  0.34638349722071377  1.0000
  C   C15       1.0  0.4644851326836061  0.3776515225802656  0.661268389662652  1.0000
  C   C16       1.0  0.5355108909086326  0.622353282094416  0.3387303112528954  1.0000
  C   C17       1.0  0.29371890987485466  0.36355358676425453  0.6363885173846738  1.0000
  C   C18       1.0  0.7062770219749764  0.6364568722774282  0.3636091417577986  1.0000
  C   C19       1.0  0.2563946334576245  0.3391608585432522  0.5729484423620191  1.0000
  C   C20       1.0  0.7436005491599005  0.6608524283418762  0.4270479650493613  1.0000
  C   C21       1.0  0.3780067594963086  0.3212656745952672  0.515068287989578  1.0000
  C   C22       1.0  0.6219877698641482  0.6787447846213724  0.484928413628289  1.0000
  C   C23       1.0  0.5720808586129991  0.32344597218140353  0.5080242149977962  1.0000
  C   C24       1.0  0.4279154119014663  0.6765578906421013  0.49197456705178405  1.0000
  C   C25       1.0  0.6913516903799106  0.34161987865419974  0.5550917802331057  1.0000
  C   C26       1.0  0.30864393111030347  0.6583811553558618  0.4449078001874511  1.0000
  C   C27       1.0  0.6536146872666321  0.3655082372155221  0.6235469903997526  1.0000
  C   C28       1.0  0.34638183440286957  0.6344946826118446  0.37645237694835737  1.0000
  C   C29       1.0  0.6990195368971542  0.6191029120827027  0.8855825064142804  1.0000
  C   C30       1.0  0.30098209665258924  0.38090189189215107  0.11442002459969558  1.0000
  C   C31       1.0  0.7587119440523793  0.6911157768526338  0.9296136035938359  1.0000
  C   C32       1.0  0.24128362379079246  0.3088909012198684  0.0703894725341527  1.0000
  C   C33       1.0  0.6699920724762976  0.7340754828042932  0.9886744640850151  1.0000
  C   C34       1.0  0.32999503101641653  0.2659368392354509  0.011326866767262803  1.0000
  C   C35       1.0  0.49099155770596775  0.7225389097489697  0.020321866833249692  1.0000
  C   C36       1.0  0.5089941348317312  0.27747341475563303  0.9796774981654224  1.0000
  C   C37       1.0  0.35410478633875897  0.6672108200089328  0.9974392584115604  1.0000
  C   C38       1.0  0.6458859757509785  0.33280340009265796  0.002558228607973939  1.0000
  C   C39       1.0  0.36202840973808054  0.6065135884866423  0.9409599144804942  1.0000
  C   C40       1.0  0.6379684222910385  0.39349875637234544  0.059037531589524406  1.0000
  C   C41       1.0  0.5117436407082323  0.5782878746594947  0.8913889750803392  1.0000
  C   C42       1.0  0.48826165567135865  0.42171882623225093  0.10861021626539008  1.0000
  C   C43       1.0  0.8995630909145262  0.19592924820169344  0.8483067827968184  1.0000
  C   C44       1.0  0.10043048752770294  0.8040689548799875  0.15169364679912434  1.0000
  C   C45       1.0  0.904314316021157  0.0763818370157523  0.8898221906260487  1.0000
  C   C46       1.0  0.09568391717262159  0.9236144944331317  0.11017572800226819  1.0000
  C   C47       1.0  0.055569369680142755  0.9858787930704693  0.9141071457521335  1.0000
  C   C48       1.0  0.9444304832954914  0.014116604366925902  0.0858882823833156  1.0000
  C   C49       1.0  0.2493533651092506  0.9883512228905147  0.9055965624763328  1.0000
  C   C50       1.0  0.7506432059744695  0.011646054019358601  0.09439880499984808  1.0000
  C   C51       1.0  0.3358219564731186  0.08730708621449422  0.8708238548723912  1.0000
  C   C52       1.0  0.6641741207661555  0.9126920743977536  0.1291713503357315  1.0000
  C   C53       1.0  0.25729455732952994  0.2038847508046544  0.83559177725472  1.0000
  C   C54       1.0  0.7426973505369999  0.7961144000279179  0.1644050928600862  1.0000
  C   C55       1.0  0.06690818927251739  0.2559615640933616  0.8228530867352574  1.0000
  C   C56       1.0  0.9330839909131541  0.7440366380183221  0.1771468895005768  1.0000
  C   C57       1.0  0.00707153495286409  0.08105268697266872  0.6855262785871401  1.0000
  C   C58       1.0  0.9929323081984051  0.9189436437763874  0.31447547013960525  1.0000
  C   C59       1.0  0.670137894506489  0.07117334149530312  0.7246122553566747  1.0000
  C   C60       1.0  0.32986855611552807  0.9288182878375226  0.2753873274133197  1.0000
  C   C61       1.0  0.9212084431996884  0.8944879771102879  0.7587424481728886  1.0000
  C   C62       1.0  0.07876250912941168  0.10551678377069613  0.24125968804425918  1.0000
  N   N1        1.0  0.8677421597261911  0.0108516204708096  0.7238818231297159  1.0000
  N   N2        1.0  0.132272035643723  0.9891371847235677  0.2761217823364035  1.0000
  O   O1        1.0  0.46314750009280903  0.40357366817526247  0.7224794628373985  1.0000
  O   O2        1.0  0.536849268498912  0.5964283098009278  0.2775199856447371  1.0000
  O   O3        1.0  0.7891484316779368  0.37994735113151284  0.6575836689493995  1.0000
  O   O4        1.0  0.21084883499104728  0.6200527419973555  0.34241644596529847  1.0000
  O   O5        1.0  0.538752663132982  0.6491472803952049  0.7087691191170008  1.0000
  O   O6        1.0  0.46124864312586317  0.3508481031278237  0.2912333165170579  1.0000
  O   O7        1.0  0.901155694673747  0.5954842982782794  0.6895873714954559  1.0000
  O   O8        1.0  0.09884678408352698  0.40451202234117306  0.31041795718718385  1.0000
  O   O9        1.0  0.8122793573219339  0.5834279780127147  0.8356882702249137  1.0000
  O   O10       1.0  0.18772442371666637  0.41657399908867637  0.164315965880256  1.0000
  O   O11       1.0  0.4897139298743411  0.5112902579276624  0.8462854562373676  1.0000
  O   O12       1.0  0.5102874398219016  0.488715492478171  0.1537149769845669  1.0000
  O   O13       1.0  0.027513296214578986  0.3658804126231204  0.786063042122663  1.0000
  O   O14       1.0  0.9724797968488444  0.6341196718710266  0.21393823353421476  1.0000
  O   O15       1.0  0.739503633895673  0.2621342830891393  0.8299442741159381  1.0000
  O   O16       1.0  0.26049020416723323  0.7378629747065021  0.17005774910753496  1.0000
  O   O17       1.0  0.08674280249312714  0.8361967529047406  0.7611104675002095  1.0000
  O   O18       1.0  0.9132908034434876  0.16378172646552974  0.23888938747150948  1.0000
