data_image0
_chemical_formula_structural       Zn2H36C54N8O12
_chemical_formula_sum              "Zn2 H36 C54 N8 O12"
_cell_length_a       9.50554378099502
_cell_length_b       11.031838947973473
_cell_length_c       27.93236381780117
_cell_angle_alpha    90.39134896684128
_cell_angle_beta     90.83671403203435
_cell_angle_gamma    91.07072955756661

_space_group_name_H-M_alt    "P 1"
_space_group_IT_number       1

loop_
  _space_group_symop_operation_xyz
  'x, y, z'

loop_
  _atom_site_type_symbol
  _atom_site_label
  _atom_site_symmetry_multiplicity
  _atom_site_fract_x
  _atom_site_fract_y
  _atom_site_fract_z
  _atom_site_occupancy
  Zn  Zn1       1.0  0.6400920840446885  0.5025988670616783  0.4969615963011835  1.0000
  Zn  Zn2       1.0  0.36019538845940247  0.49762289910491836  0.503052067677878  1.0000
  H   H1        1.0  0.2528544242118755  0.5478321755391065  0.3569049213131451  1.0000
  H   H2        1.0  0.7466577759596617  0.45179970063246344  0.6430660073220766  1.0000
  H   H3        1.0  0.4542925464856323  0.7983622866455491  0.12489712016758155  1.0000
  H   H4        1.0  0.5454091202024997  0.20138074700904707  0.8750598161369043  1.0000
  H   H5        1.0  0.36161133855469524  0.5416162546772866  0.7531144573798517  1.0000
  H   H6        1.0  0.6382222522792418  0.4585638528718547  0.24692632148866528  1.0000
  H   H7        1.0  0.5013039556548621  0.8048183637699398  0.9650876338903063  1.0000
  H   H8        1.0  0.4985972230488116  0.19488306282570286  0.03489062534490731  1.0000
  H   H9        1.0  0.2756971042466959  0.8821852589354864  0.49179085244237813  1.0000
  H   H10       1.0  0.7250259886404107  0.1180148790463988  0.5084114156184543  1.0000
  H   H11       1.0  0.2764747466016572  0.11052153258133049  0.48940135789728617  1.0000
  H   H12       1.0  0.7242994872264957  0.8896617659949795  0.510612824437459  1.0000
  H   H13       1.0  0.1268354143756909  0.36896270115165214  0.555048978337702  1.0000
  H   H14       1.0  0.8734941019294382  0.6315587661744004  0.44498456735367864  1.0000
  H   H15       1.0  0.14415961690728815  0.6289873577796641  0.44881626796629365  1.0000
  H   H16       1.0  0.8561726993417125  0.3713074461208238  0.5511196507994287  1.0000
  H   H17       1.0  0.17843944726186578  0.6119768535570672  0.2351227011693951  1.0000
  H   H18       1.0  0.10955953507414759  0.5887354120030465  0.289275394747719  1.0000
  H   H19       1.0  0.889870046149653  0.4104394117646848  0.7106573739091504  1.0000
  H   H20       1.0  0.8208211869331092  0.3869413494392546  0.7647638453503095  1.0000
  H   H21       1.0  0.26493749070399997  0.6202356054321713  0.6363677053116775  1.0000
  H   H22       1.0  0.21895949420979113  0.46700579065900893  0.6448222003234394  1.0000
  H   H23       1.0  0.20382423492400648  0.5715641918996753  0.6934069913712196  1.0000
  H   H24       1.0  0.735394584850731  0.37965874950043604  0.3633167847684789  1.0000
  H   H25       1.0  0.7962914038623553  0.4300708526585382  0.30648288566405324  1.0000
  H   H26       1.0  0.78031042048719  0.5332735194811633  0.3554669337733643  1.0000
  H   H27       1.0  0.47784370731837095  0.8565853637753092  0.8475575207101189  1.0000
  H   H28       1.0  0.5428236760336347  0.9178814919488973  0.9035940047931493  1.0000
  H   H29       1.0  0.6587177098234848  0.8646954246575261  0.8585671207616205  1.0000
  H   H30       1.0  0.5222265741954999  0.14309175550070558  0.15238429475935084  1.0000
  H   H31       1.0  0.34132489535065247  0.13484234757574137  0.14142416354112441  1.0000
  H   H32       1.0  0.4571884380268045  0.08186690152278693  0.09636336424436823  1.0000
  H   H33       1.0  0.5737968299598819  0.8920388393903803  0.06775202469113141  1.0000
  H   H34       1.0  0.6221565298083859  0.8363058767016797  0.014122862186674507  1.0000
  H   H35       1.0  0.37770129776307465  0.163374379472387  0.9858601752168501  1.0000
  H   H36       1.0  0.4260378962818763  0.10764576629234308  0.9322323381119307  1.0000
  C   C1        1.0  0.500498272917511  0.7380205326316729  0.5019573857935316  1.0000
  C   C2        1.0  0.5006100998038717  0.2622158641293524  0.49809749605869785  1.0000
  C   C3        1.0  0.4836626856136874  0.5054426625339375  0.4051985734450839  1.0000
  C   C4        1.0  0.5158409043703998  0.4947770490463482  0.5948220395023046  1.0000
  C   C5        1.0  0.39759327602043015  0.6113155473994923  0.17707586607731685  1.0000
  C   C6        1.0  0.6021827829538323  0.3883939291655452  0.8229071678273956  1.0000
  C   C7        1.0  0.4118064666910826  0.38621862047102695  0.17830283079840115  1.0000
  C   C8        1.0  0.5881118898978385  0.6135139446067157  0.8216927319094726  1.0000
  C   C9        1.0  0.5543967616036056  0.479271880605573  0.2718134206352404  1.0000
  C   C10       1.0  0.445347082322975  0.5207785259375939  0.7282056521118324  1.0000
  C   C11       1.0  0.5838026360238756  0.47923041998515703  0.3209427915882161  1.0000
  C   C12       1.0  0.41589911940750574  0.5209212173692563  0.6790822807416891  1.0000
  C   C13       1.0  0.3372311300609425  0.5288425727190217  0.3320629251686287  1.0000
  C   C14       1.0  0.6623363081083156  0.4709412485985284  0.6679170380959578  1.0000
  C   C15       1.0  0.30962032168105935  0.5322907656851115  0.2826840993912613  1.0000
  C   C16       1.0  0.6899970966621752  0.4673402632861822  0.7172941390465299  1.0000
  C   C17       1.0  0.42209258305637576  0.5044809902288493  0.2527160703480719  1.0000
  C   C18       1.0  0.5776242266725474  0.4952970211044417  0.7472814347025152  1.0000
  C   C19       1.0  0.44243832196525545  0.49591956498451856  0.10043099804936165  1.0000
  C   C20       1.0  0.5573314071686113  0.5037880622269171  0.8995537931769777  1.0000
  C   C21       1.0  0.4291071757039261  0.6071547143246078  0.12553778179380976  1.0000
  C   C22       1.0  0.5706615472571243  0.3925582724737424  0.8744398505468143  1.0000
  C   C23       1.0  0.4588531042474527  0.7155125472905297  0.10336976096522223  1.0000
  C   C24       1.0  0.5409114066325813  0.28420038226368405  0.8966057028872644  1.0000
  C   C25       1.0  0.4304723904167674  0.3849453658983534  0.12582527186842907  1.0000
  C   C26       1.0  0.5693551460190848  0.6147555524384459  0.8741648031775003  1.0000
  C   C27       1.0  0.4698752188897045  0.5034904605831018  0.351532294177595  1.0000
  C   C28       1.0  0.529727720091678  0.49656869318654634  0.648483959525436  1.0000
  C   C29       1.0  0.5195737118172801  0.6124648053258569  0.9751353792700218  1.0000
  C   C30       1.0  0.4802356709069428  0.3872105506936236  0.024852072450180212  1.0000
  C   C31       1.0  0.5041771899097754  0.3858610607820125  0.9733533999080497  1.0000
  C   C32       1.0  0.4956228349473832  0.6138250970825895  0.026634377058314812  1.0000
  C   C33       1.0  0.5296563469112668  0.49937512278813767  0.9498113411484187  1.0000
  C   C34       1.0  0.47012673692187695  0.50030006540495  0.05018171142662452  1.0000
  C   C35       1.0  0.5257962624050379  0.7191965495019942  0.9480748458789566  1.0000
  C   C36       1.0  0.4740973297696626  0.2804822415855952  0.051912658830339416  1.0000
  C   C37       1.0  0.5516280681335387  0.7246226856268477  0.8988202212592713  1.0000
  C   C38       1.0  0.448265823974097  0.27508512366244997  0.10116803441454182  1.0000
  C   C39       1.0  0.5026241274873866  0.7209326352990644  0.05551502257369381  1.0000
  C   C40       1.0  0.49718963884248524  0.27875996070016384  0.9444703221715829  1.0000
  C   C41       1.0  0.3733701130568363  0.9349077124907126  0.4953733515722691  1.0000
  C   C42       1.0  0.627383416290371  0.06529127885494998  0.5047785828126055  1.0000
  C   C43       1.0  0.37361868171594637  0.06088314017574702  0.49417812321466686  1.0000
  C   C44       1.0  0.62716440212629  0.9393335494594766  0.5059048784405393  1.0000
  C   C45       1.0  0.5006085429652884  0.1267466036289662  0.4989242213953491  1.0000
  C   C46       1.0  0.5001808149975346  0.8734639783638016  0.501177420078925  1.0000
  C   C47       1.0  0.0685172689449161  0.4270215071998963  0.5307045608337477  1.0000
  C   C48       1.0  0.9318199344598241  0.5734326598018101  0.4693003034993028  1.0000
  C   C49       1.0  0.07801155256461101  0.5723483206824085  0.47142545353703735  1.0000
  C   C50       1.0  0.9223219394248404  0.42805566539630047  0.5285499780808467  1.0000
  C   C51       1.0  0.26796966510115533  0.5466770807409915  0.6625933233808255  1.0000
  C   C52       1.0  0.7318819141601834  0.45382876768912445  0.33737130418782624  1.0000
  C   C53       1.0  0.5576658856577977  0.8477099814841794  0.8760723662143524  1.0000
  C   C54       1.0  0.4423299263462468  0.1519858650090313  0.12390204787431004  1.0000
  N   N1        1.0  0.4075376932586892  0.5014050333912579  0.20120358745510467  1.0000
  N   N2        1.0  0.5922142215639992  0.49830885115577656  0.7987875690741435  1.0000
  N   N3        1.0  0.8560876226458303  0.5012427527814083  0.49786301051891985  1.0000
  N   N4        1.0  0.14424284153766107  0.4991722062195905  0.5021245914836217  1.0000
  N   N5        1.0  0.17626047354893612  0.5569770380648508  0.264239066106363  1.0000
  N   N6        1.0  0.8232767002561302  0.4422198805791524  0.7357271850717385  1.0000
  N   N7        1.0  0.549046312274072  0.834382958511718  0.040257164732395316  1.0000
  N   N8        1.0  0.45081675162700213  0.1652946441011309  0.9597280429811622  1.0000
  O   O1        1.0  0.6195287517921598  0.687044716734441  0.4996538449279272  1.0000
  O   O2        1.0  0.3814940247917491  0.3134016518502706  0.49925057804517814  1.0000
  O   O3        1.0  0.6197947257476811  0.3168061632227008  0.49646287260993216  1.0000
  O   O4        1.0  0.3816123568398168  0.6832814683432602  0.5046988175712529  1.0000
  O   O5        1.0  0.6069470254826328  0.5058538167489743  0.42394035539358316  1.0000
  O   O6        1.0  0.39247351761699883  0.49110033299168526  0.5761186901436945  1.0000
  O   O7        1.0  0.6295694576880209  0.49662086000304845  0.5710921866633429  1.0000
  O   O8        1.0  0.36996442637966  0.5069477455282154  0.4289285000194384  1.0000
  O   O9        1.0  0.36948375630131375  0.7060018223008839  0.19850091318073038  1.0000
  O   O10       1.0  0.630331123825762  0.2936962613201146  0.8014883813969009  1.0000
  O   O11       1.0  0.5966639653235148  0.7056231141949283  0.7972400566847286  1.0000
  O   O12       1.0  0.4034836376456568  0.2940960650001331  0.20276340085559505  1.0000
