data_image0
_chemical_formula_structural       Cu4H24C25I4N4O4
_chemical_formula_sum              "Cu4 H24 C25 I4 N4 O4"
_cell_length_a       9.921468602419662
_cell_length_b       10.605969041907079
_cell_length_c       10.605943781481294
_cell_angle_alpha    77.36292211224375
_cell_angle_beta     62.112655571243934
_cell_angle_gamma    62.11260707452607

_space_group_name_H-M_alt    "P 1"
_space_group_IT_number       1

loop_
  _space_group_symop_operation_xyz
  'x, y, z'

loop_
  _atom_site_type_symbol
  _atom_site_label
  _atom_site_symmetry_multiplicity
  _atom_site_fract_x
  _atom_site_fract_y
  _atom_site_fract_z
  _atom_site_occupancy
  Cu  Cu1       1.0  0.41048462886474374  0.08085438408666323  0.8949384040593243  1.0000
  Cu  Cu2       1.0  0.3862754202180553  0.9191443949373762  0.10506165732772392  1.0000
  Cu  Cu3       1.0  0.6945756984942475  0.894938081942669  0.9191482589368221  1.0000
  Cu  Cu4       1.0  0.5086648301559862  0.10506280048397802  0.0808539768121364  1.0000
  H   H1        1.0  0.8101145463859893  0.5220324096430814  0.663190244340413  1.0000
  H   H2        1.0  0.9953392934881362  0.47796844143614664  0.33681153827867405  1.0000
  H   H3        1.0  0.5266973471104066  0.6631896522421598  0.477965933294989  1.0000
  H   H4        1.0  0.6678565328312372  0.33680797829751435  0.5220331241319586  1.0000
  H   H5        1.0  0.731687308208293  0.38939177316372287  0.7023231219685259  1.0000
  H   H6        1.0  0.8234057975942901  0.6106069967219696  0.2976739587722648  1.0000
  H   H7        1.0  0.5659874036180665  0.7023216336198386  0.6106096548116469  1.0000
  H   H8        1.0  0.8789254897002576  0.29767509026994776  0.3893898375032522  1.0000
  H   H9        1.0  0.8649670996024098  0.3677215805021346  0.839453379733321  1.0000
  H   H10       1.0  0.07214164028442144  0.6322787385685371  0.1605495276850064  1.0000
  H   H11       1.0  0.29557877928622384  0.8394528276411249  0.6322716813149823  1.0000
  H   H12       1.0  0.7673133895118198  0.1605459641983558  0.36772130790807017  1.0000
  H   H13       1.0  0.05034697314341224  0.2573164309406478  0.9643248564002533  1.0000
  H   H14       1.0  0.27199346186628764  0.7426792044866914  0.035678535836609605  1.0000
  H   H15       1.0  0.9853251060110678  0.9643234038807262  0.7426816069182395  1.0000
  H   H16       1.0  0.6923311006505486  0.03568007160888698  0.257319431489087  1.0000
  H   H17       1.0  0.4676353813581641  0.05419494217152728  0.5979862847366348  1.0000
  H   H18       1.0  0.11981501780936578  0.9458041761243332  0.40201643840845247  1.0000
  H   H19       1.0  0.934380274445736  0.5979860973436215  0.9458047771747929  1.0000
  H   H20       1.0  0.4781687555063172  0.4020168831192023  0.054199063813939595  1.0000
  H   H21       1.0  0.2989730925538368  0.15565674351452685  0.4537451317801384  1.0000
  H   H22       1.0  0.9083698514847568  0.8443458535799235  0.5462570936142868  1.0000
  H   H23       1.0  0.24728100605827305  0.4537456395615464  0.8443406106877236  1.0000
  H   H24       1.0  0.5453729833520741  0.5462561417158865  0.1556573275629347  1.0000
  C   C1        1.0  0.7500020798742211  0.4999988997257673  0.50000021001145  1.0000
  C   C2        1.0  0.8117471940286478  0.4373620638980567  0.6174907506978826  1.0000
  C   C3        1.0  0.8666013352863615  0.5626374742675465  0.38251028596390313  1.0000
  C   C4        1.0  0.5707627315958486  0.6174890943421258  0.5626369111824802  1.0000
  C   C5        1.0  0.7508944228138432  0.38250785721697156  0.43736182545879393  1.0000
  C   C6        1.0  0.06858065622834182  0.2726757155657039  0.6340625121357063  1.0000
  C   C7        1.0  0.9753155282479394  0.7273247986958249  0.36593905902108764  1.0000
  C   C8        1.0  0.2973565410032534  0.6340629832495919  0.727320171547511  1.0000
  C   C9        1.0  0.6587469256016474  0.3659375527328378  0.27267735418639927  1.0000
  C   C10       1.0  0.9976429447377768  0.30006969748534834  0.7801087612517109  1.0000
  C   C11       1.0  0.07782153506095564  0.6999304563101204  0.21989273023250183  1.0000
  C   C12       1.0  0.22224617639798783  0.7801069924690721  0.699926181475611  1.0000
  C   C13       1.0  0.7022865499625867  0.21989285546894882  0.3000692904395095  1.0000
  C   C14       1.0  0.10131323077678893  0.23803191176908453  0.8506540960149778  1.0000
  C   C15       1.0  0.19000236095500622  0.7619652732841544  0.1493451075263437  1.0000
  C   C16       1.0  0.04803183427325304  0.8506563048806653  0.761963377985218  1.0000
  C   C17       1.0  0.660653130411461  0.14934745646849723  0.2380358389363835  1.0000
  C   C18       1.0  0.3335580018814566  0.12476243143866131  0.6466260791985193  1.0000
  C   C19       1.0  0.10494378394127343  0.875233001462348  0.3533727528719055  1.0000
  C   C20       1.0  0.019819584525578287  0.6466276842061088  0.875235216534449  1.0000
  C   C21       1.0  0.5416783101651319  0.35337588996488006  0.12476543861012601  1.0000
  C   C22       1.0  0.24048881621985874  0.18061838082638093  0.5668014611781872  1.0000
  C   C23       1.0  0.9879084619941807  0.8193838367010996  0.4331985775810239  1.0000
  C   C24       1.0  0.19270719833004776  0.5668027296304243  0.8193809047423385  1.0000
  C   C25       1.0  0.5788946838462294  0.43319948377606454  0.18061922013789203  1.0000
  I   I1        1.0  0.18716692786011893  0.21350197783159783  0.1531045830839446  1.0000
  I   I2        1.0  0.5537765679605967  0.7864988219569606  0.8468892186791949  1.0000
  I   I3        1.0  0.6597288064250362  0.1531060568674221  0.7864952392498453  1.0000
  I   I4        1.0  0.5993352093842929  0.8468928047836497  0.21349938836846863  1.0000
  N   N1        1.0  0.267192776322176  0.15332296501539838  0.7869399974295065  1.0000
  N   N2        1.0  0.2074534907251646  0.8466749283120546  0.21306407716262754  1.0000
  N   N3        1.0  0.9458687627454122  0.7869385315264521  0.8466770126093551  1.0000
  N   N4        1.0  0.579479820898186  0.21306462539770615  0.15332761044237486  1.0000
  O   O1        1.0  0.9822991951807718  0.32960518406634504  0.5527408373289404  1.0000
  O   O2        1.0  0.8646420852832148  0.6703962031179029  0.44725870708500554  1.0000
  O   O3        1.0  0.4649591779348654  0.5527395766532947  0.6703927242648434  1.0000
  O   O4        1.0  0.6880987780378617  0.44725680955794883  0.32960643789095906  1.0000
