data_image0
_chemical_formula_structural       Li8H32C64O28
_chemical_formula_sum              "Li8 H32 C64 O28"
_cell_length_a       7.396288277651143
_cell_length_b       9.484917032041295
_cell_length_c       18.844246876575884
_cell_angle_alpha    90.00006493838103
_cell_angle_beta     96.58629137706262
_cell_angle_gamma    89.99966265196578

_space_group_name_H-M_alt    "P 1"
_space_group_IT_number       1

loop_
  _space_group_symop_operation_xyz
  'x, y, z'

loop_
  _atom_site_type_symbol
  _atom_site_label
  _atom_site_symmetry_multiplicity
  _atom_site_fract_x
  _atom_site_fract_y
  _atom_site_fract_z
  _atom_site_occupancy
  Li  Li1       1.0  0.7283944332460236  0.7978616058176372  0.6569070106605963  1.0000
  Li  Li2       1.0  0.7716159757653641  0.29785994290165974  0.3430933516371298  1.0000
  Li  Li3       1.0  0.2716036748443429  0.20213858849795946  0.3430954341070134  1.0000
  Li  Li4       1.0  0.22838606417338528  0.702141305706377  0.6569055307641706  1.0000
  Li  Li5       1.0  0.6596796153809167  0.4996354154247273  0.4534431525430733  1.0000
  Li  Li6       1.0  0.8403211415625265  0.9996342072839898  0.5465574714390016  1.0000
  Li  Li7       1.0  0.34031562036931007  0.5003605616712434  0.5465554655014274  1.0000
  Li  Li8       1.0  0.1596769019735689  0.0003607155025591001  0.45344337862221823  1.0000
  H   H1        1.0  0.4863071607399902  0.8541925191841178  0.5410641784218626  1.0000
  H   H2        1.0  0.0136977931015423  0.35419124751061304  0.458937988149394  1.0000
  H   H3        1.0  0.5137004302083312  0.14580345788699134  0.4589375733067271  1.0000
  H   H4        1.0  0.9862947424861089  0.6458057838975224  0.5410610557213503  1.0000
  H   H5        1.0  0.6672965536655653  0.7824539774792216  0.5249077093072287  1.0000
  H   H6        1.0  0.8327072093764513  0.28245338500516237  0.4750934481564642  1.0000
  H   H7        1.0  0.3327096979736552  0.21753989098454704  0.4750945211184643  1.0000
  H   H8        1.0  0.16728809096746028  0.7175373205650574  0.5249067645931975  1.0000
  H   H9        1.0  0.2674508810405456  0.11979276636579073  0.9636913260178233  1.0000
  H   H10       1.0  0.232551398372884  0.6197845800900555  0.0363021218431498  1.0000
  H   H11       1.0  0.7325471624640159  0.8802105908645997  0.036309524044384006  1.0000
  H   H12       1.0  0.767445112080942  0.3802219400554493  0.9636944227994564  1.0000
  H   H13       1.0  0.21637968980117245  0.8723909025616339  0.004236488973411699  1.0000
  H   H14       1.0  0.2836181085825231  0.3723748376318882  0.9957601018239757  1.0000
  H   H15       1.0  0.7836103393064278  0.12761772621838935  0.9957677648421425  1.0000
  H   H16       1.0  0.7163932850268182  0.627632736783177  0.004234898127982898  1.0000
  H   H17       1.0  0.32281277651411955  0.6707557811140391  0.9345233387124594  1.0000
  H   H18       1.0  0.1771989491241968  0.17074549325979407  0.0654779331648854  1.0000
  H   H19       1.0  0.6771800603832928  0.3292507390510907  0.06548314711968571  1.0000
  H   H20       1.0  0.8228329001709583  0.8292589181939223  0.9345189229924176  1.0000
  H   H21       1.0  0.47490725200920275  0.7163065772993209  0.8254466942229115  1.0000
  H   H22       1.0  0.025100007491566597  0.21629828787757796  0.17455336659156734  1.0000
  H   H23       1.0  0.5250760159828473  0.2836904541368597  0.17455835837228054  1.0000
  H   H24       1.0  0.9749332026964622  0.7836924176018344  0.8254435424353659  1.0000
  H   H25       1.0  0.6348265539484644  0.04469338013137761  0.6409091784096576  1.0000
  H   H26       1.0  0.8651789436568293  0.5446874189858307  0.3590908601293564  1.0000
  H   H27       1.0  0.3651646423143191  0.9553057598913314  0.35909034415869473  1.0000
  H   H28       1.0  0.13483130439292518  0.4553106666884616  0.6409094026361686  1.0000
  H   H29       1.0  0.4861474912085554  0.4501386587653118  0.7899145379042452  1.0000
  H   H30       1.0  0.013849811977870299  0.9501287052228733  0.210084197410545  1.0000
  H   H31       1.0  0.5138504661934321  0.5498657527683691  0.21008418588371575  1.0000
  H   H32       1.0  0.9861509316971536  0.049871489084395614  0.78991622682517  1.0000
  C   C1        1.0  0.4311695427007862  0.2035199345627064  0.8522146881150975  1.0000
  C   C2        1.0  0.0688239887387141  0.7035106426215024  0.1477795253008054  1.0000
  C   C3        1.0  0.5688202496552747  0.7964834226838917  0.14778371844532504  1.0000
  C   C4        1.0  0.9311807083014613  0.2964927145897179  0.8522178681374372  1.0000
  C   C5        1.0  0.5033731495144877  0.22513716997945477  0.7826137205521279  1.0000
  C   C6        1.0  0.9966323598705032  0.7251292318744408  0.21738641319625174  1.0000
  C   C7        1.0  0.4966250016094307  0.7748672415591574  0.21738978735316292  1.0000
  C   C8        1.0  0.0033709978684513023  0.27486990811846823  0.7826114589388526  1.0000
  C   C9        1.0  0.5505049504651324  0.10971797717186152  0.7412936574560548  1.0000
  C   C10       1.0  0.9495000825134952  0.6097124571561139  0.25870692790862654  1.0000
  C   C11       1.0  0.4494877788247463  0.8902843257686042  0.2587101705326377  1.0000
  C   C12       1.0  0.05049919269658431  0.39028773715148196  0.741290785612897  1.0000
  C   C13       1.0  0.5477153905685412  0.9645383546763285  0.7691519110796252  1.0000
  C   C14       1.0  0.9522924545209577  0.4645335005769979  0.23084950059180193  1.0000
  C   C15       1.0  0.45227453095517933  0.03545973104616001  0.2308496848917301  1.0000
  C   C16       1.0  0.04771913284578489  0.5354645850936776  0.769150283476371  1.0000
  C   C17       1.0  0.45781370343600253  0.9411235640293046  0.8342652313438635  1.0000
  C   C18       1.0  0.0421863673036214  0.44111517625157876  0.1657330760297384  1.0000
  C   C19       1.0  0.5421721570716754  0.05887873892485372  0.1657367375828755  1.0000
  C   C20       1.0  0.9578251770177458  0.5588818551125171  0.8342656449011301  1.0000
  C   C21       1.0  0.3999439749387648  0.055885634317917314  0.8738457889979543  1.0000
  C   C22       1.0  0.10006031530956251  0.5558772045457232  0.1261519492881362  1.0000
  C   C23       1.0  0.6000459035080536  0.9441198315418338  0.126154743837084  1.0000
  C   C24       1.0  0.899945785633406  0.4441229897470862  0.8738465601581566  1.0000
  C   C25       1.0  0.3127202483972055  0.029759158956920804  0.9346294145245154  1.0000
  C   C26       1.0  0.1872814724484684  0.5297512460388775  0.06536714875180391  1.0000
  C   C27       1.0  0.687272373253613  0.9702473612027233  0.06537175562171171  1.0000
  C   C28       1.0  0.8127190990095697  0.47025421979140714  0.9346290229357949  1.0000
  C   C29       1.0  0.2844114554031449  0.8921041668410654  0.9567477382723198  1.0000
  C   C30       1.0  0.2155902996252124  0.3920936525851318  0.0432495473334313  1.0000
  C   C31       1.0  0.7155771698134927  0.10790446194092602  0.04325539953481442  1.0000
  C   C32       1.0  0.78441841535016  0.6079139218371595  0.9567464100132385  1.0000
  C   C33       1.0  0.3442428277621658  0.7788852830674956  0.9178051775178063  1.0000
  C   C34       1.0  0.15575852050394448  0.2788782942121771  0.082194686495022  1.0000
  C   C35       1.0  0.6557472013690885  0.22111701987965665  0.08219907629700883  1.0000
  C   C36       1.0  0.8442570632615087  0.7211271715854651  0.9178031299133594  1.0000
  C   C37       1.0  0.42974349202320644  0.8030929262189092  0.8568479301084295  1.0000
  C   C38       1.0  0.07025627136795258  0.30308541298997943  0.14315082357586562  1.0000
  C   C39       1.0  0.5702396037479218  0.19691043104575812  0.14315286993877413  1.0000
  C   C40       1.0  0.9297620556251542  0.6969147812746784  0.8568476301429584  1.0000
  C   C41       1.0  0.6039501468066889  0.13379811550419166  0.6736679724724794  1.0000
  C   C42       1.0  0.8960560669754968  0.6337940474328719  0.3263326714136384  1.0000
  C   C43       1.0  0.396046600442034  0.8662020788144675  0.3263344194238941  1.0000
  C   C44       1.0  0.10394867313764418  0.36620298394656464  0.6736657851610488  1.0000
  C   C45       1.0  0.6136882436939146  0.26981717542864203  0.6465087743310818  1.0000
  C   C46       1.0  0.886318270955641  0.7698111045643616  0.35349089120363436  1.0000
  C   C47       1.0  0.3863166470760717  0.7301840731765524  0.3534934032242419  1.0000
  C   C48       1.0  0.11368512984839899  0.23018381820773473  0.6465080440681633  1.0000
  C   C49       1.0  0.6547406354621473  0.2909832330166183  0.5709952355080077  1.0000
  C   C50       1.0  0.8452602129878527  0.7909806835190666  0.4290026288026923  1.0000
  C   C51       1.0  0.3452573434999734  0.7090116897682893  0.4290040198474331  1.0000
  C   C52       1.0  0.154744505596689  0.20901740216530135  0.5709952962035274  1.0000
  C   C53       1.0  0.5759692480679204  0.38582992240034747  0.6894327411232483  1.0000
  C   C54       1.0  0.9240336990627611  0.8858246360153078  0.31056737745828406  1.0000
  C   C55       1.0  0.4240397682723795  0.6141723805022253  0.3105706581830888  1.0000
  C   C56       1.0  0.0759643014082485  0.11417450399206792  0.6894324094662423  1.0000
  C   C57       1.0  0.5875164121447439  0.5366661904914736  0.66504207561362  1.0000
  C   C58       1.0  0.9124767902593902  0.036664916335134  0.3349548273584162  1.0000
  C   C59       1.0  0.41248148070297214  0.4633329495131593  0.3349550534679508  1.0000
  C   C60       1.0  0.08752676120937511  0.9633321150517563  0.6650478288937691  1.0000
  C   C61       1.0  0.5207351872988326  0.36202601600204803  0.7568705721531899  1.0000
  C   C62       1.0  0.979266490880235  0.8620150526516999  0.24312736169685684  1.0000
  C   C63       1.0  0.47926700330858546  0.6379762869153044  0.24313203122837734  1.0000
  C   C64       1.0  0.020734166700087507  0.1379840873478955  0.7568709362643704  1.0000
  O   O1        1.0  0.3943744671774568  0.3051740866327109  0.8893996487986087  1.0000
  O   O2        1.0  0.10560337806322198  0.8051603248224171  0.11059507002194381  1.0000
  O   O3        1.0  0.6056057777663781  0.6948282163293272  0.11059785609445069  1.0000
  O   O4        1.0  0.8944028520513426  0.19483354364080444  0.8894066288351611  1.0000
  O   O5        1.0  0.6225520701004542  0.865672762846188  0.7405408294877774  1.0000
  O   O6        1.0  0.8774619144907516  0.36566093678431605  0.25945970733330637  1.0000
  O   O7        1.0  0.37743780836213137  0.13432848579164164  0.2594597033467636  1.0000
  O   O8        1.0  0.12254971594501277  0.6343318773600545  0.7405411398714321  1.0000
  O   O9        1.0  0.6166679524578528  0.8513013327218817  0.5576458288475125  1.0000
  O   O10       1.0  0.8833366351761  0.3512993796959735  0.44235486607264113  1.0000
  O   O11       1.0  0.38333957391649415  0.14869464434758584  0.4423543281752984  1.0000
  O   O12       1.0  0.11665456111033728  0.6486934344938577  0.557644656494972  1.0000
  O   O13       1.0  0.6113511368603142  0.40855628448068876  0.5421981044109572  1.0000
  O   O14       1.0  0.8886598915136119  0.9085493831429404  0.4578044630045569  1.0000
  O   O15       1.0  0.388655114735556  0.5914491813433572  0.45780412601609305  1.0000
  O   O16       1.0  0.11133946982663902  0.09144237672300902  0.542195376790346  1.0000
  O   O17       1.0  0.7257120662511127  0.18950823971004382  0.5385650285910304  1.0000
  O   O18       1.0  0.7742854583358111  0.6895071435453632  0.4614326532965905  1.0000
  O   O19       1.0  0.2742845949226194  0.8104856287735489  0.46143523703023703  1.0000
  O   O20       1.0  0.22571792095145327  0.31048567061522203  0.538565750406363  1.0000
  O   O21       1.0  0.43705161275295984  0.5929442797341834  0.6395904697474962  1.0000
  O   O22       1.0  0.0629361348793864  0.09294256021442493  0.36040823748557227  1.0000
  O   O23       1.0  0.562943666050529  0.40705064305741007  0.36040921143406734  1.0000
  O   O24       1.0  0.9370632910111851  0.9070555254860512  0.6395931970158488  1.0000
  O   O25       1.0  0.7392096962348943  0.5971756069543164  0.6744374303234508  1.0000
  O   O26       1.0  0.7607827954941795  0.09717079142151164  0.3255531080226675  1.0000
  O   O27       1.0  0.2607908967478068  0.40282985887651535  0.3255592729327432  1.0000
  O   O28       1.0  0.23921377955727513  0.9028294028927702  0.6744450313249786  1.0000
