data_image0
_chemical_formula_structural       Co6H24C30N12O14
_chemical_formula_sum              "Co6 H24 C30 N12 O14"
_cell_length_a       10.95974527048156
_cell_length_b       10.9793906042379
_cell_length_c       10.684893157837774
_cell_angle_alpha    83.43600612671558
_cell_angle_beta     86.39204931152278
_cell_angle_gamma    82.2673501891551

_space_group_name_H-M_alt    "P 1"
_space_group_IT_number       1

loop_
  _space_group_symop_operation_xyz
  'x, y, z'

loop_
  _atom_site_type_symbol
  _atom_site_label
  _atom_site_symmetry_multiplicity
  _atom_site_fract_x
  _atom_site_fract_y
  _atom_site_fract_z
  _atom_site_occupancy
  Co  Co1       1.0  0.07877968256099878  0.9083846846427192  0.25201021380006944  1.0000
  Co  Co2       1.0  0.9212139913217499  0.0916314982350457  0.747967365416656  1.0000
  Co  Co3       1.0  0.8439573247663643  5.310088237560053e-05  0.496350715942981  1.0000
  Co  Co4       1.0  0.15602535374835474  0.9999361351422137  0.5036045723487987  1.0000
  Co  Co5       1.0  0.9733050141478047  0.8444897763982907  0.009257976911179357  1.0000
  Co  Co6       1.0  0.026722631852635494  0.1555202450692477  0.9907882209796242  1.0000
  H   H1        1.0  0.6461171110113213  0.8372483898081952  0.9944344250045772  1.0000
  H   H2        1.0  0.3538705171674366  0.16275939339272577  0.0055819877913521046  1.0000
  H   H3        1.0  0.4307776286429145  0.8504629748567752  0.09200211284964147  1.0000
  H   H4        1.0  0.5692141750650421  0.14954114570279128  0.9080191277977078  1.0000
  H   H5        1.0  0.5518272216734985  0.9445690248896168  0.4413446219349594  1.0000
  H   H6        1.0  0.44818848640472436  0.055447365720368694  0.5586716855741258  1.0000
  H   H7        1.0  0.15440481912566642  0.3218975952027137  0.5163913234976718  1.0000
  H   H8        1.0  0.8455536822950979  0.6781349038275835  0.4835829728432372  1.0000
  H   H9        1.0  0.12237964863064117  0.5446469565722794  0.4262071201544231  1.0000
  H   H10       1.0  0.8776004401943636  0.4553885279581706  0.5737840820925085  1.0000
  H   H11       1.0  0.044751722249912994  0.4445515389001997  0.0628167144969751  1.0000
  H   H12       1.0  0.9552354948996253  0.5554451410557633  0.9371635962043925  1.0000
  H   H13       1.0  0.18346288310333134  0.9162426612399346  0.040981799802224786  1.0000
  H   H14       1.0  0.816527652766176  0.08372998315988411  0.9590039217977804  1.0000
  H   H15       1.0  0.04522524346673153  0.8167074869394211  0.4757419322581882  1.0000
  H   H16       1.0  0.9547681823039299  0.18332442285871048  0.5242637624447113  1.0000
  H   H17       1.0  0.7769839922992787  0.1725162933256428  0.2796531558192967  1.0000
  H   H18       1.0  0.22304001459881553  0.8274594526765782  0.720353333314506  1.0000
  H   H19       1.0  0.7337103025331189  0.38267356119720825  0.3244127290662817  1.0000
  H   H20       1.0  0.2663248043492672  0.6173078488087996  0.6755904706825716  1.0000
  H   H21       1.0  0.6409004078727065  0.2804425293701982  0.4207551278392072  1.0000
  H   H22       1.0  0.3591147456804791  0.7195572020658078  0.5792276127515947  1.0000
  H   H23       1.0  0.7750973848544902  0.3227624815020533  0.48108747632054616  1.0000
  H   H24       1.0  0.22490695227656932  0.6772232536034792  0.5189163610557941  1.0000
  C   C1        1.0  0.692099253493538  0.9152315107775307  0.29093129996137884  1.0000
  C   C2        1.0  0.30792279659937094  0.08477198334878008  0.7090842238041688  1.0000
  C   C3        1.0  0.718696400664669  0.8831309929268584  0.1660815457431823  1.0000
  C   C4        1.0  0.28132570715559513  0.11688546013948549  0.8339371290231484  1.0000
  C   C5        1.0  0.625557670124806  0.8593283323172045  0.09102205823102592  1.0000
  C   C6        1.0  0.3744650911986795  0.14068349746522557  0.9090027316688278  1.0000
  C   C7        1.0  0.5072943753595851  0.8671018234854273  0.14526576671624977  1.0000
  C   C8        1.0  0.49271788310213094  0.13289972292433558  0.8547497129533709  1.0000
  C   C9        1.0  0.4799049207735493  0.8971504601042568  0.2711199611155095  1.0000
  C   C10       1.0  0.5200918792123446  0.10284353175458703  0.7288834149398511  1.0000
  C   C11       1.0  0.5720139231396928  0.921474502363871  0.3453510969829523  1.0000
  C   C12       1.0  0.4279959527819912  0.07852424552332592  0.654656450027275  1.0000
  C   C13       1.0  0.3486715218502852  0.9047887438866055  0.3218164742000695  1.0000
  C   C14       1.0  0.6513214345533598  0.09519965934607912  0.6781737808980707  1.0000
  C   C15       1.0  0.0836310672644132  0.2945944965243612  0.21084346761156783  1.0000
  C   C16       1.0  0.9163575517275934  0.7054049776459834  0.7891223809014889  1.0000
  C   C17       1.0  0.11675795651330388  0.2601378073598468  0.3374415024527551  1.0000
  C   C18       1.0  0.8832053378793674  0.7398595667710239  0.662521627476913  1.0000
  C   C19       1.0  0.1317708680239562  0.34883267586159405  0.4183643822768984  1.0000
  C   C20       1.0  0.868192275888191  0.6511461798767045  0.5816149751021058  1.0000
  C   C21       1.0  0.11430942019453737  0.47127903456826203  0.3679708270507831  1.0000
  C   C22       1.0  0.8856587414996823  0.5287174480352733  0.6320501044880159  1.0000
  C   C23       1.0  0.0838816655401047  0.5067437825778214  0.24016650662694158  1.0000
  C   C24       1.0  0.9161103977053385  0.49326497027188043  0.759848556036161  1.0000
  C   C25       1.0  0.06841954931686442  0.4187310840564605  0.1602485351727836  1.0000
  C   C26       1.0  0.9315727227234164  0.5812823046069227  0.8397435062322528  1.0000
  C   C27       1.0  0.06715711717378531  0.6416114195551116  0.1932032977049332  1.0000
  C   C28       1.0  0.9328550470623609  0.35839753045291906  0.8068150609294521  1.0000
  C   C29       1.0  0.7351298217824364  0.30180650662359193  0.39568370249896395  1.0000
  C   C30       1.0  0.2648902698601248  0.6981710527847157  0.6043200305418565  1.0000
  N   N1        1.0  0.8015515917816601  0.935876056725732  0.336254594477694  1.0000
  N   N2        1.0  0.1984814808349284  0.06412014383460729  0.6637479387400731  1.0000
  N   N3        1.0  0.8880629490919746  0.9172752086404399  0.24409557857008923  1.0000
  N   N4        1.0  0.1119658629631388  0.08272557604686169  0.755916062716011  1.0000
  N   N5        1.0  0.8421484910230532  0.8845995673486655  0.14211717760611717  1.0000
  N   N6        1.0  0.1578737392131373  0.11540948016189387  0.8579079755698018  1.0000
  N   N7        1.0  0.07145661921440899  0.18699626348080045  0.16045078374926897  1.0000
  N   N8        1.0  0.9285358749561895  0.8129819556435083  0.8395285340232659  1.0000
  N   N9        1.0  0.09581502732003597  0.09445843122131951  0.2519086389183727  1.0000
  N   N10       1.0  0.904173968723498  0.9055317885494812  0.748063888287831  1.0000
  N   N11       1.0  0.12458989346310997  0.13454085770031549  0.3576178341258681  1.0000
  N   N12       1.0  0.8753863269952616  0.8654621984468066  0.6423418807174031  1.0000
  O   O1        1.0  0.09606505814249293  0.9403284486052144  0.05982163421339951  1.0000
  O   O2        1.0  0.9039598084726845  0.05965745390437151  0.9403277312243149  1.0000
  O   O3        1.0  0.042429543951278965  0.9021467924801102  0.4388278028469728  1.0000
  O   O4        1.0  0.957553259984607  0.09783968809225028  0.5610426337635842  1.0000
  O   O5        1.0  0.3249708300150331  0.9387483365688994  0.43278661934361645  1.0000
  O   O6        1.0  0.6750494036509593  0.061247741819244104  0.5671980790355775  1.0000
  O   O7        1.0  0.2701572096438554  0.8766841000890511  0.251020300519265  1.0000
  O   O8        1.0  0.7298012012323125  0.1233233949124752  0.7489981234997813  1.0000
  O   O9        1.0  0.037321396864939474  0.6718804828503835  0.07818748887900281  1.0000
  O   O10       1.0  0.9626839096875272  0.32810525734635126  0.921835000395312  1.0000
  O   O11       1.0  0.08321317805540931  0.7169602550680169  0.27057185296082753  1.0000
  O   O12       1.0  0.9167819132608913  0.28309204389395154  0.7293985735590381  1.0000
  O   O13       1.0  0.8130398478596348  0.19709128115105304  0.3522433803713766  1.0000
  O   O14       1.0  0.18696966863741693  0.80286395253637  0.6477852207940415  1.0000
