data_image0
_chemical_formula_structural       Zn8H64C72S8O50
_chemical_formula_sum              "Zn8 H64 C72 S8 O50"
_cell_length_a       17.769299105369114
_cell_length_b       18.65007207026005
_cell_length_c       23.32218458647914
_cell_angle_alpha    66.39988247888206
_cell_angle_beta     69.73108154174415
_cell_angle_gamma    89.96925230050141

_space_group_name_H-M_alt    "P 1"
_space_group_IT_number       1

loop_
  _space_group_symop_operation_xyz
  'x, y, z'

loop_
  _atom_site_type_symbol
  _atom_site_label
  _atom_site_symmetry_multiplicity
  _atom_site_fract_x
  _atom_site_fract_y
  _atom_site_fract_z
  _atom_site_occupancy
  Zn  Zn1       1.0  0.11916164398507326  0.5339628563454538  0.9441318173645216  1.0000
  Zn  Zn2       1.0  0.9780191232547465  0.5616357029892853  0.048558509194741396  1.0000
  Zn  Zn3       1.0  0.9748881791798638  0.3878188032007586  0.048398379351631556  1.0000
  Zn  Zn4       1.0  0.9347585248131268  0.5225722288005628  0.9391965258003551  1.0000
  Zn  Zn5       1.0  0.3848770309462139  0.9813972250704948  0.04860132231943494  1.0000
  Zn  Zn6       1.0  0.5241021369966034  0.11517557767659528  0.940057586699659  1.0000
  Zn  Zn7       1.0  0.5275064983327411  0.9437578690848625  0.9381553341956135  1.0000
  Zn  Zn8       1.0  0.5710576670235525  0.9687820658115028  0.04716608392083547  1.0000
  H   H1        1.0  0.4346080415897049  0.8201703422592814  0.38894183411970573  1.0000
  H   H2        1.0  0.19834566687296018  0.7978652677953519  0.3772129258086708  1.0000
  H   H3        1.0  0.315126993991349  0.6767364039314498  0.614420601141518  1.0000
  H   H4        1.0  0.08050126574398317  0.7132577016977847  0.5998056958259  1.0000
  H   H5        1.0  0.682020499190493  0.081109200065498  0.6065194452866579  1.0000
  H   H6        1.0  0.7090353242140638  0.3128373583018417  0.6047263328094558  1.0000
  H   H7        1.0  0.8222741104907882  0.1918327615945685  0.38269549802345887  1.0000
  H   H8        1.0  0.7934196385074302  0.42291432439473203  0.3816282643951394  1.0000
  H   H9        1.0  0.1954037788894709  0.3048162068455298  0.9114010540901134  1.0000
  H   H10       1.0  0.1242071992779969  0.23333741191045482  0.9892657444004698  1.0000
  H   H11       1.0  0.2128870826988276  0.14162395872327949  0.9855031294545783  1.0000
  H   H12       1.0  0.2849005438406209  0.2144007168080009  0.9088713187256872  1.0000
  H   H13       1.0  0.21212192669674576  0.128651891242562  0.09723227030192315  1.0000
  H   H14       1.0  0.28612318341730253  0.18814498784607983  0.10071356361321902  1.0000
  H   H15       1.0  0.1268521865280618  0.22380000184823962  0.10039800664610962  1.0000
  H   H16       1.0  0.2030745388171411  0.2845850598409569  0.09986800611498843  1.0000
  H   H17       1.0  0.3025112289948666  0.3940764837255699  0.9112943993783702  1.0000
  H   H18       1.0  0.30479717714654  0.38804246188626473  0.987872277395276  1.0000
  H   H19       1.0  0.3910352832788391  0.2933804777327751  0.9899304813426825  1.0000
  H   H20       1.0  0.3912740012239837  0.3019878806379808  0.9120197591364629  1.0000
  H   H21       1.0  0.8909766310416388  0.7919215960198616  0.90962996405473  1.0000
  H   H22       1.0  0.8837869308346811  0.7773829959198794  0.9913978150209388  1.0000
  H   H23       1.0  0.7963419706039262  0.8709984734357903  0.9896482042203232  1.0000
  H   H24       1.0  0.8020689101566205  0.8831235450329801  0.9087757705810305  1.0000
  H   H25       1.0  0.6918716097673538  0.7662038657989286  0.09463512448381547  1.0000
  H   H26       1.0  0.6195287763095223  0.7064848968270213  0.08958591599775889  1.0000
  H   H27       1.0  0.7764132324930202  0.6698659628819643  0.09577547594257393  1.0000
  H   H28       1.0  0.7057633487419749  0.6132440497151848  0.08667304845395321  1.0000
  H   H29       1.0  0.7912109062626271  0.7076490190396925  0.8972071801954583  1.0000
  H   H30       1.0  0.7168573644447278  0.6332139572426386  0.9692128043031403  1.0000
  H   H31       1.0  0.6266774677375294  0.7237877924687339  0.9725850933118069  1.0000
  H   H32       1.0  0.6999856937617467  0.7972873132322603  0.8992405796860581  1.0000
  H   H33       1.0  0.16663099099839232  0.7984818951952805  0.9329726092280028  1.0000
  H   H34       1.0  0.25092947676566263  0.7610138696902523  0.8933889759276072  1.0000
  H   H35       1.0  0.33893687973121445  0.8564334664415512  0.8903055885173219  1.0000
  H   H36       1.0  0.2543189105275587  0.8934312568964059  0.9298706186896554  1.0000
  H   H37       1.0  0.39714255750141814  0.7482881615839007  0.9605964898692604  1.0000
  H   H38       1.0  0.35375244452615107  0.7083024104584226  0.04982875126979288  1.0000
  H   H39       1.0  0.30915969264779614  0.6530825809994455  0.9630140376108403  1.0000
  H   H40       1.0  0.2667147287840663  0.6133084456555553  0.052239344938094186  1.0000
  H   H41       1.0  0.1040128791218677  0.7406962643654325  0.06251403687571166  1.0000
  H   H42       1.0  0.1460259159169155  0.6660226046700403  0.1105534823785845  1.0000
  H   H43       1.0  0.23263503548778888  0.7629020375994742  0.10738434760857989  1.0000
  H   H44       1.0  0.19186120282672903  0.8372642416167793  0.05808853170327681  1.0000
  H   H45       1.0  0.8922384435727225  0.2623009605991626  0.9335430040563466  1.0000
  H   H46       1.0  0.8466215884983228  0.3386927401950359  0.8895742995663696  1.0000
  H   H47       1.0  0.7597414764288075  0.2435649662219888  0.8912921446037174  1.0000
  H   H48       1.0  0.8040071963252301  0.1674408891585415  0.9370947728745094  1.0000
  H   H49       1.0  0.640813151378005  0.2929958228073913  0.9536283563546348  1.0000
  H   H50       1.0  0.5994633235153373  0.25050369558161384  0.042887367167615834  1.0000
  H   H51       1.0  0.7287091908721309  0.3866801073654785  0.9529721181480967  1.0000
  H   H52       1.0  0.6878035864576475  0.3429288977447698  0.04227725592519247  1.0000
  H   H53       1.0  0.8338461385376945  0.19841029176334501  0.063191801740622  1.0000
  H   H54       1.0  0.7508215752768095  0.2318145213777569  0.10727708525153193  1.0000
  H   H55       1.0  0.6617158186602978  0.13837426193953212  0.10906587018520496  1.0000
  H   H56       1.0  0.744774348369532  0.1050044801124557  0.0652449857544965  1.0000
  H   H57       1.0  0.5501999785570106  0.8514800835879512  0.18602876270793442  1.0000
  H   H58       1.0  0.28700151707200666  0.9781061842460161  0.17782905356000353  1.0000
  H   H59       1.0  0.2226953946453989  0.6553233248938639  0.8141099158745747  1.0000
  H   H60       1.0  0.9622623697504267  0.5391635815802331  0.8012856714593684  1.0000
  H   H61       1.0  0.6608730471271969  0.9704724685978544  0.8108176684317316  1.0000
  H   H62       1.0  0.5315504219799508  0.22712643357079543  0.803965167633976  1.0000
  H   H63       1.0  0.8461064881253435  0.28198578706772537  0.17763455269677317  1.0000
  H   H64       1.0  0.972777230003821  0.5346414027335555  0.18328720253890657  1.0000
  C   C1        1.0  0.1448825534952078  0.6406940404626624  0.0013355489796680645  1.0000
  C   C2        1.0  0.913396217616757  0.41237768942964703  0.1725277070919944  1.0000
  C   C3        1.0  0.14486984424225824  0.3683750176480345  0.0003826053804730075  1.0000
  C   C4        1.0  0.8557844830531708  0.359177486521105  0.9950626724728765  1.0000
  C   C5        1.0  0.0873654630464884  0.5920705028680473  0.8168877245924692  1.0000
  C   C6        1.0  0.8591649545032854  0.6352976795952473  0.9919283596406175  1.0000
  C   C7        1.0  0.35767786303769367  0.14485886539333856  0.9971346778146285  1.0000
  C   C8        1.0  0.5905193374410657  0.09464540255042661  0.8153193066196212  1.0000
  C   C9        1.0  0.35873280806512037  0.8692505410056199  0.9948603341060719  1.0000
  C   C10       1.0  0.6439761556900194  0.8575851844471813  0.9928301781060966  1.0000
  C   C11       1.0  0.423534086139277  0.9169770638436887  0.17307740548124437  1.0000
  C   C12       1.0  0.6405428487540518  0.1348918199509868  0.9977343550741083  1.0000
  C   C13       1.0  0.3851990215169323  0.8780125491360452  0.24903523910087005  1.0000
  C   C14       1.0  0.43170716520599933  0.8646385269095589  0.2898239349365142  1.0000
  C   C15       1.0  0.3960169731687771  0.8284411722630338  0.3600186588099206  1.0000
  C   C16       1.0  0.31134774360741346  0.8037587599680763  0.3930403728656774  1.0000
  C   C17       1.0  0.26394836398606003  0.8165944355780398  0.353426367756775  1.0000
  C   C18       1.0  0.3001548962557194  0.8528564200766908  0.283301197042988  1.0000
  C   C19       1.0  0.2741726102517958  0.7672236270100187  0.4643793994007624  1.0000
  C   C20       1.0  0.2410922494738443  0.7359454028365917  0.5258814892897449  1.0000
  C   C21       1.0  0.20312339147572797  0.700110065231506  0.5971809492180853  1.0000
  C   C22       1.0  0.24949737693706456  0.672081195191929  0.6375729553320397  1.0000
  C   C23       1.0  0.21219086206974677  0.6375390825596979  0.7076463264318208  1.0000
  C   C24       1.0  0.1270397037190136  0.6289921680327525  0.7410547594023243  1.0000
  C   C25       1.0  0.0814985976596887  0.6572994328901842  0.6995261722748937  1.0000
  C   C26       1.0  0.1182946961696558  0.6919462654408051  0.6293870653290199  1.0000
  C   C27       1.0  0.6285099408248414  0.13169211151342347  0.7396780973011943  1.0000
  C   C28       1.0  0.6401349678830569  0.08524845849807862  0.702825338890179  1.0000
  C   C29       1.0  0.6749574327939386  0.11919777784578402  0.6326595434668079  1.0000
  C   C30       1.0  0.700160953462202  0.2016885347696729  0.5959675223330194  1.0000
  C   C31       1.0  0.6893534980866391  0.2489263691825058  0.6316568224969004  1.0000
  C   C32       1.0  0.6543657544655445  0.21451651270994182  0.7018069734105198  1.0000
  C   C33       1.0  0.7359788545457918  0.23653417188700127  0.5246822528052206  1.0000
  C   C34       1.0  0.767112939885024  0.2669582714009806  0.4631233339191213  1.0000
  C   C35       1.0  0.8030165942845146  0.3025470122235988  0.39182000609816453  1.0000
  C   C36       1.0  0.828909541714566  0.2559732062603929  0.355935389841413  1.0000
  C   C37       1.0  0.8640529604106533  0.2913362293494828  0.28577964828853203  1.0000
  C   C38       1.0  0.8752345808566844  0.3744713808261437  0.24817408845928668  1.0000
  C   C39       1.0  0.8487891039571451  0.4201952840507417  0.28522950270689057  1.0000
  C   C40       1.0  0.8134572254581939  0.3853396889175684  0.3553660143987898  1.0000
  C   C41       1.0  0.18772425383653507  0.26306297089482206  0.9630266247893717  1.0000
  C   C42       1.0  0.2467064483282897  0.20208967663951677  0.9613294990903043  1.0000
  C   C43       1.0  0.3020833987605442  0.2063108235363202  0.999057353805128  1.0000
  C   C44       1.0  0.2475192654982052  0.18838730504135273  0.07258221177993822  1.0000
  C   C45       1.0  0.1909241518312044  0.25145656196927757  0.07334795335679443  1.0000
  C   C46       1.0  0.204550248621743  0.3102084151683613  0.00024065983004821126  1.0000
  C   C47       1.0  0.29313198778943667  0.3523445449883695  0.9631890236197266  1.0000
  C   C48       1.0  0.3511233752306068  0.2904338347412505  0.9636711761354065  1.0000
  C   C49       1.0  0.8480197081526768  0.7775226569317298  0.9612764678062575  1.0000
  C   C50       1.0  0.7892427288852274  0.8389837919724885  0.9607853371208037  1.0000
  C   C51       1.0  0.7002891408725843  0.7963823357794126  0.9923576133227457  1.0000
  C   C52       1.0  0.6834475913372557  0.7351813929398574  0.06546728869249571  1.0000
  C   C53       1.0  0.7408952880840829  0.6727746526716204  0.06491236069981451  1.0000
  C   C54       1.0  0.799197755835884  0.693385389553079  0.9916004462533506  1.0000
  C   C55       1.0  0.749730585719611  0.6932830888791627  0.949187505832704  1.0000
  C   C56       1.0  0.6899592314645416  0.7534725983767813  0.9506533727083808  1.0000
  C   C57       1.0  0.2230104959085395  0.7761560714629496  0.9362562876765638  1.0000
  C   C58       1.0  0.2815240697899526  0.8394459625797382  0.9341759853180206  1.0000
  C   C59       1.0  0.2996830017278995  0.8063853569506491  0.9995727100238768  1.0000
  C   C60       1.0  0.33941280965738946  0.7315284181901377  0.004042032841276482  1.0000
  C   C61       1.0  0.28114921686606914  0.6682873322561136  0.005752526440829843  1.0000
  C   C62       1.0  0.201604591100029  0.6999315739121172  0.0029749610087038097  1.0000
  C   C63       1.0  0.16168327479275046  0.7202516023285954  0.06333909364514771  1.0000
  C   C64       1.0  0.21974415806256076  0.7840041221776415  0.061050544828361836  1.0000
  C   C65       1.0  0.8338441513736186  0.2827688397002603  0.9349067582816206  1.0000
  C   C66       1.0  0.7753223105365876  0.21990537782883723  0.9363756896016612  1.0000
  C   C67       1.0  0.696296143725192  0.19415836924002153  0.00037526560365817543  1.0000
  C   C68       1.0  0.6566134117677153  0.26837993500942764  0.9984930697749946  1.0000
  C   C69       1.0  0.7153054831857801  0.33032486434066743  0.9978797456756682  1.0000
  C   C70       1.0  0.7953124346252024  0.2985898664151989  0.9985477980678754  1.0000
  C   C71       1.0  0.7768003189397065  0.22030355460090328  0.06218723474938057  1.0000
  C   C72       1.0  0.7176557447578062  0.15834374088544223  0.06349014715338794  1.0000
  S   S1        1.0  0.5400297505787677  0.8980977231083073  0.25564140051064765  1.0000
  S   S2        1.0  0.23044528319445587  0.8606885770077497  0.24086781892736303  1.0000
  S   S3        1.0  0.2804048296573995  0.6011440687261783  0.7513809638416902  1.0000
  S   S4        1.0  0.9729128919181634  0.6560833766098497  0.7325885723184057  1.0000
  S   S5        1.0  0.6078206896342806  0.9791235012996892  0.7417319192390011  1.0000
  S   S6        1.0  0.6505006478853658  0.28285397763509224  0.7397089568293824  1.0000
  S   S7        1.0  0.898298321096469  0.22344955880012662  0.24795810366988036  1.0000
  S   S8        1.0  0.8530515607006918  0.5264678772013839  0.24623602522860458  1.0000
  O   O1        1.0  0.0017623441372265226  0.5021358690313847  0.9936213658244455  1.0000
  O   O2        1.0  0.17502490778349514  0.611336627212495  0.9588127317711042  1.0000
  O   O3        1.0  0.9629982112640291  0.4773487846200908  0.14304344776324018  1.0000
  O   O4        1.0  0.07066188873586299  0.3384689277789619  0.038791609882281454  1.0000
  O   O5        1.0  0.07049633512940552  0.6256382771274149  0.04109467862420494  1.0000
  O   O6        1.0  0.1725368136173131  0.4415660475320776  0.9616065377116526  1.0000
  O   O7        1.0  0.8950987824441584  0.3783750110027455  0.140176569244737  1.0000
  O   O8        1.0  0.8955084803974032  0.3332579629194613  0.03352339226999841  1.0000
  O   O9        1.0  0.01987601428419344  0.5449143798750884  0.8453643075151832  1.0000
  O   O10       1.0  0.8644518155231824  0.4314302181153167  0.9530519433831871  1.0000
  O   O11       1.0  0.12305045071093448  0.6093252509096841  0.8498437814808997  1.0000
  O   O12       1.0  0.89663790199387  0.6259649195260266  0.03176630321900116  1.0000
  O   O13       1.0  0.8683000856802751  0.601361372395971  0.9526355342740657  1.0000
  O   O14       1.0  0.5013472412732013  0.0007873870638874977  0.9950520105719534  1.0000
  O   O15       1.0  0.3276060839511672  0.0723762555684004  0.03804570222693829  1.0000
  O   O16       1.0  0.540551580192421  0.1302162110214624  0.8445587378438831  1.0000
  O   O17       1.0  0.4301600710444404  0.8852757291832917  0.9494998526269429  1.0000
  O   O18       1.0  0.43047217706760676  0.1694175945484417  0.9539032641279307  1.0000
  O   O19       1.0  0.3326530947595002  0.9015779425236943  0.035439922002687814  1.0000
  O   O20       1.0  0.609025520278962  0.028608224596084107  0.8481677328977498  1.0000
  O   O21       1.0  0.6055541064638135  0.8723237183151583  0.9532547942108565  1.0000
  O   O22       1.0  0.4906793882008955  0.8983964001530182  0.1437373992245838  1.0000
  O   O23       1.0  0.6392304871919093  0.8906184230080996  0.03240256364268393  1.0000
  O   O24       1.0  0.38698048605486696  0.9667761429728118  0.1407896816463959  1.0000
  O   O25       1.0  0.6067824772918016  0.16363044712305447  0.9548674819228538  1.0000
  O   O26       1.0  0.6330680973462179  0.061696090528705824  0.036734552622881674  1.0000
  O   O27       1.0  0.5743564671674477  0.8402999319943306  0.22123755697162295  1.0000
  O   O28       1.0  0.5665179595033507  0.8779455774343035  0.3108126187361152  1.0000
  O   O29       1.0  0.5554958528387106  0.9786126790164432  0.20529769523803762  1.0000
  O   O30       1.0  0.22959191572913804  0.9537064002439025  0.20955215759911994  1.0000
  O   O31       1.0  0.15065692459091914  0.8250238996526208  0.29100404632975335  1.0000
  O   O32       1.0  0.26602956473372075  0.8349270643629013  0.1881328787042662  1.0000
  O   O33       1.0  0.2806593640138502  0.6620696905085026  0.7835052314916311  1.0000
  O   O34       1.0  0.36070665261103574  0.6152608416390065  0.7020722798981681  1.0000
  O   O35       1.0  0.2435680640698621  0.5225719763953265  0.8035768346697623  1.0000
  O   O36       1.0  0.9392828971091234  0.5638189746198351  0.7654060005849176  1.0000
  O   O37       1.0  0.9476777755367962  0.6922427614641506  0.6768106989593791  1.0000
  O   O38       1.0  0.955282385439446  0.6846546669397853  0.7840760400040737  1.0000
  O   O39       1.0  0.6713010980960378  0.9480009784069239  0.7767755334210308  1.0000
  O   O40       1.0  0.6253398201803932  0.9529725764734636  0.6892099200306064  1.0000
  O   O41       1.0  0.5268301101355348  0.9617850166691182  0.7919438857476566  1.0000
  O   O42       1.0  0.555445323799063  0.28331379144315605  0.7701919411738274  1.0000
  O   O43       1.0  0.6854730448218831  0.3605610105939974  0.6866550502474809  1.0000
  O   O44       1.0  0.68099149153241  0.24824411558515896  0.7929360766298927  1.0000
  O   O45       1.0  0.8362239263711118  0.2256957588689659  0.21203999320913883  1.0000
  O   O46       1.0  0.880887663835587  0.145181213871588  0.30113909028543867  1.0000
  O   O47       1.0  0.9796015539593127  0.25675481107853665  0.19852216069681816  1.0000
  O   O48       1.0  0.9480462527873428  0.5570990691636268  0.2168512123937916  1.0000
  O   O49       1.0  0.8169766751547769  0.5519343315147722  0.29860344924242094  1.0000
  O   O50       1.0  0.8239674363686333  0.544763543505873  0.1922322770634893  1.0000
