data_image0
_chemical_formula_structural       Mn2H20C20N8O8
_chemical_formula_sum              "Mn2 H20 C20 N8 O8"
_cell_length_a       5.085433859043894
_cell_length_b       8.324531219129879
_cell_length_c       12.232068590044854
_cell_angle_alpha    93.0813140036736
_cell_angle_beta     89.99999689072858
_cell_angle_gamma    90.00048822264151

_space_group_name_H-M_alt    "P 1"
_space_group_IT_number       1

loop_
  _space_group_symop_operation_xyz
  'x, y, z'

loop_
  _atom_site_type_symbol
  _atom_site_label
  _atom_site_symmetry_multiplicity
  _atom_site_fract_x
  _atom_site_fract_y
  _atom_site_fract_z
  _atom_site_occupancy
  Mn  Mn1       1.0  0.9999972754183303  0.49999567124732647  0.49999383422343874  1.0000
  Mn  Mn2       1.0  0.5000045366245089  4.942715037299999e-06  6.630465378500002e-06  1.0000
  H   H1        1.0  0.2666993742970334  0.2620110241127024  0.6863725928359801  1.0000
  H   H2        1.0  0.7667038303232231  0.23799612236120285  0.8136315421506951  1.0000
  H   H3        1.0  0.7332821707204998  0.7379996162589892  0.3136329924169914  1.0000
  H   H4        1.0  0.2332914794067804  0.7620024208366586  0.1863671178128996  1.0000
  H   H5        1.0  0.5667970585938491  0.1954440931333821  0.5066774023118299  1.0000
  H   H6        1.0  0.06678381872968228  0.3045414973723695  0.9933171074764928  1.0000
  H   H7        1.0  0.4332139821152196  0.8045242492219914  0.49330803348661334  1.0000
  H   H8        1.0  0.9332291888407339  0.6954884665869797  0.006696450553064895  1.0000
  H   H9        1.0  0.6960320978156104  0.9070672176496402  0.6073538303983241  1.0000
  H   H10       1.0  0.1960137208527328  0.5929205986302934  0.892640244102772  1.0000
  H   H11       1.0  0.3039907414262757  0.09291916941411671  0.39263217959496904  1.0000
  H   H12       1.0  0.8040071521466956  0.40708529734975935  0.1073717305209385  1.0000
  H   H13       1.0  0.35243570201576085  0.9824682768035161  0.7481951564904818  1.0000
  H   H14       1.0  0.8524388829822767  0.5175288200475876  0.7518057116517838  1.0000
  H   H15       1.0  0.6475537084489175  0.0175218033900464  0.2517991464582536  1.0000
  H   H16       1.0  0.14755839322119607  0.4824793975510601  0.2481981614180313  1.0000
  H   H17       1.0  0.1542528091872626  0.8233441362147429  0.6913534454207736  1.0000
  H   H18       1.0  0.6542445824697296  0.676654354265203  0.808646702766879  1.0000
  H   H19       1.0  0.8457444669497604  0.1766544912668806  0.308653392657277  1.0000
  H   H20       1.0  0.34574876090631784  0.3233513393760674  0.19134564438336812  1.0000
  C   C1        1.0  0.09133929060590158  0.20764079239334166  0.6506874891888614  1.0000
  C   C2        1.0  0.5913308104366237  0.29235578295878645  0.8493106337249969  1.0000
  C   C3        1.0  0.9086658510904542  0.7923529136315252  0.3493085642210403  1.0000
  C   C4        1.0  0.4086802305621545  0.707651231696154  0.15069320106437803  1.0000
  C   C5        1.0  0.7305646107477841  0.16429832154581453  0.5580949096176512  1.0000
  C   C6        1.0  0.2305615747055185  0.33569538382496233  0.9419063547414267  1.0000
  C   C7        1.0  0.2694385645406783  0.8356941983512557  0.4419027411355644  1.0000
  C   C8        1.0  0.7694455334548138  0.6643056917780825  0.05810464895277081  1.0000
  C   C9        1.0  0.7868459655542706  0.0246948061231009  0.6085768035863452  1.0000
  C   C10       1.0  0.2868468200925989  0.4752992011996965  0.8914260903474159  1.0000
  C   C11       1.0  0.21314541141041587  0.9753085658348296  0.39142364511916844  1.0000
  C   C12       1.0  0.7131504560862751  0.524705424319002  0.108579303506211  1.0000
  C   C13       1.0  0.14904469790044317  0.9425695493185272  0.7350008895622795  1.0000
  C   C14       1.0  0.6490504347890038  0.5574301009385394  0.7649976618410722  1.0000
  C   C15       1.0  0.8509368470614335  0.05743382261449879  0.2649995591437602  1.0000
  C   C16       1.0  0.350940942147858  0.4425696368000586  0.2350002185909759  1.0000
  C   C17       1.0  0.018571973340236497  0.9201021531685287  0.846406314606064  1.0000
  C   C18       1.0  0.5185562414921633  0.5798932440603723  0.653593771602914  1.0000
  C   C19       1.0  0.9814312020729048  0.07990725899574609  0.1535967789316715  1.0000
  C   C20       1.0  0.4814410345581521  0.4200944386238633  0.34640127259746123  1.0000
  N   N1        1.0  0.9227712628525565  0.277602255604819  0.5845440958817605  1.0000
  N   N2        1.0  0.4227606693308772  0.22239237277915438  0.9154522409543732  1.0000
  N   N3        1.0  0.07723387885847902  0.7223938226656726  0.4154487628417129  1.0000
  N   N4        1.0  0.577250371642016  0.7776110329400864  0.0845514789959054  1.0000
  N   N5        1.0  0.015649481143661596  0.0542319632447175  0.6668110523281285  1.0000
  N   N6        1.0  0.5156471046362369  0.4457678629446065  0.8331896469925297  1.0000
  N   N7        1.0  0.9843458285664964  0.9457641402845026  0.33318425983024014  1.0000
  N   N8        1.0  0.48435213798764215  0.5542427943276634  0.1668175738823976  1.0000
  O   O1        1.0  0.1712784155282705  0.8717685464855336  0.9202997294746211  1.0000
  O   O2        1.0  0.6712829330944315  0.6282336139199032  0.5796980782874925  1.0000
  O   O3        1.0  0.8287188607835105  0.12825525926721332  0.07969973436254212  1.0000
  O   O4        1.0  0.3287202420997488  0.3717456816408102  0.4202999692004923  1.0000
  O   O5        1.0  0.7726887132105489  0.9412654640826048  0.855462734798735  1.0000
  O   O6        1.0  0.2726950549471425  0.5587275861805453  0.6445347558280972  1.0000
  O   O7        1.0  0.22729283184149549  0.058749988203352616  0.144543003573034  1.0000
  O   O8        1.0  0.7272982882211493  0.4412492275472388  0.35545585479792413  1.0000
