data_image0
_chemical_formula_structural       ZnH24C22N4O4
_chemical_formula_sum              "Zn1 H24 C22 N4 O4"
_cell_length_a       6.823752542346097
_cell_length_b       8.38150018774616
_cell_length_c       9.853362149784456
_cell_angle_alpha    81.76276417853045
_cell_angle_beta     74.11571478788939
_cell_angle_gamma    75.34133116255377

_space_group_name_H-M_alt    "P 1"
_space_group_IT_number       1

loop_
  _space_group_symop_operation_xyz
  'x, y, z'

loop_
  _atom_site_type_symbol
  _atom_site_label
  _atom_site_symmetry_multiplicity
  _atom_site_fract_x
  _atom_site_fract_y
  _atom_site_fract_z
  _atom_site_occupancy
  Zn  Zn1       1.0  0.5000001125870097  0.499998041590132  0.4999990958964916  1.0000
  H   H1        1.0  0.9698094165990196  0.523797179837402  0.356803645349352  1.0000
  H   H2        1.0  0.030196610737533464  0.4762000597765948  0.6431942881877006  1.0000
  H   H3        1.0  0.5937743302740727  0.25104384361804216  0.27651954392484873  1.0000
  H   H4        1.0  0.4062255125951281  0.7489597066521655  0.7234828100890809  1.0000
  H   H5        1.0  0.8608351596221693  0.15246036156706572  0.05554158901527732  1.0000
  H   H6        1.0  0.13916749802113057  0.8475382037732546  0.9444598649927373  1.0000
  H   H7        1.0  0.19121263519052437  0.2594307188698437  0.9794791372510261  1.0000
  H   H8        1.0  0.8087900140298175  0.7405678186703143  0.02052029213470518  1.0000
  H   H9        1.0  0.2998610875333512  0.5505944479134257  0.20669038079525856  1.0000
  H   H10       1.0  0.7001357637359362  0.449402947093084  0.7933103191575485  1.0000
  H   H11       1.0  0.4223643520811392  0.8166222821246123  0.08626500291899224  1.0000
  H   H12       1.0  0.577637640035185  0.1833786874391734  0.9137311872053432  1.0000
  H   H13       1.0  0.4183765051311781  0.0134574738005568  0.1400666106923723  1.0000
  H   H14       1.0  0.5816316240169072  0.9865434570352607  0.8599324592734308  1.0000
  H   H15       1.0  0.19722068866275322  0.9214434168078968  0.20627556116205883  1.0000
  H   H16       1.0  0.8027819563460953  0.07855510683218368  0.7937228559125346  1.0000
  H   H17       1.0  0.659269980641369  0.964608623994643  0.2736274772015789  1.0000
  H   H18       1.0  0.3407348599409232  0.0353874718398899  0.7263759114059313  1.0000
  H   H19       1.0  0.8218925739854298  0.8861163904981739  0.5907570354861917  1.0000
  H   H20       1.0  0.17810234808664654  0.1138884395800304  0.4092440697937718  1.0000
  H   H21       1.0  0.8543822437135656  0.9953391278690166  0.41953489325343446  1.0000
  H   H22       1.0  0.1456005106913381  0.004659702338003105  0.5804673243811609  1.0000
  H   H23       1.0  0.016101768174443996  0.7951679326651657  0.4463029811525416  1.0000
  H   H24       1.0  0.9838964593093634  0.20484178801464029  0.5536978547302739  1.0000
  C   C1        1.0  0.10617566375617568  0.40022919415223873  0.16311172590927475  1.0000
  C   C2        1.0  0.8938217466437377  0.5997718739579271  0.8368873658896377  1.0000
  C   C3        1.0  0.9493463898048801  0.443808700389134  0.2862437278890866  1.0000
  C   C4        1.0  0.050655623368861265  0.5561923386750537  0.7137575237909319  1.0000
  C   C5        1.0  0.7426722994366557  0.2885411896014817  0.24179657677064628  1.0000
  C   C6        1.0  0.2573275307980936  0.7114623189684864  0.7582027403098763  1.0000
  C   C7        1.0  0.8920354348210537  0.23501719104412905  0.11914174073285015  1.0000
  C   C8        1.0  0.1079653663295232  0.7649826208401153  0.8808588921507976  1.0000
  C   C9        1.0  0.07463789419989551  0.2931595327946964  0.0775048396528746  1.0000
  C   C10       1.0  0.9253659628321174  0.70684021802532  0.9224941962180964  1.0000
  C   C11       1.0  0.28637979416373577  0.4747050749098064  0.12876400380223174  1.0000
  C   C12       1.0  0.7136188198363768  0.5252971925801333  0.8712336821707751  1.0000
  C   C13       1.0  0.36879218323989693  0.8965341107886574  0.17493700756394046  1.0000
  C   C14       1.0  0.6312116695806295  0.10346562613128191  0.8250610159958853  1.0000
  C   C15       1.0  0.4563432847740501  0.8013830947583003  0.29557476270143473  1.0000
  C   C16       1.0  0.5436566307996386  0.1986142669841513  0.7044263648609714  1.0000
  C   C17       1.0  0.6123418453369354  0.8551490266699844  0.33370121001040337  1.0000
  C   C18       1.0  0.38765468790905533  0.1448496190985509  0.6663004010895437  1.0000
  C   C19       1.0  0.7031192902893648  0.7895553666284841  0.44808898938026  1.0000
  C   C20       1.0  0.2968784591912623  0.21044452022006516  0.5519142528271958  1.0000
  C   C21       1.0  0.8570229704918261  0.8731353158071685  0.47682012335823765  1.0000
  C   C22       1.0  0.14297139244962406  0.12686584116738686  0.5231825900756278  1.0000
  N   N1        1.0  0.7700010560183229  0.39230846307936673  0.3236030810248209  1.0000
  N   N2        1.0  0.23000247456742787  0.6076925107025061  0.6763948413710139  1.0000
  N   N3        1.0  0.42299954973813664  0.4562228998017943  0.007971385922118721  1.0000
  N   N4        1.0  0.5770017936971357  0.5437805295857744  0.9920235895630826  1.0000
  O   O1        1.0  0.6681708856350994  0.6617070430088319  0.5310826277722712  1.0000
  O   O2        1.0  0.3318315224779056  0.3382865706656587  0.46891749862022186  1.0000
  O   O3        1.0  0.3794790701168792  0.6768573907172455  0.3543266394298855  1.0000
  O   O4        1.0  0.6205214003759494  0.3231436302287706  0.6456718676674883  1.0000
