data_image0
_chemical_formula_structural       Cu2Ag4H30C36S6N12
_chemical_formula_sum              "Cu2 Ag4 H30 C36 S6 N12"
_cell_length_a       8.234666168644402
_cell_length_b       8.945811330838517
_cell_length_c       14.599611575712705
_cell_angle_alpha    90.00107042023757
_cell_angle_beta     89.99954547687943
_cell_angle_gamma    93.16384939294178

_space_group_name_H-M_alt    "P 1"
_space_group_IT_number       1

loop_
  _space_group_symop_operation_xyz
  'x, y, z'

loop_
  _atom_site_type_symbol
  _atom_site_label
  _atom_site_symmetry_multiplicity
  _atom_site_fract_x
  _atom_site_fract_y
  _atom_site_fract_z
  _atom_site_occupancy
  Cu  Cu1       1.0  0.8603945750363382  0.32391665231104133  0.25270800627806983  1.0000
  Cu  Cu2       1.0  0.36038820475501154  0.3239188461680555  0.7472955873792273  1.0000
  Ag  Ag1       1.0  0.3804912986388799  0.6448424111203083  0.07727819582871831  1.0000
  Ag  Ag2       1.0  0.8804871618742139  0.6448365761874512  0.9227276355441136  1.0000
  Ag  Ag3       1.0  0.3809622741583211  0.6640801182083889  0.4152441463353327  1.0000
  Ag  Ag4       1.0  0.8809534715805469  0.664083214741673  0.5847591648917287  1.0000
  H   H1        1.0  0.2151003363255768  0.8838252084723521  0.1944118319179964  1.0000
  H   H2        1.0  0.7151060041795462  0.883813723650583  0.8055844908279826  1.0000
  H   H3        1.0  0.1804475811139596  0.1610618584234871  0.20283262705942925  1.0000
  H   H4        1.0  0.6804619120396467  0.16105130763305905  0.7971637420046775  1.0000
  H   H5        1.0  0.32686395280270375  0.3282279529990362  0.08917543967108092  1.0000
  H   H6        1.0  0.82687812594812  0.32822078335395577  0.9108221912852204  1.0000
  H   H7        1.0  0.49754360065551856  0.2132166117747403  0.9687477899298218  1.0000
  H   H8        1.0  0.997546913957933  0.21321451900761454  0.031251850159527805  1.0000
  H   H9        1.0  0.5198435909665591  0.9347026496624766  0.9694868482065504  1.0000
  H   H10       1.0  0.01984297572889909  0.9346981043820715  0.030510262669409406  1.0000
  H   H11       1.0  0.5283984522373686  0.9421646670283859  0.3050034401441196  1.0000
  H   H12       1.0  0.02839277070960119  0.9421664288717009  0.6949971426879885  1.0000
  H   H13       1.0  0.5218609375833125  0.22197284677281456  0.2990950379296607  1.0000
  H   H14       1.0  0.021856456744210103  0.2219759125956742  0.7009048082629832  1.0000
  H   H15       1.0  0.345167805141159  0.34980158373441833  0.41165259491698697  1.0000
  H   H16       1.0  0.8451708794745443  0.34980040066969303  0.5883486263864768  1.0000
  H   H17       1.0  0.18363346851261747  0.19244284574932638  0.5252146651355503  1.0000
  H   H18       1.0  0.6836380286744586  0.19244053256640828  0.4747847910211861  1.0000
  H   H19       1.0  0.20159075511261196  0.9136676524412409  0.5204871479748832  1.0000
  H   H20       1.0  0.7015891265838972  0.9136643140414977  0.47951231993553733  1.0000
  H   H21       1.0  0.7021643052846613  0.07852825295017142  0.13932379789445556  1.0000
  H   H22       1.0  0.20216125376428803  0.0785304888088234  0.8606749461553492  1.0000
  H   H23       1.0  0.6942413050661358  0.7983765296446633  0.1288037116967757  1.0000
  H   H24       1.0  0.19424553015314663  0.7983813717230744  0.8711910360504547  1.0000
  H   H25       1.0  0.8495396563088775  0.6546808273333155  0.2453364532429418  1.0000
  H   H26       1.0  0.3495525781104192  0.6546822673351542  0.7546593578280111  1.0000
  H   H27       1.0  0.007710558631231396  0.801664854597007  0.36630612847604743  1.0000
  H   H28       1.0  0.5077205461248296  0.8016684304635219  0.6336901891009461  1.0000
  H   H29       1.0  0.0037890531626132004  0.0805965258373433  0.36573963821181377  1.0000
  H   H30       1.0  0.5037916873064175  0.08059894390694922  0.6342607153978153  1.0000
  C   C1        1.0  0.6910564804425618  0.4426304264409282  0.07989625811016773  1.0000
  C   C2        1.0  0.1910501670748559  0.4426321680802161  0.920110157695085  1.0000
  C   C3        1.0  0.20905388192403507  0.4724911951833021  0.24985547083023366  1.0000
  C   C4        1.0  0.7090525152666274  0.47249367436405265  0.7501464127660569  1.0000
  C   C5        1.0  0.7006827584224097  0.4764462493228053  0.4178684363902505  1.0000
  C   C6        1.0  0.20067982632244247  0.4764480304877523  0.5821342157520561  1.0000
  C   C7        1.0  0.27518225941725655  0.960934790370551  0.1455567305216618  1.0000
  C   C8        1.0  0.7751865224147207  0.9609325823507574  0.8544402082091764  1.0000
  C   C9        1.0  0.25684411390222545  0.11445095742214309  0.1504027079456023  1.0000
  C   C10       1.0  0.7568505222952381  0.11444190693489277  0.8495927770160563  1.0000
  C   C11       1.0  0.33816737550039727  0.20751905911964735  0.0867931481656257  1.0000
  C   C12       1.0  0.8381730728161544  0.20751301529526242  0.9132030402248716  1.0000
  C   C13       1.0  0.43381994777173816  0.14387803424705936  0.0200551722892328  1.0000
  C   C14       1.0  0.9338210800947025  0.14387170381382933  0.9799432730060361  1.0000
  C   C15       1.0  0.4457504719579645  0.9893566460925527  0.020055907906567003  1.0000
  C   C16       1.0  0.9457491173636045  0.9893491777342548  0.9799419537732776  1.0000
  C   C17       1.0  0.45330478154358644  0.0024916775564634004  0.3524179501293503  1.0000
  C   C18       1.0  0.9532986934357909  0.0024933069697752  0.6475808320116272  1.0000
  C   C19       1.0  0.4488317541775615  0.15774998000384946  0.34908862943678537  1.0000
  C   C20       1.0  0.9488317574493691  0.15775287367778656  0.6509112775330479  1.0000
  C   C21       1.0  0.3509337471037384  0.22840847868778977  0.4117888721964037  1.0000
  C   C22       1.0  0.850934393326945  0.22840727314412848  0.5882088689302662  1.0000
  C   C23       1.0  0.2604177561326964  0.1413194298162281  0.47482586933031007  1.0000
  C   C24       1.0  0.7604205500002691  0.14131972187183806  0.5251740188448225  1.0000
  C   C25       1.0  0.27096460646324516  0.9866700427586679  0.4730450531049115  1.0000
  C   C26       1.0  0.770962347823158  0.9866669923184334  0.5269528863561632  1.0000
  C   C27       1.0  0.7680496102614567  0.012083126772893098  0.18809785068446425  1.0000
  C   C28       1.0  0.26804853413593593  0.0120872833607919  0.8119018832164289  1.0000
  C   C29       1.0  0.7642880417645586  0.8563126611306018  0.18281696736622172  1.0000
  C   C30       1.0  0.2642904893891895  0.8563158824174336  0.8171801849157206  1.0000
  C   C31       1.0  0.8505181821520436  0.7766845318730732  0.24723309496702234  1.0000
  C   C32       1.0  0.35052655306888875  0.7766914763894519  0.7527627479918381  1.0000
  C   C33       1.0  0.9380661536667745  0.8579394519287433  0.31440364464044995  1.0000
  C   C34       1.0  0.43807643639601673  0.8579421738365696  0.6855927372782277  1.0000
  C   C35       1.0  0.9361585976091648  0.013609875964448301  0.3146686533837766  1.0000
  C   C36       1.0  0.43616292338600715  0.0136147831086006  0.6853303347559105  1.0000
  S   S1        1.0  0.6126528485914804  0.5312771030011376  0.9927109579233007  1.0000
  S   S2        1.0  0.11264718230160038  0.5312863765793949  0.007298890511364701  1.0000
  S   S3        1.0  0.3879696374117004  0.5641511312115668  0.24913297088111364  1.0000
  S   S4        1.0  0.8879595863534675  0.5641502089447028  0.7508684717966931  1.0000
  S   S5        1.0  0.615856087105577  0.559464628430966  0.5049282728834683  1.0000
  S   S6        1.0  0.1158657690843086  0.5594762241741763  0.4950805159683825  1.0000
  N   N1        1.0  0.7464173093703936  0.37572872395623585  0.14101792093858026  1.0000
  N   N2        1.0  0.24641040497314753  0.375726404086187  0.858990897115774  1.0000
  N   N3        1.0  0.08303010125096219  0.4029851945786333  0.2497156266545133  1.0000
  N   N4        1.0  0.5830174559807875  0.4029808781442483  0.7502880829156242  1.0000
  N   N5        1.0  0.7592378635715208  0.41141449824019116  0.35702178934940326  1.0000
  N   N6        1.0  0.2592251779974575  0.4114079446967551  0.6429846419857128  1.0000
  N   N7        1.0  0.3681237299511367  0.898806430886118  0.0816140493642266  1.0000
  N   N8        1.0  0.868125548571747  0.898797154660997  0.918385860922456  1.0000
  N   N9        1.0  0.36621258003086865  0.9178402507420813  0.41309079036638263  1.0000
  N   N10       1.0  0.8662083824131843  0.9178389698304558  0.5869086630882023  1.0000
  N   N11       1.0  0.8525455032563655  0.0911920263554649  0.25278202740175  1.0000
  N   N12       1.0  0.352546423224382  0.0911942731097568  0.7472175496466988  1.0000
