data_image0
_chemical_formula_structural       Al2H14C26N2O18
_chemical_formula_sum              "Al2 H14 C26 N2 O18"
_cell_length_a       6.819229154740569
_cell_length_b       11.137938663309175
_cell_length_c       15.398994494593579
_cell_angle_alpha    82.44322596498084
_cell_angle_beta     75.64375047406745
_cell_angle_gamma    71.22639229877645

_space_group_name_H-M_alt    "P 1"
_space_group_IT_number       1

loop_
  _space_group_symop_operation_xyz
  'x, y, z'

loop_
  _atom_site_type_symbol
  _atom_site_label
  _atom_site_symmetry_multiplicity
  _atom_site_fract_x
  _atom_site_fract_y
  _atom_site_fract_z
  _atom_site_occupancy
  Al  Al1       1.0  0.4979684687357704  0.491943391878884  0.5097611802907663  1.0000
  Al  Al2       1.0  0.0004716064215344075  0.4867086751848362  0.5106206199674617  1.0000
  H   H1        1.0  0.23966303370668388  0.40399901144346717  0.6149510885064657  1.0000
  H   H2        1.0  0.7192178001700358  0.6273627072082346  0.43654719532138125  1.0000
  H   H3        1.0  0.8513936184809836  0.4690290918813177  0.9406159147057097  1.0000
  H   H4        1.0  0.15564835129874405  0.4843188745187277  0.07762681458319776  1.0000
  H   H5        1.0  0.6852611709464823  0.5216637864450534  0.2330351134550028  1.0000
  H   H6        1.0  0.7565450210776349  0.5446792198428128  0.06647194566014042  1.0000
  H   H7        1.0  0.26046577947859384  0.5751021208749947  0.7825898867654216  1.0000
  H   H8        1.0  0.17851575478574963  0.5821752083047398  0.9486189161871721  1.0000
  H   H9        1.0  0.2528058425472466  0.22625466831557617  0.3830814307186543  1.0000
  H   H10       1.0  0.45457395621957636  0.7600793955865797  0.3690709653590289  1.0000
  H   H11       1.0  0.7676077284780547  0.7798509532200412  0.5499609524484584  1.0000
  H   H12       1.0  0.5624324080351573  0.20932789081331282  0.5453702054735386  1.0000
  H   H13       1.0  0.5757398550560495  0.210045428245671  0.2918389623854551  1.0000
  H   H14       1.0  0.7641161919972389  0.7784253228009773  0.2729351699041445  1.0000
  C   C1        1.0  0.8777258349713082  0.26289606084775125  0.497579070574659  1.0000
  C   C2        1.0  0.6444673042153257  0.50821082479775  0.6692732043297056  1.0000
  C   C3        1.0  0.1301354981048419  0.7195838617873135  0.4968401135101459  1.0000
  C   C4        1.0  0.34669435027119994  0.48464551453828625  0.3492065013365034  1.0000
  C   C5        1.0  0.595393880250434  0.5219472583068308  0.7682919648948854  1.0000
  C   C6        1.0  0.3859687685987793  0.4937581506283094  0.24897279408747156  1.0000
  C   C7        1.0  0.7556601506186454  0.5005625493558978  0.8153923652978463  1.0000
  C   C8        1.0  0.7174022368564795  0.49458531746596185  0.9082370435815719  1.0000
  C   C9        1.0  0.23665902260155755  0.4897440605662453  0.20246454815149656  1.0000
  C   C10       1.0  0.27404243658783417  0.49537919313728196  0.1095362076819129  1.0000
  C   C11       1.0  0.5741886173954998  0.5120502746176142  0.19688288985727098  1.0000
  C   C12       1.0  0.612055133447221  0.5238673867181021  0.10392289542416931  1.0000
  C   C13       1.0  0.38711437071135896  0.5513856372336434  0.8189729482692272  1.0000
  C   C14       1.0  0.34348713936712033  0.5531209135189812  0.9119376769582458  1.0000
  C   C15       1.0  0.5078424245362215  0.5198812253432478  0.9588654196896371  1.0000
  C   C16       1.0  0.4650178434832457  0.5128604257601593  0.05787041462047427  1.0000
  C   C17       1.0  0.9410271522741951  0.12736916410596416  0.4809051665894444  1.0000
  C   C18       1.0  0.15162422769549275  0.059976661882039706  0.43275627027409047  1.0000
  C   C19       1.0  0.7901537464940847  0.0619608202006461  0.515083674473658  1.0000
  C   C20       1.0  0.2958543224581975  0.12360932910793566  0.3821360132096529  1.0000
  C   C21       1.0  0.48893116505499995  0.06032697319527358  0.3297462917694816  1.0000
  C   C22       1.0  0.06473581930204377  0.8578422311847262  0.4796571673072734  1.0000
  C   C23       1.0  0.8536930507694868  0.9261071508313277  0.5157518247254486  1.0000
  C   C24       1.0  0.21238798534156428  0.9246062464963174  0.4305027958030152  1.0000
  C   C25       1.0  0.40999966234277024  0.8621416490143758  0.37520204015374486  1.0000
  C   C26       1.0  0.5469895543352623  0.9268719271118682  0.32520045141103526  1.0000
  N   N1        1.0  0.9731370358832483  0.4944772945328494  0.7665587890346329  1.0000
  N   N2        1.0  0.02610016896890946  0.48294145167859875  0.2515858420136894  1.0000
  O   O1        1.0  0.6747730140300308  0.3218778877167452  0.5186294894471074  1.0000
  O   O2        1.0  0.8405126634786484  0.4820534961467402  0.6305794616083276  1.0000
  O   O3        1.0  0.9830769121328089  0.6630629230154951  0.5169238730706169  1.0000
  O   O4        1.0  0.5017369420064455  0.4703086524511732  0.3850830373779742  1.0000
  O   O5        1.0  0.3257331425266373  0.6604674974818109  0.49329782105748887  1.0000
  O   O6        1.0  0.15658827074439335  0.4930319769909487  0.3899259596928886  1.0000
  O   O7        1.0  0.017032922184704143  0.31732705445983805  0.49510920534872577  1.0000
  O   O8        1.0  0.49147417710092617  0.5190278845614243  0.6329023788411163  1.0000
  O   O9        1.0  0.2571027045872825  0.4328142820902912  0.5516989730830772  1.0000
  O   O10       1.0  0.7420686586413369  0.5464274977602414  0.4707484071191743  1.0000
  O   O11       1.0  0.9987929390012552  0.5985762915762578  0.7375151635265524  1.0000
  O   O12       1.0  0.1135645676671543  0.39068561037545635  0.7615004978499583  1.0000
  O   O13       1.0  0.8876611351713425  0.587053164425498  0.26750614713998283  1.0000
  O   O14       1.0  0.996961253770195  0.37823441130345975  0.2685085112481644  1.0000
  O   O15       1.0  0.700890481156506  0.8731028570613756  0.556725242496249  1.0000
  O   O16       1.0  0.5853904502741758  0.11569581041869269  0.5531027368402874  1.0000
  O   O17       1.0  0.6299071437322823  0.120381892772798  0.2793248191810207  1.0000
  O   O18       1.0  0.7373147087335145  0.8702591327678132  0.2699488193160704  1.0000
