data_image0
_chemical_formula_structural       In2H28C48N4O10
_chemical_formula_sum              "In2 H28 C48 N4 O10"
_cell_length_a       7.324502480262005
_cell_length_b       16.87599938050651
_cell_length_c       17.19778579901514
_cell_angle_alpha    89.99989135275632
_cell_angle_beta     90.00012876241111
_cell_angle_gamma    102.54647620511294

_space_group_name_H-M_alt    "P 1"
_space_group_IT_number       1

loop_
  _space_group_symop_operation_xyz
  'x, y, z'

loop_
  _atom_site_type_symbol
  _atom_site_label
  _atom_site_symmetry_multiplicity
  _atom_site_fract_x
  _atom_site_fract_y
  _atom_site_fract_z
  _atom_site_occupancy
  In  In1       1.0  0.49999984608791687  0.49999907362126084  0.500000188251768  1.0000
  In  In2       1.0  2.448538523923114e-06  0.5000012149923095  0.4999993653543983  1.0000
  H   H1        1.0  0.18871112966944278  0.37754159367187173  0.4999995706171347  1.0000
  H   H2        1.0  0.8112870465903512  0.6224589816457639  0.5000002244131991  1.0000
  H   H3        1.0  0.500000726115097  1.4534848417999956e-06  0.0630932472740682  1.0000
  H   H4        1.0  0.4999977538251484  0.9999997288862231  0.9369071292260573  1.0000
  H   H5        1.0  0.3445536903150526  0.6888925615052489  0.0784264808266499  1.0000
  H   H6        1.0  0.6554409303309471  0.3111080419671453  0.0784264016009573  1.0000
  H   H7        1.0  0.3445580038875136  0.6888913193127097  0.9215739749010795  1.0000
  H   H8        1.0  0.6554417553146977  0.31110801367113794  0.921573895672573  1.0000
  H   H9        1.0  0.4590211983794816  0.9180910390791582  0.2973399689051845  1.0000
  H   H10       1.0  0.5409868403868785  0.08190680699517831  0.2973407878871228  1.0000
  H   H11       1.0  0.45901998204907096  0.918091947652343  0.7026607515596981  1.0000
  H   H12       1.0  0.5409801627911718  0.08190771528763462  0.7026604075985929  1.0000
  H   H13       1.0  0.683543607249  0.7799875276251885  0.2097737008188503  1.0000
  H   H14       1.0  0.3164549391919352  0.22001409216475312  0.2097746269886471  1.0000
  H   H15       1.0  0.09627823914978242  0.7800727522390218  0.7900998683050489  1.0000
  H   H16       1.0  0.9037175936850089  0.21992556462005552  0.7900967099993892  1.0000
  H   H17       1.0  0.3164562380030134  0.2200136548175919  0.7902249312713252  1.0000
  H   H18       1.0  0.6835452097392364  0.7799876973318975  0.790224005101102  1.0000
  H   H19       1.0  0.9037190260790597  0.21992600191481426  0.2099028340775675  1.0000
  H   H20       1.0  0.09627921726170992  0.7800750106262981  0.20990424797069812  1.0000
  H   H21       1.0  0.6303225677087881  0.6752985358816943  0.3155449470407206  1.0000
  H   H22       1.0  0.3696793333119643  0.32470049651357163  0.315547473860491  1.0000
  H   H23       1.0  0.044681901219902835  0.675371255887896  0.6843241148823722  1.0000
  H   H24       1.0  0.9553158852020547  0.3246266134537735  0.6843213926913095  1.0000
  H   H25       1.0  0.3696807661293349  0.3247014326654352  0.6844525221118616  1.0000
  H   H26       1.0  0.6303205119413491  0.6753006859287752  0.6844517396998883  1.0000
  H   H27       1.0  0.9553158182884546  0.32462567717428936  0.315679168972359  1.0000
  H   H28       1.0  0.04468471801123281  0.6753733549503594  0.3156789838109688  1.0000
  C   C1        1.0  0.42532434481783105  0.8508138020103148  0.1416606720087046  1.0000
  C   C2        1.0  0.5746732894459825  0.14918670631318073  0.1416613981065922  1.0000
  C   C3        1.0  0.42532594845032895  0.8508132620209851  0.858338396924822  1.0000
  C   C4        1.0  0.5746741351198139  0.14918738036163154  0.8583385415510068  1.0000
  C   C5        1.0  0.4131303047991892  0.8259198092976093  0.0633110682889679  1.0000
  C   C6        1.0  0.5868631865677542  0.1740814239354478  0.0633117597528141  1.0000
  C   C7        1.0  0.4131322590606956  0.8259191512413793  0.9366880352762054  1.0000
  C   C8        1.0  0.5868640791927362  0.1740813728626875  0.9366887267389714  1.0000
  C   C9        1.0  0.3705445860023389  0.7408375837186512  0.039559813648530506  1.0000
  C   C10       1.0  0.6294498607096203  0.2591630783223522  0.0395603876289172  1.0000
  C   C11       1.0  0.3705472539136494  0.7408381039787457  0.9604394074003436  1.0000
  C   C12       1.0  0.6294491906312842  0.25916238433389793  0.9604399813802473  1.0000
  C   C13       1.0  0.46568195560472236  0.9313983646428526  0.1679948204073582  1.0000
  C   C14       1.0  0.5343223194100234  0.06860149729470781  0.16799623923089513  1.0000
  C   C15       1.0  0.4656843524255548  0.9313996854983345  0.8320047187433843  1.0000
  C   C16       1.0  0.5343156132954618  0.06860099656747562  0.8320043931536177  1.0000
  C   C17       1.0  0.479118730945757  0.9582798637580228  0.24738351012739915  1.0000
  C   C18       1.0  0.5208899952925139  0.0417198787588973  0.2473838031491411  1.0000
  C   C19       1.0  0.4791160691860625  0.9582800899259711  0.7526177362961803  1.0000
  C   C20       1.0  0.5208846029001678  0.041720104786470806  0.7526174478464043  1.0000
  C   C21       1.0  0.3933980988120283  0.787020284664692  0.20344134365518585  1.0000
  C   C22       1.0  0.6065998119327958  0.2129801305596715  0.2034425631313965  1.0000
  C   C23       1.0  0.39340079127919125  0.7870198378448949  0.7965572319006782  1.0000
  C   C24       1.0  0.6065997737647068  0.21297968360038774  0.7965567069649566  1.0000
  C   C25       1.0  0.5436031350775181  0.7571155926246221  0.2332580731265281  1.0000
  C   C26       1.0  0.45639703237525703  0.2428835637014188  0.23325909180300639  1.0000
  C   C27       1.0  0.21332766324063354  0.7571473300858074  0.7666672784799928  1.0000
  C   C28       1.0  0.7866715533225701  0.24284980818622154  0.7666662902851584  1.0000
  C   C29       1.0  0.4563974681318683  0.24288437578082517  0.7667405589651395  1.0000
  C   C30       1.0  0.5436035708380302  0.7571164047027139  0.7667412846992647  1.0000
  C   C31       1.0  0.7866703599416738  0.24285021003200313  0.23333367949350506  1.0000
  C   C32       1.0  0.2133273808958904  0.7571495530936334  0.2333340862168782  1.0000
  C   C33       1.0  0.5146960549352854  0.6990107882511439  0.2921052237541631  1.0000
  C   C34       1.0  0.485304375870463  0.30098827939635703  0.2921067434981951  1.0000
  C   C35       1.0  0.18400890050860136  0.6990334875958412  0.7078289301179055  1.0000
  C   C36       1.0  0.815987625787166  0.30096434625509266  0.70782669895857  1.0000
  C   C37       1.0  0.48530591358846925  0.3009891802251446  0.7078928268679618  1.0000
  C   C38       1.0  0.5146948620245481  0.6990116889382492  0.7078924700630154  1.0000
  C   C39       1.0  0.8159891226750063  0.300964052521529  0.292172609325796  1.0000
  C   C40       1.0  0.1840126737430624  0.6990350150964776  0.2921719331335169  1.0000
  C   C41       1.0  0.3347448717469135  0.6697938429089519  0.3221154227451919  1.0000
  C   C42       1.0  0.6652553896824217  0.33020457246106366  0.32211764327379916  1.0000
  C   C43       1.0  0.3347426335024863  0.6697929676558658  0.677884477640106  1.0000
  C   C44       1.0  0.6652574004559854  0.33020673262119976  0.6778826278765138  1.0000
  C   C45       1.0  0.3037837831075906  0.6077304329750178  0.38556665713834093  1.0000
  C   C46       1.0  0.6962214655828518  0.39226910109784546  0.3855687918694103  1.0000
  C   C47       1.0  0.30378050294740416  0.6077308673762545  0.6144321661037253  1.0000
  C   C48       1.0  0.696219550733133  0.3922695355712307  0.6144319749546413  1.0000
  N   N1        1.0  0.4383460342185684  0.876463012192076  0.9999990575137546  1.0000
  N   N2        1.0  0.5616480460929054  0.123537562914791  1.5604440759999998e-07  1.0000
  N   N3        1.0  0.5000022241448789  1.4088665736000053e-06  0.1224043709230429  1.0000
  N   N4        1.0  0.49999951433171225  2.325927041999969e-07  0.8775969376749586  1.0000
  O   O1        1.0  0.4475648283296961  0.5841349689183558  0.4099844267920076  1.0000
  O   O2        1.0  0.5524388606356325  0.4158639212359674  0.4099846342756308  1.0000
  O   O3        1.0  0.1364348465511965  0.5841770655352646  0.5899533746481822  1.0000
  O   O4        1.0  0.8635673739382386  0.4158251955309425  0.5899544641366319  1.0000
  O   O5        1.0  0.5524368365201084  0.4158643925023002  0.5900159497113435  1.0000
  O   O6        1.0  0.4475631078920231  0.5841360472390066  0.5900151607571047  1.0000
  O   O7        1.0  0.8635640876685642  0.41582229574415663  0.4100475833240581  1.0000
  O   O8        1.0  0.13643550562817813  0.5841765941052018  0.4100459123650495  1.0000
  O   O9        1.0  0.21823745570103634  0.43635722737594324  0.500000111522347  1.0000
  O   O10       1.0  0.781763147512244  0.5636427410281828  0.5000002649799313  1.0000
