data_image0
_chemical_formula_structural       Mn4H48C28O20
_chemical_formula_sum              "Mn4 H48 C28 O20"
_cell_length_a       6.7998544269618355
_cell_length_b       10.795931663128027
_cell_length_c       12.901734464483903
_cell_angle_alpha    89.99961666459336
_cell_angle_beta     105.28878837541637
_cell_angle_gamma    90.00049426387828

_space_group_name_H-M_alt    "P 1"
_space_group_IT_number       1

loop_
  _space_group_symop_operation_xyz
  'x, y, z'

loop_
  _atom_site_type_symbol
  _atom_site_label
  _atom_site_symmetry_multiplicity
  _atom_site_fract_x
  _atom_site_fract_y
  _atom_site_fract_z
  _atom_site_occupancy
  Mn  Mn1       1.0  0.6409866932317951  0.2847883484411682  0.9999200294887345  1.0000
  Mn  Mn2       1.0  0.8590089301984634  0.7847868543809398  7.45329893873879e-05  1.0000
  Mn  Mn3       1.0  0.3590119835732111  0.7152111361803365  7.88649657010919e-05  1.0000
  Mn  Mn4       1.0  0.14098669749894546  0.2152135565088429  0.9999239298879347  1.0000
  H   H1        1.0  0.8441872063680264  0.5916815846469206  0.2508905931381946  1.0000
  H   H2        1.0  0.655813744966757  0.09168053993010258  0.7491096823459529  1.0000
  H   H3        1.0  0.4066058547789452  0.40832984386196347  0.250885741034935  1.0000
  H   H4        1.0  0.0933935659480838  0.9083283051196815  0.7491152999633286  1.0000
  H   H5        1.0  0.15581297189881838  0.40831697369364406  0.7491108391360157  1.0000
  H   H6        1.0  0.34418642560365936  0.9083180184073356  0.2508925239383544  1.0000
  H   H7        1.0  0.5933958711498946  0.5916714933158147  0.7491135849911148  1.0000
  H   H8        1.0  0.9066035940076631  0.09167303205136788  0.250882604689707  1.0000
  H   H9        1.0  0.9313353524226855  0.47454194240329883  0.3463817501788071  1.0000
  H   H10       1.0  0.5686669926358333  0.9745419612697219  0.653619674998602  1.0000
  H   H11       1.0  0.4148999424914947  0.5254763903412467  0.3463494422964644  1.0000
  H   H12       1.0  0.0850996322441517  0.025474799954686503  0.6536483427365595  1.0000
  H   H13       1.0  0.0686694072046805  0.5254556896753968  0.6536195554500567  1.0000
  H   H14       1.0  0.43133624245125907  0.025458449630235705  0.3463814148371256  1.0000
  H   H15       1.0  0.5851018142338519  0.47452679939873843  0.6536467876855241  1.0000
  H   H16       1.0  0.9148990445770905  0.97452746349137  0.3463505517123836  1.0000
  H   H17       1.0  0.9791673487690886  0.6843439150597987  0.4306008507225414  1.0000
  H   H18       1.0  0.5208362021633235  0.1843435767485175  0.5694000479436099  1.0000
  H   H19       1.0  0.4515137945882586  0.31573140090497986  0.43062355018778936  1.0000
  H   H20       1.0  0.04849216692514351  0.8157282805166446  0.5693789361133668  1.0000
  H   H21       1.0  0.0208343694579227  0.3156564958400024  0.5693992493154455  1.0000
  H   H22       1.0  0.4791685420874359  0.815656834148477  0.43060280569994813  1.0000
  H   H23       1.0  0.5484940218918339  0.6842736413822266  0.5693774129915924  1.0000
  H   H24       1.0  0.9515065175925129  0.18427398293253822  0.4306191843254723  1.0000
  H   H25       1.0  0.1330906925835507  0.7305871480928301  0.3461494250191635  1.0000
  H   H26       1.0  0.3669127725883071  0.230586164596147  0.6538508603292286  1.0000
  H   H27       1.0  0.21310335044935869  0.2694006747044567  0.3462143906086226  1.0000
  H   H28       1.0  0.2869005220765644  0.7694009544632008  0.6537903852338971  1.0000
  H   H29       1.0  0.8669095087779581  0.2694123365319641  0.6538496852229088  1.0000
  H   H30       1.0  0.6330904548023639  0.7694142463006911  0.34615100351659583  1.0000
  H   H31       1.0  0.7869029183633174  0.7306006624706782  0.6537886788207459  1.0000
  H   H32       1.0  0.7130966301881685  0.23060130897957268  0.3462082934274022  1.0000
  H   H33       1.0  0.220390948453776  0.614524747676917  0.4456895256499963  1.0000
  H   H34       1.0  0.2796111682596987  0.11452408717615012  0.5543104448833205  1.0000
  H   H35       1.0  0.22538500938546946  0.3855292399015298  0.4456870425617154  1.0000
  H   H36       1.0  0.2746187109000431  0.885528398137062  0.5543155100177515  1.0000
  H   H37       1.0  0.7796107774642423  0.38547473695116  0.5543098003797198  1.0000
  H   H38       1.0  0.720392074523815  0.8854763237269407  0.44568987094230295  1.0000
  H   H39       1.0  0.7746212825326992  0.6144748761075363  0.5543137048318627  1.0000
  H   H40       1.0  0.7253784413646898  0.1144738653057118  0.44568316864354773  1.0000
  H   H41       1.0  0.3503152712784754  0.4382982171538572  0.06231461712957301  1.0000
  H   H42       1.0  0.149682990471554  0.9382991774850422  0.9376845414873857  1.0000
  H   H43       1.0  0.7119919689118106  0.561636403715859  0.0622917476997316  1.0000
  H   H44       1.0  0.7880070990958857  0.06163456612478771  0.9377092048808466  1.0000
  H   H45       1.0  0.6496834055319455  0.561702193742505  0.9376842773230294  1.0000
  H   H46       1.0  0.8503141540859432  0.06170123340490361  0.062314911187677104  1.0000
  H   H47       1.0  0.2880067002021888  0.43836400717736973  0.9377079207629749  1.0000
  H   H48       1.0  0.2119900454507899  0.9383639922154571  0.06229024779788261  1.0000
  C   C1        1.0  0.9981037039570353  0.40097535162005454  0.15814719080365341  1.0000
  C   C2        1.0  0.5018779391183728  0.9009660867070154  0.8418540422459984  1.0000
  C   C3        1.0  0.1599506617284803  0.5989985906753789  0.15822686075897252  1.0000
  C   C4        1.0  0.34006197628998086  0.09900521628320999  0.8417715856615475  1.0000
  C   C5        1.0  0.0018964820062236998  0.5990232067236362  0.8418534674604602  1.0000
  C   C6        1.0  0.4981222622269073  0.0990306190932202  0.15814506800157346  1.0000
  C   C7        1.0  0.840047991998091  0.4010027464864478  0.8417743557221016  1.0000
  C   C8        1.0  0.6599382173696996  0.9009933420636003  0.1582282985924621  1.0000
  C   C9        1.0  0.11825410578838812  0.49997289680977264  0.2367057834091142  1.0000
  C   C10       1.0  0.38174487660151607  0.9999718884573455  0.763293131198644  1.0000
  C   C11       1.0  0.8817476124332088  0.5000265878151778  0.7632943166306987  1.0000
  C   C12       1.0  0.6182522833325803  2.5743614287400004e-05  0.2367047734617174  1.0000
  C   C13       1.0  0.9823001656174241  0.5524864236604685  0.3049282101743387  1.0000
  C   C14       1.0  0.5177018599947516  0.05248691277228091  0.6950716621581989  1.0000
  C   C15       1.0  0.3225125025099089  0.44750341423435447  0.30490748702490583  1.0000
  C   C16       1.0  0.17748890820205787  0.9475018405360556  0.6950928407624984  1.0000
  C   C17       1.0  0.017701544902344296  0.44751213468650514  0.6950726638774114  1.0000
  C   C18       1.0  0.4822998505304241  0.9475125718495435  0.3049292118917108  1.0000
  C   C19       1.0  0.6774907556664473  0.5524969966749822  0.6950912807805167  1.0000
  C   C20       1.0  0.8225097763101914  0.05249949663827639  0.3049052796781737  1.0000
  C   C21       1.0  0.08563098371168823  0.6505168810604615  0.3862403993421637  1.0000
  C   C22       1.0  0.41437154585947417  0.15051555134058248  0.6137602028013163  1.0000
  C   C23       1.0  0.3006452664115429  0.3495050016797663  0.3862527562534765  1.0000
  C   C24       1.0  0.19935803294105628  0.849504199568109  0.613749938854184  1.0000
  C   C25       1.0  0.9143707268134875  0.34948260356136984  0.6137604747077533  1.0000
  C   C26       1.0  0.5856316815312042  0.8494848595562559  0.386241661044508  1.0000
  C   C27       1.0  0.6993610177993901  0.6504972617764722  0.6137487651538649  1.0000
  C   C28       1.0  0.8006391270146906  0.15049713760293323  0.38624796579884463  1.0000
  O   O1        1.0  0.34814366962567084  0.3824382244041971  0.9999940150111543  1.0000
  O   O2        1.0  0.1518508749216565  0.8824411603568907  6.481054356303029e-06  1.0000
  O   O3        1.0  0.6518549994883285  0.6175621864890389  5.6534515450408575e-06  1.0000
  O   O4        1.0  0.8481478018779425  0.1175573979897635  0.9999924134019125  1.0000
  O   O5        1.0  0.8079504772727475  0.4206750175137799  0.11572364422545424  1.0000
  O   O6        1.0  0.6920557889337786  0.9206729318822513  0.8842809634713902  1.0000
  O   O7        1.0  0.3076927175619843  0.579261172187131  0.11583613905801117  1.0000
  O   O8        1.0  0.19229981667076854  0.0792592428777894  0.88416499830101  1.0000
  O   O9        1.0  0.19204970099950464  0.5793244671016353  0.8842777880469157  1.0000
  O   O10       1.0  0.3079367742361327  0.0793237738953039  0.11571861585817797  1.0000
  O   O11       1.0  0.6923074761031102  0.4207383124345371  0.8841637451941651  1.0000
  O   O12       1.0  0.8076957956067402  0.9207365366314801  0.11583501260567167  1.0000
  O   O13       1.0  0.09296179626225859  0.3082917673123759  0.13581655409439722  1.0000
  O   O14       1.0  0.4070334372900176  0.8083021290036212  0.8641813550607864  1.0000
  O   O15       1.0  0.042943345991623985  0.6917814607416588  0.135951205035731  1.0000
  O   O16       1.0  0.45704445091156737  0.19177094562834182  0.8640439799476666  1.0000
  O   O17       1.0  0.9070353482844098  0.6917067910278618  0.8641828985843321  1.0000
  O   O18       1.0  0.5929591489745647  0.19169550305816332  0.13581590223665777  1.0000
  O   O19       1.0  0.9570553000222902  0.30821709759248955  0.8640507854609326  1.0000
  O   O20       1.0  0.5429496291076034  0.8082239075996681  0.1359565891833086  1.0000
