data_image0
_chemical_formula_structural       Mn2H24C16N20O4
_chemical_formula_sum              "Mn2 H24 C16 N20 O4"
_cell_length_a       8.584445954344137
_cell_length_b       9.611789711471877
_cell_length_c       10.220252712062022
_cell_angle_alpha    106.15550057496147
_cell_angle_beta     101.83422379584853
_cell_angle_gamma    117.18892630426447

_space_group_name_H-M_alt    "P 1"
_space_group_IT_number       1

loop_
  _space_group_symop_operation_xyz
  'x, y, z'

loop_
  _atom_site_type_symbol
  _atom_site_label
  _atom_site_symmetry_multiplicity
  _atom_site_fract_x
  _atom_site_fract_y
  _atom_site_fract_z
  _atom_site_occupancy
  Mn  Mn1       1.0  0.9205384325939788  0.5092818982409569  0.7373197471016936  1.0000
  Mn  Mn2       1.0  0.68275382106566  0.7717548041138758  0.26259310491902  1.0000
  H   H1        1.0  0.528150082926139  0.03714809541173739  0.2884294272710051  1.0000
  H   H2        1.0  0.7392568158708028  0.7483586826316824  0.7113929743936253  1.0000
  H   H3        1.0  0.9552051151511735  0.6114760534073654  0.21200853113870724  1.0000
  H   H4        1.0  0.24317063638689268  0.3994395655531521  0.7879983470523014  1.0000
  H   H5        1.0  0.23780750708326792  0.0909988269799769  0.4271850514021267  1.0000
  H   H6        1.0  0.31021353894075787  0.6640009544534848  0.5728357110993016  1.0000
  H   H7        1.0  0.27862715284206274  0.0390441744993808  0.26215231065482675  1.0000
  H   H8        1.0  0.5160269111847313  0.77650804106856  0.7378270412696963  1.0000
  H   H9        1.0  0.1603347868382983  0.23471160932426474  0.28282617343723615  1.0000
  H   H10       1.0  0.37810907963036294  0.9524400270977083  0.7174139064622905  1.0000
  H   H11       1.0  0.3958342331745115  0.3463007017391604  0.2894987254687961  1.0000
  H   H12       1.0  0.6068745495306728  0.0567092325007579  0.7105871990600717  1.0000
  H   H13       1.0  0.3524165007903406  0.3903594866500697  0.4551850409163691  1.0000
  H   H14       1.0  0.397759060546157  0.9355051557247548  0.5450129344416367  1.0000
  H   H15       1.0  0.08376739429909469  0.45210797660981683  0.2306262710720759  1.0000
  H   H16       1.0  0.3528875758814038  0.22125414217867967  0.7696830276872219  1.0000
  H   H17       1.0  0.043892316673826315  0.28928688465762065  0.06760512782320659  1.0000
  H   H18       1.0  0.4756682268189182  0.22142488149409448  0.9328795150969924  1.0000
  H   H19       1.0  0.8301406069527244  0.15423591783250157  0.18892784777462163  1.0000
  H   H20       1.0  0.1407279576170311  0.9650484532020158  0.811087150623436  1.0000
  H   H21       1.0  0.6932139172375216  0.11949331906134832  0.01497886903239732  1.0000
  H   H22       1.0  0.1773882789850703  0.10393835386091871  0.9849805496815235  1.0000
  H   H23       1.0  0.7327895842347586  0.2816750620876718  0.17907722827018788  1.0000
  H   H24       1.0  0.05308544732127981  0.1022097462485263  0.8208845945152276  1.0000
  C   C1        1.0  0.78309304787782  0.16152587914573496  0.4661567534813925  1.0000
  C   C2        1.0  0.8166308081824596  0.6953238275753437  0.5337567768829032  1.0000
  C   C3        1.0  0.5284142693367357  0.21081629186618048  0.46335947020055096  1.0000
  C   C4        1.0  0.5645209539957817  0.747205758763499  0.5365596185401529  1.0000
  C   C5        1.0  0.3284681072748228  0.14473081002547872  0.3692579744179553  1.0000
  C   C6        1.0  0.45890736968990364  0.7753523898723602  0.6308140524057606  1.0000
  C   C7        1.0  0.3093580238802218  0.2884485783598906  0.34798190980725247  1.0000
  C   C8        1.0  0.4617710303274336  0.9406460411136736  0.6521838127545578  1.0000
  C   C9        1.0  0.8762828890177518  0.6641724785424259  0.03598384672829982  1.0000
  C   C10       1.0  0.34037421134593865  0.6282565010606547  0.9638958859434154  1.0000
  C   C11       1.0  0.934370312499958  0.43651072178753486  0.02529850333743157  1.0000
  C   C12       1.0  0.40846942285320864  0.410913819303474  0.9748456868899497  1.0000
  C   C13       1.0  0.9796227126001186  0.3530544797102735  0.11879284638176556  1.0000
  C   C14       1.0  0.3602827216467404  0.23396747739630547  0.8814534192464761  1.0000
  C   C15       1.0  0.7976005040960246  0.21968863918876025  0.12595138529689354  1.0000
  C   C16       1.0  0.17102349848769893  0.0933874779965436  0.8740889091987327  1.0000
  N   N1        1.0  0.9241540733541741  0.2981032088197253  0.590898697205553  1.0000
  N   N2        1.0  0.8327844386465771  0.7070373639137062  0.40892879736355076  1.0000
  N   N3        1.0  0.06600401704750426  0.2697022427915386  0.6134348727177539  1.0000
  N   N4        1.0  0.9523199282607423  0.6563378054015632  0.3864690467390304  1.0000
  N   N5        1.0  0.013969577611050015  0.1241583762425051  0.5088663905802021  1.0000
  N   N6        1.0  0.005109596400750083  0.6155959979601632  0.49115024390420087  1.0000
  N   N7        1.0  0.8352346562261271  0.05161844871165751  0.41247040076397207  1.0000
  N   N8        1.0  0.9227413081047969  0.6393611899322167  0.5875488465378993  1.0000
  N   N9        1.0  0.6082877464500667  0.13244752267614507  0.3986649717349664  1.0000
  N   N10       1.0  0.7091308597270752  0.73351430631822  0.6011645897498211  1.0000
  N   N11       1.0  0.8529933047313135  0.6506487927595969  0.8982043851583582  1.0000
  N   N12       1.0  0.4546522526256285  0.7524180012651204  0.10169312446979728  1.0000
  N   N13       1.0  0.8034050245630411  0.7632923185320454  0.8876175197557643  1.0000
  N   N14       1.0  0.4159051278915271  0.8758102916592634  0.11209648778550023  1.0000
  N   N15       1.0  0.9311851552611615  0.5764268779259751  0.09903505413932125  1.0000
  N   N16       1.0  0.33196625219199666  0.47729090645734124  0.9009798704600057  1.0000
  N   N17       1.0  0.7962019698739766  0.8402735120885865  0.011187623826870633  1.0000
  N   N18       1.0  0.2854509139888036  0.8293469063728052  0.9883797252501053  1.0000
  N   N19       1.0  0.8406737104849429  0.7800009089722836  0.10876969400225528  1.0000
  N   N20       1.0  0.23230188542797242  0.6714542408288936  0.8908969333534174  1.0000
  O   O1        1.0  0.895938650321959  0.375821491053742  0.8891800928206447  1.0000
  O   O2        1.0  0.5059450466877493  0.4862802729497844  0.11098566207346038  1.0000
  O   O3        1.0  0.6119749624087094  0.3280405197337048  0.5923892709914469  1.0000
  O   O4        1.0  0.5191480570279126  0.7357161328067008  0.40761851864693444  1.0000
