data_image0
_chemical_formula_structural       Mn2H38C46N6O14
_chemical_formula_sum              "Mn2 H38 C46 N6 O14"
_cell_length_a       7.203234593138392
_cell_length_b       10.020114401091659
_cell_length_c       15.5357
_cell_angle_alpha    95.2253282014606
_cell_angle_beta     92.0964959832953
_cell_angle_gamma    110.586106733064

_space_group_name_H-M_alt    "P 1"
_space_group_IT_number       1

loop_
  _space_group_symop_operation_xyz
  'x, y, z'

loop_
  _atom_site_type_symbol
  _atom_site_label
  _atom_site_symmetry_multiplicity
  _atom_site_fract_x
  _atom_site_fract_y
  _atom_site_fract_z
  _atom_site_occupancy
  Mn  Mn1       1.0  0.2844500391126346  0.645135827365479  0.31279449485876404  1.0000
  Mn  Mn2       1.0  0.7155531068690237  0.35485586719821066  0.6872046200699556  1.0000
  H   H1        1.0  0.658172565900081  0.5612436799002011  0.07200419420352942  1.0000
  H   H2        1.0  0.3418238359906383  0.43875123278540673  0.9279917769707211  1.0000
  H   H3        1.0  0.7955506586876738  0.2638398705229434  0.9075469823031599  1.0000
  H   H4        1.0  0.20446731337385415  0.7361593329918816  0.0924573309258108  1.0000
  H   H5        1.0  0.016317957892205495  0.339325210841892  0.1761526425229576  1.0000
  H   H6        1.0  0.9836861975121067  0.6606825743313676  0.8238545151487742  1.0000
  H   H7        1.0  0.3778378215619753  0.2224827131005398  0.017487721991301403  1.0000
  H   H8        1.0  0.6221839383123963  0.7775325810238554  0.9825233937495954  1.0000
  H   H9        1.0  0.5443343250617971  0.0992286437994565  0.1109175165705878  1.0000
  H   H10       1.0  0.4556812723786051  0.900776995959191  0.8890909965151794  1.0000
  H   H11       1.0  0.9951978526267881  0.9096343401734615  0.22908098670854576  1.0000
  H   H12       1.0  0.004813375343807991  0.09036808146328208  0.7709188954084496  1.0000
  H   H13       1.0  0.8335989157145178  0.0392750325441327  0.14210592215189166  1.0000
  H   H14       1.0  0.16641337297581768  0.960729534507223  0.8578960350137379  1.0000
  H   H15       1.0  0.2700210850659559  0.9156018109090738  0.4090659355389335  1.0000
  H   H16       1.0  0.7299579142392361  0.08438881094731697  0.5909256263427453  1.0000
  H   H17       1.0  0.2770287275887995  0.0015586437136149995  0.5664323478826462  1.0000
  H   H18       1.0  0.7229599447849466  0.9984459233377336  0.4335550477758474  1.0000
  H   H19       1.0  0.249682941236351  0.8303408889230965  0.6770252117696458  1.0000
  H   H20       1.0  0.7503287657970219  0.1696765506159039  0.322965261757858  1.0000
  H   H21       1.0  0.2283929411336487  0.5800857837058899  0.6261241908556131  1.0000
  H   H22       1.0  0.7716177051799706  0.4199295104185055  0.373873219125791  1.0000
  H   H23       1.0  0.20953052027295632  0.3736057181757033  0.5709779186111419  1.0000
  H   H24       1.0  0.7904490846858252  0.6263945580464281  0.429020657424104  1.0000
  H   H25       1.0  0.22262020524656384  0.14795851852652928  0.4949306657448105  1.0000
  H   H26       1.0  0.7773494734620314  0.8520385395736909  0.505069483928871  1.0000
  H   H27       1.0  0.2729683999417105  0.13801666722729064  0.33409625648144475  1.0000
  H   H28       1.0  0.727017747223478  0.8619771727510113  0.6659039834954186  1.0000
  H   H29       1.0  0.3131190227447007  0.3539773199157281  0.2592124253237884  1.0000
  H   H30       1.0  0.6868638156704279  0.6460154473552676  0.740790270235479  1.0000
  H   H31       1.0  0.5914133931000053  0.8406828600469608  0.290453514693283  1.0000
  H   H32       1.0  0.40859306163171283  0.15930990722404198  0.7095437883317857  1.0000
  H   H33       1.0  0.6619626014695612  0.7085896825557896  0.3089681412304657  1.0000
  H   H34       1.0  0.33804054451209004  0.2914020120079002  0.6910322610557601  1.0000
  H   H35       1.0  0.3397942809904606  0.5694037643664628  0.1288468050732732  1.0000
  H   H36       1.0  0.6602076023869118  0.43058256666070344  0.8711545481027372  1.0000
  H   H37       1.0  0.5090924340802871  0.5706985220831413  0.1987312523989289  1.0000
  H   H38       1.0  0.49090250332162105  0.4292878089440251  0.8012699829610312  1.0000
  C   C1        1.0  0.8619959615661231  0.5425796455070824  0.2221974950033854  1.0000
  C   C2        1.0  0.13799475695340388  0.457420630715049  0.7778032005737998  1.0000
  C   C3        1.0  0.833880615323281  0.4561151459253239  0.1354525911385593  1.0000
  C   C4        1.0  0.16611427078152727  0.5438851302968075  0.864549462485769  1.0000
  C   C5        1.0  0.7283120106127969  0.4810502272212601  0.06480022645942542  1.0000
  C   C6        1.0  0.2716884322723914  0.518950049000864  0.9352025650964964  1.0000
  C   C7        1.0  0.8039587402017503  0.31632529352349076  0.9729776829730596  1.0000
  C   C8        1.0  0.19604725946381052  0.6836749826986406  0.027026490193200914  1.0000
  C   C9        1.0  0.9135121855656012  0.2860191667533059  0.039908210596713914  1.0000
  C   C10       1.0  0.08649176795417889  0.7139854002980426  0.9600974672621662  1.0000
  C   C11       1.0  0.9280656392884338  0.3560508631355646  0.1227376388877772  1.0000
  C   C12       1.0  0.07193672315172249  0.6439504857938729  0.8772684666312998  1.0000
  C   C13       1.0  0.0995965792638671  0.1383813877108651  0.07504047532849968  1.0000
  C   C14       1.0  0.9004173005060992  0.8616263974624019  0.9249597668194268  1.0000
  C   C15       1.0  0.2984962516005965  0.1564629420375709  0.0658380031240213  1.0000
  C   C16       1.0  0.7015219976391835  0.8435480612576072  0.934168938956411  1.0000
  C   C17       1.0  0.38941126057478215  0.0870931060622695  0.117344092276241  1.0000
  C   C18       1.0  0.6106020888353072  0.9129136064036913  0.8826612272955219  1.0000
  C   C19       1.0  0.2803009323161091  0.9971415112553145  0.1760869736856776  1.0000
  C   C20       1.0  0.7197100937699548  0.0028576922595107  0.8239172217272428  1.0000
  C   C21       1.0  0.3721926208988792  0.9124416151896568  0.22530271017517123  1.0000
  C   C22       1.0  0.6278159552723397  0.0875554429105634  0.7746980992684058  1.0000
  C   C23       1.0  0.08032110436899126  0.9816462542400471  0.18452768532765873  1.0000
  C   C24       1.0  0.9196882040466294  0.0183550946893902  0.815472101219946  1.0000
  C   C25       1.0  0.9893242583668923  0.053569930085522785  0.1351767592508821  1.0000
  C   C26       1.0  0.010684191213513794  0.9464324915512137  0.8648217883821945  1.0000
  C   C27       1.0  0.26268970746628634  0.8454907341862777  0.45935832806198823  1.0000
  C   C28       1.0  0.7372825477479665  0.1545031057920241  0.5406326647802331  1.0000
  C   C29       1.0  0.26386562958145987  0.8913843707999262  0.546377295201701  1.0000
  C   C30       1.0  0.7361160968168221  0.1086201962514224  0.4536112699982411  1.0000
  C   C31       1.0  0.2493672438904184  0.7955465547903771  0.6084570038413943  1.0000
  C   C32       1.0  0.7506273890327648  0.2044644485048011  0.3915366640894007  1.0000
  C   C33       1.0  0.2398386338036076  0.6578806628516958  0.5803257127520141  1.0000
  C   C34       1.0  0.7601599648203249  0.3421271223215641  0.4196704081280842  1.0000
  C   C35       1.0  0.247694029320904  0.6185959759418224  0.4921662069011319  1.0000
  C   C36       1.0  0.7523046958938479  0.3814064456949139  0.5078341068257259  1.0000
  C   C37       1.0  0.2559183448443463  0.48323211387886283  0.456097640186556  1.0000
  C   C38       1.0  0.7440776019802087  0.5167703077578736  0.5439026264138818  1.0000
  C   C39       1.0  0.23471437771856074  0.3659669694594924  0.5023505286189689  1.0000
  C   C40       1.0  0.7652659594846227  0.6340375975918633  0.4976476681990576  1.0000
  C   C41       1.0  0.2403700219618727  0.2400579495794659  0.4596630926231526  1.0000
  C   C42       1.0  0.7596236768323764  0.7599455447645767  0.5403391298933116  1.0000
  C   C43       1.0  0.2681158226017217  0.23440907291332988  0.37075216104449993  1.0000
  C   C44       1.0  0.7318738351980656  0.7655890578941893  0.6292483905203172  1.0000
  C   C45       1.0  0.2906156500052148  0.35403953693939627  0.3281276879451339  1.0000
  C   C46       1.0  0.709369107964875  0.6459543030389057  0.6718712411110134  1.0000
  N   N1        1.0  0.7147383152048192  0.4124269955299765  0.9848810942986432  1.0000
  N   N2        1.0  0.28526298651558324  0.5875722079848485  0.015121005135547691  1.0000
  N   N3        1.0  0.2856308131027063  0.47854331025035884  0.3689152671366713  1.0000
  N   N4        1.0  0.7143617496780764  0.5214494570206369  0.6310850186500546  1.0000
  N   N5        1.0  0.2547633079539295  0.7111834888183708  0.4310427626772508  1.0000
  N   N6        1.0  0.7452371349312585  0.2888167874037606  0.5689555231274  1.0000
  O   O1        1.0  0.0021372188309740953  0.5416163543475321  0.27470410765328523  1.0000
  O   O2        1.0  0.9978540300484299  0.4583849945819054  0.7252934415363228  1.0000
  O   O3        1.0  0.7432937920484833  0.6078967932855264  0.23927791311010788  1.0000
  O   O4        1.0  0.2566939461963358  0.3921002648146938  0.7607225428853114  1.0000
  O   O5        1.0  0.011810453574540195  0.19671521093621178  0.014866831938356001  1.0000
  O   O6        1.0  0.9882088563849862  0.8032979377735714  0.9851357484031739  1.0000
  O   O7        1.0  0.24849191048608796  0.8057233289893232  0.2582369465109693  1.0000
  O   O8        1.0  0.7515242686112843  0.1942694382816725  0.7417650272078404  1.0000
  O   O9        1.0  0.5603842639150899  0.9456311791946631  0.2313396710430098  1.0000
  O   O10       1.0  0.4396240350778768  0.0543540791252042  0.7686559348340866  1.0000
  O   O11       1.0  0.5803013348730843  0.7637847642078199  0.3326786929511982  1.0000
  O   O12       1.0  0.41970287182831373  0.236209075770482  0.667319922311144  1.0000
  O   O13       1.0  0.3652184232780513  0.5576232927471025  0.19088451208523338  1.0000
  O   O14       1.0  0.6347725997201935  0.4423523112070241  0.8091140957398226  1.0000
