data_image0
_chemical_formula_structural       Cd2H8C14N8Cl2
_chemical_formula_sum              "Cd2 H8 C14 N8 Cl2"
_cell_length_a       6.996274337589655
_cell_length_b       7.549598297815846
_cell_length_c       8.467779690239961
_cell_angle_alpha    95.8741663034877
_cell_angle_beta     104.77457757055889
_cell_angle_gamma    113.60874539268187

_space_group_name_H-M_alt    "P 1"
_space_group_IT_number       1

loop_
  _space_group_symop_operation_xyz
  'x, y, z'

loop_
  _atom_site_type_symbol
  _atom_site_label
  _atom_site_symmetry_multiplicity
  _atom_site_fract_x
  _atom_site_fract_y
  _atom_site_fract_z
  _atom_site_occupancy
  Cd  Cd1       1.0  0.004751626216638305  0.21249811160861037  0.3790695412438652  1.0000
  Cd  Cd2       1.0  0.9952480484569647  0.7875015819684279  0.6209292168654413  1.0000
  H   H1        1.0  0.20403697815424235  0.07686604109868969  0.9936409679251881  1.0000
  H   H2        1.0  0.7959612573932162  0.9231336861904182  0.006355119396907627  1.0000
  H   H3        1.0  0.11561565314207908  0.5031286839461088  0.8321122980981669  1.0000
  H   H4        1.0  0.8843810605750237  0.49686802244408307  0.16788670907907735  1.0000
  H   H5        1.0  0.35590551074579935  0.513238513296116  0.1105506066308166  1.0000
  H   H6        1.0  0.6440948957677718  0.48676266585903244  0.8894484544146334  1.0000
  H   H7        1.0  0.5295069994861735  0.8240616888055854  0.3386227900893672  1.0000
  H   H8        1.0  0.47049417763432183  0.17594100908947038  0.6613742234072717  1.0000
  C   C1        1.0  0.522493773344742  0.42483596916316196  0.4610018427594085  1.0000
  C   C2        1.0  0.4775080335280252  0.5751651431181131  0.539002239558215  1.0000
  C   C3        1.0  0.47810413010029146  0.16110042530115007  0.3113121688590396  1.0000
  C   C4        1.0  0.5218962376463239  0.8389007206921946  0.6886892426713729  1.0000
  C   C5        1.0  0.378561068281634  0.9740479840466136  0.18524674532056204  1.0000
  C   C6        1.0  0.6214423134016087  0.025953210588909304  0.8147517810869118  1.0000
  C   C7        1.0  0.23928210238884168  0.9544240262751912  0.02600216146579735  1.0000
  C   C8        1.0  0.7607183041247296  0.0455771528799573  0.973996899579653  1.0000
  C   C9        1.0  0.19151589668344832  0.6347362588654307  0.9348819183020396  1.0000
  C   C10       1.0  0.8084816070240421  0.3652619828455668  0.06511386608391226  1.0000
  C   C11       1.0  0.326703881138002  0.6415316472764234  0.08971519461544372  1.0000
  C   C12       1.0  0.673294335025986  0.3584680634317863  0.910282067949133  1.0000
  C   C13       1.0  0.42193593584408257  0.8134867142295972  0.21653504829189524  1.0000
  C   C14       1.0  0.5780659097956402  0.18651443121348169  0.7834666835407731  1.0000
  N   N1        1.0  0.3630259616258869  0.2583454664520985  0.3484383776985638  1.0000
  N   N2        1.0  0.6369751134069119  0.7416541602510732  0.6515654016829231  1.0000
  N   N3        1.0  0.7245172686730825  0.43460992189525177  0.49414372946002055  1.0000
  N   N4        1.0  0.2754823814467287  0.5653867668135034  0.5058570935642166  1.0000
  N   N5        1.0  0.6961494934416166  0.26390866730118734  0.397534153419528  1.0000
  N   N6        1.0  0.30384944939202546  0.7360895406977476  0.6024643017536349  1.0000
  N   N7        1.0  0.14906437898775232  0.7892948866028744  0.9038071429987227  1.0000
  N   N8        1.0  0.850936027525819  0.2107062925522669  0.09619191804672775  1.0000
  Cl  Cl1       1.0  0.09301494363312202  0.17227815484356054  0.6915171266545243  1.0000
  Cl  Cl2       1.0  0.9069839798170422  0.8277200365744761  0.3084825037611196  1.0000
