data_image0
_chemical_formula_structural       U2H10C16N2O16
_chemical_formula_sum              "U2 H10 C16 N2 O16"
_cell_length_a       7.943054182159192
_cell_length_b       7.943068399773075
_cell_length_c       8.938088963951252
_cell_angle_alpha    101.72759469238302
_cell_angle_beta     101.72691866020568
_cell_angle_gamma    96.8611690001013

_space_group_name_H-M_alt    "P 1"
_space_group_IT_number       1

loop_
  _space_group_symop_operation_xyz
  'x, y, z'

loop_
  _atom_site_type_symbol
  _atom_site_label
  _atom_site_symmetry_multiplicity
  _atom_site_fract_x
  _atom_site_fract_y
  _atom_site_fract_z
  _atom_site_occupancy
  U   U1        1.0  0.6253896881555506  0.3746152926806232  0.7499949985525731  1.0000
  U   U2        1.0  0.3746162047794287  0.6253916055373948  0.2500012918610608  1.0000
  H   H1        1.0  0.9403372499982795  0.05966238946280809  0.7500001342762914  1.0000
  H   H2        1.0  0.05966254551861285  0.9403391902609286  0.2500007113888286  1.0000
  H   H3        1.0  0.4564759925212557  0.9716116504930099  0.8522572950034828  1.0000
  H   H4        1.0  0.028388238130411022  0.5435285635208089  0.6477413560945421  1.0000
  H   H5        1.0  0.543521438548467  0.028383405343852492  0.1477418701743858  1.0000
  H   H6        1.0  0.9716083529761051  0.4564691126878415  0.35225702677235654  1.0000
  H   H7        1.0  0.23554086951070022  0.17612269232108702  0.8530195723743219  1.0000
  H   H8        1.0  0.8238765614529413  0.7644622861244769  0.6469778543535937  1.0000
  H   H9        1.0  0.7644584947208698  0.8238762790369519  0.14698069859223745  1.0000
  H   H10       1.0  0.17611939034770066  0.23553929966009685  0.3530211468202822  1.0000
  C   C1        1.0  0.9704816353168583  0.58569769507465  0.030765608714183722  1.0000
  C   C2        1.0  0.41430901431471784  0.029521979402829898  0.46923256941187214  1.0000
  C   C3        1.0  0.02953001188877381  0.4143052755005101  0.9692332648932407  1.0000
  C   C4        1.0  0.5856925060845769  0.9704744045134887  0.5307665010691807  1.0000
  C   C5        1.0  0.38356112264186504  0.6164438913467976  0.7499996569102194  1.0000
  C   C6        1.0  0.6164397584515557  0.38355640214544445  0.25000003187781067  1.0000
  C   C7        1.0  0.2574140864482218  0.7425849607437556  0.7500003233853221  1.0000
  C   C8        1.0  0.7425824746876302  0.25741268550743956  0.250000286018917  1.0000
  C   C9        1.0  0.31796724485945305  0.9214312940355568  0.8076650547906821  1.0000
  C   C10       1.0  0.07857249653911678  0.6820341238634453  0.6923319666395358  1.0000
  C   C11       1.0  0.6820282606705276  0.07856766840459531  0.19233448495330666  1.0000
  C   C12       1.0  0.9214251501732704  0.31796223615626207  0.30766748588761333  1.0000
  C   C13       1.0  0.19933990765618864  0.0356993372369843  0.8075714783209023  1.0000
  C   C14       1.0  0.9643006415760668  0.8006609567321661  0.6924262129786029  1.0000
  C   C15       1.0  0.8006596722180462  0.9643009383039068  0.19242907999493744  1.0000
  C   C16       1.0  0.03569898325415719  0.19933936374490455  0.30757100553123  1.0000
  N   N1        1.0  0.027761448094665284  0.9722432282980689  0.7499981420229958  1.0000
  N   N2        1.0  0.9722383773928983  0.027758381383122796  0.250000477104777  1.0000
  O   O1        1.0  0.8237545049543017  0.6081537469450139  0.9591745743091735  1.0000
  O   O2        1.0  0.39184303187856523  0.1762482818599977  0.5408270728859534  1.0000
  O   O3        1.0  0.17625282229375466  0.3918465763890992  0.04082521991446699  1.0000
  O   O4        1.0  0.6081546374412597  0.8237559152629073  0.45917274672733294  1.0000
  O   O5        1.0  0.07498830212288962  0.6905138447342766  0.14811077041078846  1.0000
  O   O6        1.0  0.3094883410852489  0.9250212650161841  0.3518896789698118  1.0000
  O   O7        1.0  0.9250136645470661  0.309485162526478  0.8518877615001443  1.0000
  O   O8        1.0  0.690510755184441  0.07498416436857268  0.648116238076973  1.0000
  O   O9        1.0  0.5458294637197625  0.6738003613663393  0.7753184209026571  1.0000
  O   O10       1.0  0.3261970811120848  0.454169387534435  0.7246833289892363  1.0000
  O   O11       1.0  0.45417074047500705  0.3261959896199044  0.22468263237487204  1.0000
  O   O12       1.0  0.6738020674768207  0.5458282796407588  0.27531665462804256  1.0000
  O   O13       1.0  0.5630205167792897  0.29344536047528885  0.9090416711139184  1.0000
  O   O14       1.0  0.706554988820642  0.4369757697971152  0.5909692034425973  1.0000
  O   O15       1.0  0.4369835687245073  0.7065588365320394  0.09096048047232592  1.0000
  O   O16       1.0  0.29344612290077526  0.5630258428567031  0.40902965942603936  1.0000
