data_image0
_chemical_formula_structural       Ba2H20C24N4O16
_chemical_formula_sum              "Ba2 H20 C24 N4 O16"
_cell_length_a       7.4486116708578045
_cell_length_b       10.601124831709345
_cell_length_c       10.899729615031978
_cell_angle_alpha    119.09079417122301
_cell_angle_beta     109.98683406436898
_cell_angle_gamma    89.98668584474024

_space_group_name_H-M_alt    "P 1"
_space_group_IT_number       1

loop_
  _space_group_symop_operation_xyz
  'x, y, z'

loop_
  _atom_site_type_symbol
  _atom_site_label
  _atom_site_symmetry_multiplicity
  _atom_site_fract_x
  _atom_site_fract_y
  _atom_site_fract_z
  _atom_site_occupancy
  Ba  Ba1       1.0  0.329736459967485  0.6211159074677184  0.5000356054838233  1.0000
  Ba  Ba2       1.0  0.8297498395990459  0.378816818037926  0.49993229564075387  1.0000
  H   H1        1.0  0.41474558892954855  0.1793976331128277  0.08398816333688329  1.0000
  H   H2        1.0  0.3308382099658829  0.820827409095081  0.9163492149748219  1.0000
  H   H3        1.0  0.9145382399536999  0.40442398198053553  0.08373755703674846  1.0000
  H   H4        1.0  0.8309203083019553  0.5954870641524297  0.9161968799991198  1.0000
  H   H5        1.0  0.14304762118836578  0.005409639068787399  0.8279727723796383  1.0000
  H   H6        1.0  0.3149534916303621  0.9945677074400481  0.17228935917683683  1.0000
  H   H7        1.0  0.6427147608938738  0.3225084987089346  0.82781110802469  1.0000
  H   H8        1.0  0.8148158495555718  0.6773690467489005  0.17207021389430105  1.0000
  H   H9        1.0  0.9335016993092395  0.11227173799556313  0.6805892090838483  1.0000
  H   H10       1.0  0.25252336267872977  0.887525061947855  0.319409328139919  1.0000
  H   H11       1.0  0.4331480608493834  0.06834273147558892  0.6806178848589539  1.0000
  H   H12       1.0  0.7525129178795138  0.931591390503712  0.31928294508346483  1.0000
  H   H13       1.0  0.6160881271450052  0.7528149965859898  0.4103259296569277  1.0000
  H   H14       1.0  0.20597149052203176  0.24720715493284479  0.5897070234009618  1.0000
  H   H15       1.0  0.11626121590694537  0.1576229598079664  0.41035523628600146  1.0000
  H   H16       1.0  0.7057204268986936  0.8425173874755103  0.5896714112386972  1.0000
  H   H17       1.0  0.8466496330456935  0.6461149556726941  0.4087123233230301  1.0000
  H   H18       1.0  0.43805591967046803  0.3541229030170073  0.5913645765943726  1.0000
  H   H19       1.0  0.3466584250274351  0.262878437999575  0.4087872316959673  1.0000
  H   H20       1.0  0.938009401276993  0.7374101994193298  0.5912966249882243  1.0000
  C   C1        1.0  0.23774738334891046  0.42164711848279524  0.9768652578250464  1.0000
  C   C2        1.0  0.26082539369719643  0.5782806618374468  0.02304470684723018  1.0000
  C   C3        1.0  0.7377007428334676  0.05520408712011  0.9768930325394434  1.0000
  C   C4        1.0  0.7608266013677464  0.9447063411784882  0.02303879472248122  1.0000
  C   C5        1.0  0.35739035209730463  0.36889806831555927  0.06417464755863017  1.0000
  C   C6        1.0  0.2932645636187061  0.6311282476815663  0.935865519570363  1.0000
  C   C7        1.0  0.8572419327924476  0.1952370762513382  0.06412330970379539  1.0000
  C   C8        1.0  0.7932762492163332  0.8046971585736744  0.9358385944283326  1.0000
  C   C9        1.0  0.32307482256153713  0.2188343509570672  0.0132829971394841  1.0000
  C   C10       1.0  0.3097236400444316  0.7812206232415663  0.9868748008052106  1.0000
  C   C11       1.0  0.8228731916920322  0.29431008310808693  0.013088523400078534  1.0000
  C   C12       1.0  0.8097203078540574  0.7055662909195706  0.9867907243491555  1.0000
  C   C13       1.0  0.17394042823748632  0.12312637229468493  0.8725571897653663  1.0000
  C   C14       1.0  0.30123191568245034  0.8768277961870297  0.12761460799534763  1.0000
  C   C15       1.0  0.6736960623526684  0.24936066903677565  0.8723900961742854  1.0000
  C   C16       1.0  0.801140024178977  0.7504835395209143  0.12745891250947491  1.0000
  C   C17       1.0  0.0563232943728025  0.17821406488523195  0.7889384072229644  1.0000
  C   C18       1.0  0.2670110529782193  0.8216494602901251  0.21105256428044328  1.0000
  C   C19       1.0  0.556044324334138  0.11071856227367499  0.7889141909832061  1.0000
  C   C20       1.0  0.7670157608543346  0.889145838289963  0.21094875674421582  1.0000
  C   C21       1.0  0.51790888415033  0.4732744761101559  0.21782785613983444  1.0000
  C   C22       1.0  0.30020914521939795  0.5268130522842115  0.7822344115734268  1.0000
  C   C23       1.0  0.017831511171984005  0.2446743997037899  0.2177816463910176  1.0000
  C   C24       1.0  0.8003412904775544  0.7554088160742796  0.7822502012219842  1.0000
  N   N1        1.0  0.08384123791766737  0.3257404206723464  0.8423156120637144  1.0000
  N   N2        1.0  0.24130606419247166  0.6741078699566859  0.1575707647942011  1.0000
  N   N3        1.0  0.5837703161382278  0.0165795583553745  0.8423309612348076  1.0000
  N   N4        1.0  0.7413838367578264  0.9833066433701206  0.1575635468336499  1.0000
  O   O1        1.0  0.6198429608333385  0.5821686687867215  0.2370692886836351  1.0000
  O   O2        1.0  0.3829527785870824  0.41789148806206106  0.7629929106549226  1.0000
  O   O3        1.0  0.1198777727350588  0.1550800672992452  0.23717159760121823  1.0000
  O   O4        1.0  0.8829382783101423  0.8451309326710759  0.7630165498810013  1.0000
  O   O5        1.0  0.5358675458482693  0.44270938250229375  0.320252440589762  1.0000
  O   O6        1.0  0.21569467748497576  0.5573560380310882  0.6798057432302966  1.0000
  O   O7        1.0  0.03569755684020492  0.3776878751967773  0.32005370283596324  1.0000
  O   O8        1.0  0.7160989803235935  0.6224156351895758  0.6798484417175671  1.0000
  O   O9        1.0  0.9606946604244084  0.37629608698527767  0.7668451063846787  1.0000
  O   O10       1.0  0.1935894249242978  0.6234269368310237  0.23289953599531535  1.0000
  O   O11       1.0  0.46077264801616025  0.8905344130774537  0.7668971404967448  1.0000
  O   O12       1.0  0.6937304452654374  0.10933388869916881  0.2329809545036595  1.0000
  O   O13       1.0  0.5915306003458339  0.8259977607431284  0.49997532297977887  1.0000
  O   O14       1.0  0.09188918635884849  0.1739221741936205  0.5000287140902273  1.0000
  O   O15       1.0  0.9689654213539924  0.680114699481571  0.49998631733448906  1.0000
  O   O16       1.0  0.4688936664126331  0.32043427276497743  0.5000458480646228  1.0000
