data_image0
_chemical_formula_structural       Cd2H36C48N4O8
_chemical_formula_sum              "Cd2 H36 C48 N4 O8"
_cell_length_a       9.84211526633621
_cell_length_b       10.506683978181208
_cell_length_c       12.150026506807176
_cell_angle_alpha    103.93481243079643
_cell_angle_beta     95.0398948458269
_cell_angle_gamma    109.6648521114092

_space_group_name_H-M_alt    "P 1"
_space_group_IT_number       1

loop_
  _space_group_symop_operation_xyz
  'x, y, z'

loop_
  _atom_site_type_symbol
  _atom_site_label
  _atom_site_symmetry_multiplicity
  _atom_site_fract_x
  _atom_site_fract_y
  _atom_site_fract_z
  _atom_site_occupancy
  Cd  Cd1       1.0  0.913920814225101  0.6275323793144449  0.5938952615497967  1.0000
  Cd  Cd2       1.0  0.08608184844360521  0.3724738006911181  0.406105242021674  1.0000
  H   H1        1.0  0.0679344441321561  0.6089974393111319  0.8240548914298741  1.0000
  H   H2        1.0  0.9320617789495173  0.3910024243143439  0.1759488273583756  1.0000
  H   H3        1.0  0.12834464620373615  0.6463472619020935  0.03340630290959008  1.0000
  H   H4        1.0  0.8716448027960697  0.3536431313448603  0.9665966246966562  1.0000
  H   H5        1.0  0.28734390234046714  0.5332003276401593  0.109898904535136  1.0000
  H   H6        1.0  0.71264232867334  0.466792231547302  0.8901043357224552  1.0000
  H   H7        1.0  0.3881869427248574  0.3863316220231283  0.9751432387136987  1.0000
  H   H8        1.0  0.6118101645389517  0.6136703394179718  0.024862635030089553  1.0000
  H   H9        1.0  0.32807236370269527  0.3491100745819792  0.7633482908889135  1.0000
  H   H10       1.0  0.6719329897738148  0.6508949891617276  0.23665457450214686  1.0000
  H   H11       1.0  0.9338310395952192  0.8768856942025921  0.9997145180952387  1.0000
  H   H12       1.0  0.06616696446122461  0.12311421341023279  0.00028024551290430175  1.0000
  H   H13       1.0  0.8213868553403717  0.9690844512745826  0.16224699486245706  1.0000
  H   H14       1.0  0.1786185814157619  0.03091318975209129  0.8377534135369374  1.0000
  H   H15       1.0  0.5565667389919112  0.935396096052507  0.12648960310540497  1.0000
  H   H16       1.0  0.44343611588692516  0.0645919804541677  0.8735151485269127  1.0000
  H   H17       1.0  0.4074201674327327  0.8172978439024232  0.9292915383221113  1.0000
  H   H18       1.0  0.5925781031179868  0.18269133739950408  0.0707156915323139  1.0000
  H   H19       1.0  0.5260364944070588  0.7393057404264736  0.7653554028458132  1.0000
  H   H20       1.0  0.47395965933977646  0.2606888185808954  0.23464714181642418  1.0000
  H   H21       1.0  0.8529159787558457  0.3783854233425428  0.7191510302850473  1.0000
  H   H22       1.0  0.1470846553378919  0.6216207842213064  0.2808493751620134  1.0000
  H   H23       1.0  0.6459049981752472  0.17305656347946302  0.7388610561916806  1.0000
  H   H24       1.0  0.35409999829732913  0.826945352769954  0.2611369797728997  1.0000
  H   H25       1.0  0.36937287234853494  0.24334795415967378  0.47916810953762473  1.0000
  H   H26       1.0  0.6306276473921529  0.7566529617943728  0.5208294757280569  1.0000
  H   H27       1.0  0.5866592973846281  0.44567780606872276  0.4742268082828787  1.0000
  H   H28       1.0  0.4133402530868011  0.5543231106561634  0.5257723739759612  1.0000
  H   H29       1.0  0.4906271383487139  0.9434083825610602  0.651769406187519  1.0000
  H   H30       1.0  0.5093749003485541  0.05659147643932268  0.34822473064175335  1.0000
  H   H31       1.0  0.2688967592977747  0.735590207605  0.646833253919027  1.0000
  H   H32       1.0  0.7311036704064834  0.264410734365633  0.3531610392359212  1.0000
  H   H33       1.0  0.9892541815653644  0.936994041064004  0.5808553799828715  1.0000
  H   H34       1.0  0.010751416369544088  0.06301420269473818  0.41914819969623096  1.0000
  H   H35       1.0  0.19860346727287487  0.1565917305193238  0.5844468482760092  1.0000
  H   H36       1.0  0.8014016210436382  0.8434154838440545  0.4155531848422667  1.0000
  C   C1        1.0  0.15344484027715313  0.445629086833172  0.6522728215296141  1.0000
  C   C2        1.0  0.8465554192528517  0.554376052310424  0.3477289755227346  1.0000
  C   C3        1.0  0.19340701984030767  0.47480712236053063  0.7796893236703325  1.0000
  C   C4        1.0  0.8065977389306838  0.5251990105742833  0.22031374710860516  1.0000
  C   C5        1.0  0.13848492273670834  0.5601030102532786  0.8562476869315673  1.0000
  C   C6        1.0  0.8615181802155476  0.43989889452954123  0.1437551890747172  1.0000
  C   C7        1.0  0.17332402141422418  0.5816659805449546  0.9748262436659016  1.0000
  C   C8        1.0  0.8266705926744393  0.4183349660507787  0.025177631448023936  1.0000
  C   C9        1.0  0.26246415512594723  0.5187946596950823  0.01756880752645167  1.0000
  C   C10       1.0  0.7375303446096667  0.4812009952908408  0.9824322474060949  1.0000
  C   C11       1.0  0.31878144939965125  0.43532092189560945  0.9417524229226756  1.0000
  C   C12       1.0  0.6812161625332466  0.5646799963709765  0.058249953322494635  1.0000
  C   C13       1.0  0.28488985855594967  0.4138134766870251  0.8234521442490175  1.0000
  C   C14       1.0  0.7151119023708149  0.5861926845769361  0.1765524253986683  1.0000
  C   C15       1.0  0.8059046116697602  0.752882552149252  0.7751246639690661  1.0000
  C   C16       1.0  0.1940905696660238  0.24711525918964125  0.2248711386698616  1.0000
  C   C17       1.0  0.7373931908008161  0.8053085364280504  0.8728824120021912  1.0000
  C   C18       1.0  0.2626032924915478  0.19468710400787606  0.1271170949993916  1.0000
  C   C19       1.0  0.8197432883426288  0.8679415362061246  0.9850682184103119  1.0000
  C   C20       1.0  0.1802600748203247  0.1320561453871463  0.014930445809305599  1.0000
  C   C21       1.0  0.7557047851524388  0.9172750366353098  0.07576893501858706  1.0000
  C   C22       1.0  0.24429813591945054  0.08272159605014909  0.9242286517232614  1.0000
  C   C23       1.0  0.6073504372484849  0.8985624433551679  0.05559312671532982  1.0000
  C   C24       1.0  0.3926482321825945  0.10143312399342357  0.9444122396044605  1.0000
  C   C25       1.0  0.5235648962070127  0.8332503303167795  0.9443163675248768  1.0000
  C   C26       1.0  0.47643335364210765  0.1667441816198476  0.05568874434482748  1.0000
  C   C27       1.0  0.5890978159926236  0.789138010256728  0.8529297393243098  1.0000
  C   C28       1.0  0.4108982927359933  0.21085656175893772  0.14707115928256087  1.0000
  C   C29       1.0  0.7433800244508859  0.34398234959873253  0.6680283831837528  1.0000
  C   C30       1.0  0.2566237826106459  0.6560217050328986  0.33197006355658937  1.0000
  C   C31       1.0  0.6276634059911004  0.2291488526030746  0.677820380447997  1.0000
  C   C32       1.0  0.37233947187007743  0.7708531172212361  0.322174265281447  1.0000
  C   C33       1.0  0.48854075617988  0.18971003675463285  0.6107488566581623  1.0000
  C   C34       1.0  0.511459938684375  0.8102887545963424  0.38924826876955615  1.0000
  C   C35       1.0  0.47266971529970897  0.2692306402274979  0.5362021162907452  1.0000
  C   C36       1.0  0.5273297451352904  0.7307703025139886  0.46379377385736825  1.0000
  C   C37       1.0  0.5942897049527929  0.3822374589384409  0.531933462216024  1.0000
  C   C38       1.0  0.40571227116644343  0.6177644921442677  0.46806524958963536  1.0000
  C   C39       1.0  0.3625816239910052  0.06652677996125789  0.6149316396579607  1.0000
  C   C40       1.0  0.6374200626516284  0.9334720041147119  0.38506471180427576  1.0000
  C   C41       1.0  0.3817278579445116  0.9476206812435845  0.6360404746615558  1.0000
  C   C42       1.0  0.6182758365714847  0.05238340590879889  0.3639538569403697  1.0000
  C   C43       1.0  0.259115490909373  0.8309624240744282  0.6328066608972449  1.0000
  C   C44       1.0  0.7408868147553989  0.1690406084368377  0.3671890132477528  1.0000
  C   C45       1.0  0.10259969917014192  0.943049011343021  0.59447164771327  1.0000
  C   C46       1.0  0.8974009799418141  0.056957183212539085  0.4055304037891574  1.0000
  C   C47       1.0  0.2187058608690151  0.06391123923820168  0.5956737266284051  1.0000
  C   C48       1.0  0.781299600203738  0.9360917194148821  0.40432620984162765  1.0000
  N   N1        1.0  0.7272555334305225  0.41933468144637226  0.5962775713073754  1.0000
  N   N2        1.0  0.27274562603390257  0.5806651523082635  0.4037214546257957  1.0000
  N   N3        1.0  0.12155950019820239  0.8274060935280189  0.6105223996602047  1.0000
  N   N4        1.0  0.8784421481830196  0.1726001002566875  0.3894780548490644  1.0000
  O   O1        1.0  0.07516759078096413  0.505119284742662  0.6112236000766416  1.0000
  O   O2        1.0  0.9248355589970246  0.49488793116241675  0.38877962702797214  1.0000
  O   O3        1.0  0.19822348823545607  0.36091430917225853  0.5850778175411762  1.0000
  O   O4        1.0  0.8017730869008517  0.6390866293776298  0.41492368661410234  1.0000
  O   O5        1.0  0.9138359702333431  0.7159076180420525  0.79726659237037  1.0000
  O   O6        1.0  0.08616015786260077  0.28409019903013893  0.2027267902477092  1.0000
  O   O7        1.0  0.7522307435515927  0.7448798330703851  0.6727853016382992  1.0000
  O   O8        1.0  0.24776457464635368  0.2551232633741661  0.32721414420969097  1.0000
