data_image0
_chemical_formula_structural       Zn4H44C56N24O16
_chemical_formula_sum              "Zn4 H44 C56 N24 O16"
_cell_length_a       9.73503791658717
_cell_length_b       9.734978664716921
_cell_length_c       20.501303838894998
_cell_angle_alpha    79.89972168946082
_cell_angle_beta     79.89875794255556
_cell_angle_gamma    86.2047113859312

_space_group_name_H-M_alt    "P 1"
_space_group_IT_number       1

loop_
  _space_group_symop_operation_xyz
  'x, y, z'

loop_
  _atom_site_type_symbol
  _atom_site_label
  _atom_site_symmetry_multiplicity
  _atom_site_fract_x
  _atom_site_fract_y
  _atom_site_fract_z
  _atom_site_occupancy
  Zn  Zn1       1.0  0.8300534955730612  0.7747158928263291  0.9522666912208849  1.0000
  Zn  Zn2       1.0  0.22528430749201087  0.16995237260892543  0.5477341761517779  1.0000
  Zn  Zn3       1.0  0.1699463403471384  0.22528556309139708  0.04773410190537669  1.0000
  Zn  Zn4       1.0  0.7747229451595318  0.830044844994397  0.45226685985687726  1.0000
  H   H1        1.0  0.8451601317225087  0.8283248775588351  0.20274044456280646  1.0000
  H   H2        1.0  0.17168326225853292  0.1548276749022719  0.2972595292884463  1.0000
  H   H3        1.0  0.1548398337814518  0.17167455723667766  0.7972580550489851  1.0000
  H   H4        1.0  0.8283177471682848  0.8451685273626953  0.7027425539818708  1.0000
  H   H5        1.0  0.533234263120896  0.5942393772534447  0.345160876394246  1.0000
  H   H6        1.0  0.4057599031303384  0.4667685323648103  0.15484285258582986  1.0000
  H   H7        1.0  0.4667547834905507  0.4057757739350621  0.6548377414022823  1.0000
  H   H8        1.0  0.5942292914235524  0.5332403148217892  0.8451577031955182  1.0000
  H   H9        1.0  0.5959417969182752  0.5514647572373267  0.13604380378423295  1.0000
  H   H10       1.0  0.4485330976988139  0.40405419760095657  0.36396011930122546  1.0000
  H   H11       1.0  0.4040592618226879  0.4485293436936644  0.8639589254810219  1.0000
  H   H12       1.0  0.5514677771638218  0.5959483220345309  0.6360395360660362  1.0000
  H   H13       1.0  0.0720814623531894  0.6519521284346511  0.03906412831339169  1.0000
  H   H14       1.0  0.34804244773211224  0.9279210425316512  0.4609367828816744  1.0000
  H   H15       1.0  0.9279194438556573  0.34804934721817204  0.9609356050922244  1.0000
  H   H16       1.0  0.6519616964899627  0.07207729353531532  0.5390624550682261  1.0000
  H   H17       1.0  0.09743663530279183  0.7737512047084466  0.8301404776187838  1.0000
  H   H18       1.0  0.2262436176614457  0.9025656166806115  0.6698612067951543  1.0000
  H   H19       1.0  0.9025588697579181  0.22625549913124846  0.1698602448524298  1.0000
  H   H20       1.0  0.7737607819199752  0.09742329680506863  0.3301397133363793  1.0000
  H   H21       1.0  0.42942942632937803  0.5427561458193112  0.957264768021176  1.0000
  H   H22       1.0  0.4572379268177543  0.5705715355104602  0.5427347259081117  1.0000
  H   H23       1.0  0.5705664277385553  0.4572412290194805  0.042734207204034605  1.0000
  H   H24       1.0  0.5427580480453501  0.4294227341175727  0.45726350359569073  1.0000
  H   H25       1.0  0.3268554672551076  0.5506052028382983  0.03767891106372902  1.0000
  H   H26       1.0  0.44939348394294143  0.6731480133270298  0.46232256238022984  1.0000
  H   H27       1.0  0.6731413722421921  0.4493931822437532  0.9623208860754247  1.0000
  H   H28       1.0  0.5506075117148654  0.32685140109769867  0.5376763472656165  1.0000
  H   H29       1.0  0.5347944539647785  0.7037753816153157  0.017170558551747175  1.0000
  H   H30       1.0  0.2962324718513898  0.46520373262763576  0.48282697301851835  1.0000
  H   H31       1.0  0.4652066491099235  0.2962209142300268  0.9828280952909267  1.0000
  H   H32       1.0  0.703769737057094  0.5347936937786032  0.517168093473984  1.0000
  H   H33       1.0  0.48517521736540914  0.7906403447109869  0.9404817099143727  1.0000
  H   H34       1.0  0.20935881426732553  0.5148231073856382  0.5595154693289572  1.0000
  H   H35       1.0  0.5148258769206963  0.20935486704581058  0.05951849172135579  1.0000
  H   H36       1.0  0.7906392832051311  0.4851722590638873  0.44048007277696405  1.0000
  H   H37       1.0  0.17505538046258814  0.9295509577919746  0.1562267201233851  1.0000
  H   H38       1.0  0.0704492291818042  0.8249511764372316  0.3437727110108355  1.0000
  H   H39       1.0  0.8249447910865655  0.07044115575622102  0.8437728156751092  1.0000
  H   H40       1.0  0.9295503693469912  0.17505864471047525  0.656226967890376  1.0000
  H   H41       1.0  0.34715634478191504  0.01901023263945231  0.9510601607968211  1.0000
  H   H42       1.0  0.9809943404050758  0.6528288186923705  0.5489349732665049  1.0000
  H   H43       1.0  0.6528560269018797  0.9809911526210161  0.0489391838010675  1.0000
  H   H44       1.0  0.0190101436448842  0.34716232981353573  0.4510604016877551  1.0000
  C   C1        1.0  0.7237848463034312  0.6961072457075164  0.1621302660391493  1.0000
  C   C2        1.0  0.30389870785682405  0.27620293919896716  0.337869344861737  1.0000
  C   C3        1.0  0.2762107569948284  0.30389848099264344  0.8378680848792469  1.0000
  C   C4        1.0  0.6960972715959458  0.7237902597091478  0.6621299425168844  1.0000
  C   C5        1.0  0.7621407936902145  0.7538836260821642  0.21382117844927256  1.0000
  C   C6        1.0  0.2461202576764805  0.23784993233239513  0.28617990991401143  1.0000
  C   C7        1.0  0.23785584015264052  0.24611885471882292  0.7861812460458779  1.0000
  C   C8        1.0  0.7538777415584194  0.7621464112566728  0.713818003744727  1.0000
  C   C9        1.0  0.6934597070829441  0.7150681642897185  0.2798508361216108  1.0000
  C   C10       1.0  0.28493765803361276  0.3065360400093909  0.2201503282899679  1.0000
  C   C11       1.0  0.3065273782398563  0.2849395994440229  0.7201519171393826  1.0000
  C   C12       1.0  0.71505998799514  0.6934674777721102  0.7798519382826469  1.0000
  C   C13       1.0  0.5868768638874471  0.6194180065891858  0.2935858563332516  1.0000
  C   C14       1.0  0.3805825630586384  0.41312209018116874  0.20641697491205244  1.0000
  C   C15       1.0  0.4131101805190553  0.38059616809546537  0.7064110395970502  1.0000
  C   C16       1.0  0.619421160675195  0.5868865787634907  0.793585402000204  1.0000
  C   C17       1.0  0.5489995349972575  0.558044204048919  0.242607536982689  1.0000
  C   C18       1.0  0.4419587990802398  0.4509994239991855  0.2573964719265334  1.0000
  C   C19       1.0  0.4509886114348518  0.4419657208597627  0.757392040808014  1.0000
  C   C20       1.0  0.5580397700762064  0.5490039664625215  0.7426101240260082  1.0000
  C   C21       1.0  0.6191618797825883  0.5984906158711639  0.17694053518984995  1.0000
  C   C22       1.0  0.4014999569187978  0.38083893629429616  0.32306465253565625  1.0000
  C   C23       1.0  0.3808485348114986  0.4015055367430165  0.8230603392046234  1.0000
  C   C24       1.0  0.5984872897247229  0.6191625368061722  0.6769395487919212  1.0000
  C   C25       1.0  0.7951633284191999  0.7389324162271438  0.09108518759477853  1.0000
  C   C26       1.0  0.2610724621308904  0.20482688728856865  0.40891419981917926  1.0000
  C   C27       1.0  0.2048373354178281  0.26108172090397386  0.9089087101682695  1.0000
  C   C28       1.0  0.7389275171420877  0.7951693353471757  0.5910874734170761  1.0000
  C   C29       1.0  0.737308281298418  0.7743693366430834  0.33523260172633235  1.0000
  C   C30       1.0  0.2256241031457265  0.26269255647652306  0.16476821340526732  1.0000
  C   C31       1.0  0.2626958541350605  0.22562791533533041  0.6647681840166229  1.0000
  C   C32       1.0  0.774382315827083  0.7373027272184987  0.8352276694636984  1.0000
  C   C33       1.0  0.10965324241079343  0.671616821209682  0.9853745157541169  1.0000
  C   C34       1.0  0.32837699377552093  0.8903493462854969  0.5146286949269836  1.0000
  C   C35       1.0  0.8903453978359224  0.32838879090362383  0.014627024939386533  1.0000
  C   C36       1.0  0.6716229675295156  0.10964793370154526  0.4853724103526886  1.0000
  C   C37       1.0  0.12794091675612412  0.7349884076437406  0.8786814142894102  1.0000
  C   C38       1.0  0.2650058547391509  0.872061223365428  0.6213224723398554  1.0000
  C   C39       1.0  0.8720566486122723  0.26501825545439334  0.12132012824991993  1.0000
  C   C40       1.0  0.734992122719632  0.12793079723807213  0.37868114257287283  1.0000
  C   C41       1.0  0.36308188472244757  0.6109458557598375  0.9877878143292164  1.0000
  C   C42       1.0  0.3890563222940813  0.6369259345733413  0.5122135267699903  1.0000
  C   C43       1.0  0.6369169210439054  0.38905562052866577  0.012212568762990376  1.0000
  C   C44       1.0  0.6109456721713543  0.3630745034632811  0.48778571487156347  1.0000
  C   C45       1.0  0.4453227075339188  0.7369544028971193  0.9912672302126923  1.0000
  C   C46       1.0  0.26306033330702416  0.5546768252283273  0.5087329884433984  1.0000
  C   C47       1.0  0.5546781138156476  0.2630480632638666  0.008734384827505425  1.0000
  C   C48       1.0  0.7369501929028816  0.4453183636149449  0.4912650244800219  1.0000
  C   C49       1.0  0.23272160268700762  0.9176802513414375  0.10711142371110327  1.0000
  C   C50       1.0  0.0823217965437877  0.7672783668886682  0.39289003310968706  1.0000
  C   C51       1.0  0.7672815159709003  0.08231703437638065  0.8928884620795614  1.0000
  C   C52       1.0  0.9176760104149367  0.2327220857879482  0.6071100179868125  1.0000
  C   C53       1.0  0.31918231574987743  0.9681142253847101  0.0027747273566091643  1.0000
  C   C54       1.0  0.0318872297445125  0.6808065908958556  0.4972235746191275  1.0000
  C   C55       1.0  0.6808290663056341  0.03188399482403532  0.9972264009952098  1.0000
  C   C56       1.0  0.968116201984742  0.31918348052366247  0.502773428012361  1.0000
  N   N1        1.0  0.03414734294383239  0.7227730874364797  0.9374386941081526  1.0000
  N   N2        1.0  0.27721516862406764  0.9658520381891339  0.5625657203706922  1.0000
  N   N3        1.0  0.9658503478093935  0.2772293997309774  0.06256316058458113  1.0000
  N   N4        1.0  0.7227869516169535  0.03414099838840911  0.4374374969669646  1.0000
  N   N5        1.0  0.24219719749380178  0.6538397167530408  0.9559282721177312  1.0000
  N   N6        1.0  0.34614976355575783  0.7578030400997379  0.5440753148286178  1.0000
  N   N7        1.0  0.757800524605635  0.3461617264317455  0.04407366061335692  1.0000
  N   N8        1.0  0.6538461444159936  0.24219116268516677  0.4559253642663492  1.0000
  N   N9        1.0  0.2566702988617707  0.6947434563659061  0.8880426061191856  1.0000
  N   N10       1.0  0.3052538179251131  0.7433305778249352  0.6119614168336724  1.0000
  N   N11       1.0  0.7433273112310986  0.30526217611818407  0.11195852454025608  1.0000
  N   N12       1.0  0.6947442891174305  0.25665942165635164  0.388039904564586  1.0000
  N   N13       1.0  0.35832372165509  0.8368587929368448  0.026762907320936294  1.0000
  N   N14       1.0  0.16314703357930682  0.6416698402936449  0.47323593986141094  1.0000
  N   N15       1.0  0.6416782953679601  0.16313951702855436  0.9732379601520265  1.0000
  N   N16       1.0  0.8368573430537581  0.35832442679164705  0.5267596908960286  1.0000
  N   N17       1.0  0.3034454508623483  0.8022369899853816  0.0932019045103729  1.0000
  N   N18       1.0  0.19776157967312  0.6965577264351028  0.40679977255813077  1.0000
  N   N19       1.0  0.6965535743274673  0.19775717842442486  0.9067990248502936  1.0000
  N   N20       1.0  0.8022360793431531  0.30344903024341363  0.5931983405535561  1.0000
  N   N21       1.0  0.24046376529301486  0.02301675803975911  0.05281688578053691  1.0000
  N   N22       1.0  0.9769825513883247  0.7595262658970658  0.44718373633499203  1.0000
  N   N23       1.0  0.7595414270508485  0.9769805003051248  0.9471833301600086  1.0000
  N   N24       1.0  0.02301725318566381  0.24047623400332443  0.5528169787529151  1.0000
  O   O1        1.0  0.7442506440505383  0.6889952782927012  0.04521504736294448  1.0000
  O   O2        1.0  0.3110044725284382  0.2557339670883607  0.4547866347773493  1.0000
  O   O3        1.0  0.2557349535942066  0.31099804411147863  0.9547830791845229  1.0000
  O   O4        1.0  0.6889962639618333  0.7442694895807879  0.5452168618974298  1.0000
  O   O5        1.0  0.8949472165699677  0.819262502745865  0.07785563858029582  1.0000
  O   O6        1.0  0.1807412586166777  0.10503978365007782  0.4221440015962372  1.0000
  O   O7        1.0  0.10505419117823321  0.18072226918422984  0.9221453434389559  1.0000
  O   O8        1.0  0.8192765413625411  0.8949531746323702  0.577857037642275  1.0000
  O   O9        1.0  0.83157153507797  0.8620754216010554  0.32234502253175623  1.0000
  O   O10       1.0  0.13791670224804162  0.16842819058161504  0.1776598552343174  1.0000
  O   O11       1.0  0.16843778666985543  0.1379228393492511  0.6776552857519604  1.0000
  O   O12       1.0  0.8620706108960763  0.8315765748903775  0.8223382329593889  1.0000
  O   O13       1.0  0.6759177582674951  0.729653637465944  0.3965365423495868  1.0000
  O   O14       1.0  0.27034958925752767  0.3240867661609387  0.10346574322335299  1.0000
  O   O15       1.0  0.32408401677447785  0.27035410844936797  0.6034621530235071  1.0000
  O   O16       1.0  0.7296579859633072  0.6759344560416453  0.8965334180190254  1.0000
