data_image0
_chemical_formula_structural       Zn8H144C212N32O32
_chemical_formula_sum              "Zn8 H144 C212 N32 O32"
_cell_length_a       14.090163795161377
_cell_length_b       20.489155882827344
_cell_length_c       21.295820791712107
_cell_angle_alpha    109.49577794393798
_cell_angle_beta     109.32536599335106
_cell_angle_gamma    89.9937294329607

_space_group_name_H-M_alt    "P 1"
_space_group_IT_number       1

loop_
  _space_group_symop_operation_xyz
  'x, y, z'

loop_
  _atom_site_type_symbol
  _atom_site_label
  _atom_site_symmetry_multiplicity
  _atom_site_fract_x
  _atom_site_fract_y
  _atom_site_fract_z
  _atom_site_occupancy
  Zn  Zn1       1.0  0.5474312990922385  0.6158388724218612  0.17101574673073122  1.0000
  Zn  Zn2       1.0  0.37634147819716907  0.884280242333283  0.8290919916480634  1.0000
  Zn  Zn3       1.0  0.4525699833804851  0.38416423309006836  0.828985311277947  1.0000
  Zn  Zn4       1.0  0.6236534522125011  0.11571862376006692  0.17090500479558565  1.0000
  Zn  Zn5       1.0  0.3808556548179071  0.8382535553410054  0.4449035107506704  1.0000
  Zn  Zn6       1.0  0.9359643770842253  0.6618497075434888  0.5550272776644931  1.0000
  Zn  Zn7       1.0  0.6191490043550091  0.1617458855984069  0.5550957932628934  1.0000
  Zn  Zn8       1.0  0.06403517033245266  0.3381486795915907  0.4449712481698285  1.0000
  H   H1        1.0  0.5838300392308753  0.5246469440422105  0.33937552825041467  1.0000
  H   H2        1.0  0.24430446317745705  0.9752681163382706  0.6604713812965743  1.0000
  H   H3        1.0  0.4161702063070791  0.47535348142434947  0.6606217827354827  1.0000
  H   H4        1.0  0.7556901817747883  0.024731857228495406  0.339528526070339  1.0000
  H   H5        1.0  0.6085283613667158  0.43894096977825126  0.40217164155556884  1.0000
  H   H6        1.0  0.20637159546070188  0.0609578297799516  0.5976531342768538  1.0000
  H   H7        1.0  0.3914717688043154  0.5610594717442511  0.5978263091298714  1.0000
  H   H8        1.0  0.7936310034844496  0.9390447136367899  0.40234613648253525  1.0000
  H   H9        1.0  0.628662206141783  0.3160969593992178  0.3393057853593362  1.0000
  H   H10       1.0  0.28938150108800886  0.18377552290518656  0.6605116593857616  1.0000
  H   H11       1.0  0.3713301300895824  0.6838997447553583  0.660687498106036  1.0000
  H   H12       1.0  0.710614883037792  0.8162271104717719  0.3394911894105591  1.0000
  H   H13       1.0  0.5930437362580179  0.3630083664285452  0.15142135632643777  1.0000
  H   H14       1.0  0.44151678368044855  0.13687066776767412  0.8484148843932076  1.0000
  H   H15       1.0  0.40694742622962815  0.6369883460845075  0.8485722589265948  1.0000
  H   H16       1.0  0.5584798376119408  0.8631236231302779  0.15158528942038174  1.0000
  H   H17       1.0  0.5935599385082  0.6754430901917774  0.06218050695774482  1.0000
  H   H18       1.0  0.5313923742125368  0.8244307976960815  0.9376107833156341  1.0000
  H   H19       1.0  0.40644234581548505  0.3245569051453572  0.9378202763932323  1.0000
  H   H20       1.0  0.46860596798112647  0.17557019404490862  0.06238848081338231  1.0000
  H   H21       1.0  0.7866216464921576  0.5178451310006836  0.028439818070786813  1.0000
  H   H22       1.0  0.7582512987082453  0.9820964958357126  0.9715467341078964  1.0000
  H   H23       1.0  0.21337382018329257  0.4821527477082982  0.971559053258268  1.0000
  H   H24       1.0  0.2417442536570888  0.017908156298553  0.02845411812240429  1.0000
  H   H25       1.0  0.6959542617297957  0.5046956489367033  0.12263535925993099  1.0000
  H   H26       1.0  0.5732605942208265  0.9954592287400605  0.877589000809252  1.0000
  H   H27       1.0  0.3040401465688518  0.4953022220748125  0.8773632041572483  1.0000
  H   H28       1.0  0.4267347256084121  0.004541262272297801  0.12241091672637341  1.0000
  H   H29       1.0  0.5655786371159408  0.6474936954914411  0.9355723285921443  1.0000
  H   H30       1.0  0.630039816821238  0.8522173937147033  0.06417821986648425  1.0000
  H   H31       1.0  0.43441713097394785  0.3525052865117218  0.06442928776633755  1.0000
  H   H32       1.0  0.36996254135280526  0.14778510571345288  0.9358192976881128  1.0000
  H   H33       1.0  0.5962084383468137  0.6763375193491542  0.8402858484103036  1.0000
  H   H34       1.0  0.7557884025254038  0.8234704600030441  0.15954122756399874  1.0000
  H   H35       1.0  0.40379150260694274  0.3236604341382759  0.15971600777105271  1.0000
  H   H36       1.0  0.2442109059224222  0.17653207637724933  0.8404577591592998  1.0000
  H   H37       1.0  0.9046257105491337  0.6322717596958399  0.9123699911720352  1.0000
  H   H38       1.0  0.9923274394708913  0.8677284052250019  0.08770000908475599  1.0000
  H   H39       1.0  0.09537598690269529  0.3677282398205364  0.08763095807277213  1.0000
  H   H40       1.0  0.007673578986448744  0.13227313541244712  0.9123005207362739  1.0000
  H   H41       1.0  0.8753137002750363  0.6070088583498433  0.010894162307849318  1.0000
  H   H42       1.0  0.8645870386570137  0.8928734055242699  0.9890857129399536  1.0000
  H   H43       1.0  0.1246844111847879  0.39299216550303134  0.9891063812202532  1.0000
  H   H44       1.0  0.13541785716950017  0.107128137970399  0.010914935023343697  1.0000
  H   H45       1.0  0.6865198342429508  0.7804772234051287  0.8456685282156259  1.0000
  H   H46       1.0  0.8410769188549166  0.7194411055942925  0.15431861898051133  1.0000
  H   H47       1.0  0.3134809849598383  0.21952175309677108  0.1543328744974559  1.0000
  H   H48       1.0  0.1589222742259935  0.2805614468419435  0.8456810074423231  1.0000
  H   H49       1.0  0.5704446496165476  0.8384070994722636  0.7723258537366038  1.0000
  H   H50       1.0  0.7981505415419929  0.6615386904399047  0.22767311304391313  1.0000
  H   H51       1.0  0.4295565489685486  0.16159342584818154  0.22767543746458332  1.0000
  H   H52       1.0  0.20184450011708324  0.3384622181641603  0.7723228344451413  1.0000
  H   H53       1.0  0.5606234468590118  0.669288236908507  0.5826237621805604  1.0000
  H   H54       1.0  0.9776935187664222  0.8307547169650038  0.4173124961745104  1.0000
  H   H55       1.0  0.4393800718517369  0.33071280937575415  0.41737768120739827  1.0000
  H   H56       1.0  0.022305024997038493  0.16924258711107854  0.5826840902237649  1.0000
  H   H57       1.0  0.6761104615932538  0.6126116990736393  0.6547759663638716  1.0000
  H   H58       1.0  0.021171011406607914  0.88747681802019  0.34520198833662624  1.0000
  H   H59       1.0  0.323889234471892  0.3873882689918631  0.3452237273576344  1.0000
  H   H60       1.0  0.9788280645051229  0.11252155723818905  0.6547960636919897  1.0000
  H   H61       1.0  0.5466932671304221  0.7690384080132661  0.5415180403333083  1.0000
  H   H62       1.0  0.005105542489239822  0.7310586441335406  0.4583920159357434  1.0000
  H   H63       1.0  0.45330849096474424  0.23096265080870645  0.458483900736134  1.0000
  H   H64       1.0  0.9948908398343049  0.2689397960096188  0.5416086187668157  1.0000
  H   H65       1.0  0.3096101932005269  0.8823880980387957  0.581764523704429  1.0000
  H   H66       1.0  0.7277903062514212  0.6175946980525212  0.4180654542187697  1.0000
  H   H67       1.0  0.6903958175286178  0.11761657102559303  0.41823701474033476  1.0000
  H   H68       1.0  0.2722065625863409  0.3824093919865561  0.5819336107622421  1.0000
  H   H69       1.0  0.3964441720262072  0.832589932743879  0.6917885098643097  1.0000
  H   H70       1.0  0.7046067033869222  0.667516992655408  0.30815295839694573  1.0000
  H   H71       1.0  0.6035578774461355  0.16741215327180473  0.3082131436306952  1.0000
  H   H72       1.0  0.2953865544122963  0.3324824076004803  0.6918447117907435  1.0000
  H   H73       1.0  0.22671718245384653  0.7837895728358221  0.8474335065563849  1.0000
  H   H74       1.0  0.37950630780552064  0.7162512869342949  0.15250275135809233  1.0000
  H   H75       1.0  0.7732837621531273  0.21620946371061217  0.15257028906102488  1.0000
  H   H76       1.0  0.6204909801288422  0.28374763854256463  0.8474966141141068  1.0000
  H   H77       1.0  0.041833396331576005  0.9471347845169051  0.8752895526208706  1.0000
  H   H78       1.0  0.16683577591609122  0.5529177564624277  0.12469369821601363  1.0000
  H   H79       1.0  0.9581653982402469  0.052862639648232325  0.12471181958606083  1.0000
  H   H80       1.0  0.8331619935604807  0.4470812569916165  0.8753091736657624  1.0000
  H   H81       1.0  0.22839368182663136  0.9978936767209062  0.8778860316755441  1.0000
  H   H82       1.0  0.3508463358013146  0.5021486968006315  0.1219983020160882  1.0000
  H   H83       1.0  0.7716033106130524  0.002106280128906198  0.12211321211604084  1.0000
  H   H84       1.0  0.6491496356606278  0.4978507907714233  0.8780028507054  1.0000
  H   H85       1.0  0.016825044027335652  0.8525081021418333  0.9512055790638174  1.0000
  H   H86       1.0  0.06596750928099479  0.647676240600646  0.04880007294429595  1.0000
  H   H87       1.0  0.983178122662892  0.14749085764312042  0.04879516007394358  1.0000
  H   H88       1.0  0.9340318133216029  0.3523243133134529  0.9512023556379249  1.0000
  H   H89       1.0  0.8725506915293906  0.7669229818042426  0.926760696746584  1.0000
  H   H90       1.0  0.9460600404572971  0.7331352930354954  0.07320943343881235  1.0000
  H   H91       1.0  0.12744754121710863  0.23308016065982434  0.07324183043078852  1.0000
  H   H92       1.0  0.05394065926106612  0.26686575808901136  0.9267921997187544  1.0000
  H   H93       1.0  0.8803177894795907  0.6590046838429019  0.7168274309765366  1.0000
  H   H94       1.0  0.16367512952844274  0.8409430287874361  0.2833224464584988  1.0000
  H   H95       1.0  0.11968161520837842  0.3409942570288962  0.2831725503194207  1.0000
  H   H96       1.0  0.8363207023745431  0.15905838120627894  0.716672871499739  1.0000
  H   H97       1.0  0.027212877792301637  0.7422023611547958  0.7429238360956847  1.0000
  H   H98       1.0  0.284394466601313  0.7577645739918142  0.2572449431495798  1.0000
  H   H99       1.0  0.972787765400234  0.2577955720974571  0.25707721449229853  1.0000
  H   H100      1.0  0.7156011719668953  0.24223640653348613  0.7427538710495156  1.0000
  H   H101      1.0  0.6105317358446386  0.5560160729724545  0.7333120435605525  1.0000
  H   H102      1.0  0.8773169517397574  0.9440132774506014  0.2666859180029136  1.0000
  H   H103      1.0  0.3894701143731609  0.4439834489076875  0.2666904828264976  1.0000
  H   H104      1.0  0.12268598601888668  0.05598990768002922  0.733318314627688  1.0000
  H   H105      1.0  0.608249743406624  0.4305102850440435  0.6806974276309817  1.0000
  H   H106      1.0  0.927597008596756  0.06955090238642471  0.3191398222977071  1.0000
  H   H107      1.0  0.39175137129085164  0.5694876600849099  0.31930409676271415  1.0000
  H   H108      1.0  0.07240766653318098  0.930450749320599  0.6808651376685406  1.0000
  H   H109      1.0  0.9330351274819861  0.45982751091911933  0.7333147271111571  1.0000
  H   H110      1.0  0.1997464063283871  0.04011138332418801  0.2665215205459006  1.0000
  H   H111      1.0  0.06696832646790803  0.5401745346262034  0.26668531519710115  1.0000
  H   H112      1.0  0.8002500266012261  0.9598880400240973  0.7334770733774294  1.0000
  H   H113      1.0  0.9339956754404283  0.585368413184611  0.7858432136988754  1.0000
  H   H114      1.0  0.14817171147351615  0.9145864564113494  0.21418059719451318  1.0000
  H   H115      1.0  0.06600228917318424  0.41463522297163996  0.21415837603579757  1.0000
  H   H116      1.0  0.8518260985718624  0.08541346414734362  0.7858172013041553  1.0000
  H   H117      1.0  0.6129863422150803  0.32167054655353416  0.6443944318847201  1.0000
  H   H118      1.0  0.9686141533298523  0.17833572699316144  0.35567527576741753  1.0000
  H   H119      1.0  0.38701705932648883  0.6783263225528631  0.3556054371090128  1.0000
  H   H120      1.0  0.03138593035260584  0.8216616727575571  0.644325124952303  1.0000
  H   H121      1.0  0.8538848615484439  0.21471726117535894  0.6052270869207277  1.0000
  H   H122      1.0  0.24867766414097053  0.2852014002005633  0.39477943069067584  1.0000
  H   H123      1.0  0.1461194474062069  0.785284286498545  0.3947737269363999  1.0000
  H   H124      1.0  0.7513223839446894  0.7148006543642538  0.6052209672810279  1.0000
  H   H125      1.0  0.9260815439962401  0.35638699535767426  0.6750514809975814  1.0000
  H   H126      1.0  0.2508821765891014  0.14352341490837262  0.32472902044403906  1.0000
  H   H127      1.0  0.07392311517667587  0.6436124455817378  0.32494782301598246  1.0000
  H   H128      1.0  0.7491170580083732  0.8564766173809063  0.6752732320756325  1.0000
  H   H129      1.0  0.07276669810239154  0.0094479194657708  0.4413374376049717  1.0000
  H   H130      1.0  0.6315819268708367  0.49077500731367985  0.5584824033873943  1.0000
  H   H131      1.0  0.9272344083600713  0.9905541427965052  0.5586632682786077  1.0000
  H   H132      1.0  0.36842063562300353  0.5092245704317478  0.44152235001015333  1.0000
  H   H133      1.0  0.06473972076656763  0.1378577298226631  0.4744592927961193  1.0000
  H   H134      1.0  0.5903013633296083  0.3623098612238707  0.525429975451246  1.0000
  H   H135      1.0  0.9352656798464379  0.8621454225350719  0.5255436365596113  1.0000
  H   H136      1.0  0.4096967148486712  0.6376895656426387  0.4745687604901293  1.0000
  H   H137      1.0  0.22515592738800913  0.22018866783508884  0.5253609821172917  1.0000
  H   H138      1.0  0.6998315106686731  0.2799341283508454  0.4745665747878718  1.0000
  H   H139      1.0  0.7748468184033541  0.7798112632782832  0.4746372424355272  1.0000
  H   H140      1.0  0.3001576189530013  0.7200651489587673  0.5254261914488937  1.0000
  H   H141      1.0  0.3973263541507138  0.046475587711199806  0.5096554175048597  1.0000
  H   H142      1.0  0.8880295092217664  0.45354163405302494  0.4904409199126648  1.0000
  H   H143      1.0  0.6026751631733447  0.9535254271221875  0.4903447703597977  1.0000
  H   H144      1.0  0.1119739082768306  0.5464574458209839  0.5095646050337523  1.0000
  C   C1        1.0  0.565072847939227  0.49823226530739373  0.2010659382929774  1.0000
  C   C2        1.0  0.3639234474363703  0.0016847455854289996  0.7988067622469401  1.0000
  C   C3        1.0  0.4349204919453554  0.5017655219061867  0.7989292846084481  1.0000
  C   C4        1.0  0.6360728395220361  0.9983129892592759  0.20118792075959402  1.0000
  C   C5        1.0  0.5860934567243702  0.4492021430930818  0.24131131943742906  1.0000
  C   C6        1.0  0.3446080847247259  0.0507291693114311  0.7585560779373708  1.0000
  C   C7        1.0  0.41390323430087517  0.5507967104625494  0.7586851793247291  1.0000
  C   C8        1.0  0.655392043644049  0.9492670789772788  0.24143965865430778  1.0000
  C   C9        1.0  0.5916612965957029  0.470490517323441  0.312426282534311  1.0000
  C   C10       1.0  0.27907390697913587  0.02943021311195081  0.6874272363362623  1.0000
  C   C11       1.0  0.40833965529852617  0.5295078293412844  0.6875706321132711  1.0000
  C   C12       1.0  0.7209261292670133  0.970567572118597  0.3125679149378088  1.0000
  C   C13       1.0  0.6056546800536394  0.42255206128986356  0.3473192620658026  1.0000
  C   C14       1.0  0.25829211239445726  0.07734334507875222  0.6525069123867908  1.0000
  C   C15       1.0  0.39434800509438617  0.5774468105179125  0.6526779706623742  1.0000
  C   C16       1.0  0.7417135130326213  0.9226576404999635  0.3474921142210476  1.0000
  C   C17       1.0  0.6165120052432657  0.3535890519413273  0.3122147066877191  1.0000
  C   C18       1.0  0.3043008315409141  0.14628565022238868  0.6876118148933872  1.0000
  C   C19       1.0  0.3834836315226866  0.6464077353501737  0.6877818934176149  1.0000
  C   C20       1.0  0.6957030939139274  0.8537164071996419  0.3123887012205844  1.0000
  C   C21       1.0  0.6122670236057671  0.33197057407680575  0.24150846888279184  1.0000
  C   C22       1.0  0.37068031352413283  0.16791115342979177  0.7583368699303819  1.0000
  C   C23       1.0  0.3877308685249829  0.6680277334395799  0.7584868823296134  1.0000
  C   C24       1.0  0.6293248463177646  0.8320919549393508  0.24166430622056373  1.0000
  C   C25       1.0  0.5969777153384966  0.38008480733357447  0.20654928184378463  1.0000
  C   C26       1.0  0.39025575555534436  0.11982245253106073  0.7933289379136212  1.0000
  C   C27       1.0  0.40301956255861177  0.6199140420428152  0.7934470510245434  1.0000
  C   C28       1.0  0.6097441926856745  0.8801748110746599  0.2066660372979001  1.0000
  C   C29       1.0  0.6196604560676561  0.25775821213360933  0.20103344288834535  1.0000
  C   C30       1.0  0.4186214640126237  0.24211228590463207  0.7988171256288581  1.0000
  C   C31       1.0  0.3803372344933038  0.7422437830476839  0.7989645860548151  1.0000
  C   C32       1.0  0.5813818513260712  0.7578882548107446  0.20118478139608004  1.0000
  C   C33       1.0  0.6331846711755844  0.6305536188404803  0.06532155666916145  1.0000
  C   C34       1.0  0.567923568480012  0.869375721427396  0.9345994953418428  1.0000
  C   C35       1.0  0.3668171142813749  0.3694469023007231  0.9346795686381882  1.0000
  C   C36       1.0  0.43207638156325606  0.13062573541211722  0.06539769396344754  1.0000
  C   C37       1.0  0.736449779156544  0.5492146035959067  0.05139481287115903  1.0000
  C   C38       1.0  0.6850934405583473  0.9507695795567843  0.948626188041189  1.0000
  C   C39       1.0  0.2635503378074732  0.4507843931411769  0.9486073954352962  1.0000
  C   C40       1.0  0.3149044807364518  0.04923238351262431  0.05137056150288539  1.0000
  C   C41       1.0  0.6909683289350568  0.5430452455981865  0.09722052147512276  1.0000
  C   C42       1.0  0.593738751345754  0.9570282777052915  0.9028912072688374  1.0000
  C   C43       1.0  0.30903272692133055  0.45695583345897023  0.9027822251876928  1.0000
  C   C44       1.0  0.4062585557153966  0.0429742272241214  0.09710652393115989  1.0000
  C   C45       1.0  0.7188420985800049  0.6266493530188485  0.979754219146038  1.0000
  C   C46       1.0  0.7392172643447311  0.8732801074503842  0.020166884217530972  1.0000
  C   C47       1.0  0.2811555728541748  0.37334906270989165  0.02024544406932451  1.0000
  C   C48       1.0  0.26078598803538017  0.12672562575985322  0.9798358358214829  1.0000
  C   C49       1.0  0.6414410135010443  0.6479849995192668  0.9330161718273332  1.0000
  C   C50       1.0  0.7085058448180774  0.851880198516639  0.06684222890798708  1.0000
  C   C51       1.0  0.35855604369947963  0.35201395806947744  0.06698447304394514  1.0000
  C   C52       1.0  0.2914957623133676  0.14812553117536711  0.9331603491129813  1.0000
  C   C53       1.0  0.6590664450569007  0.6632554118279756  0.8783892037136952  1.0000
  C   C54       1.0  0.780701441507581  0.8366558104119974  0.12154750150994435  1.0000
  C   C55       1.0  0.3409323768767081  0.33674147465639953  0.12161135273115063  1.0000
  C   C56       1.0  0.21929851445544554  0.16334778109465023  0.8784523111441586  1.0000
  C   C57       1.0  0.7528084390564941  0.6569692247035662  0.8693198838934678  1.0000
  C   C58       1.0  0.8835303590602664  0.8430296328011058  0.1307193192199848  1.0000
  C   C59       1.0  0.2471927030027672  0.343028182744618  0.1306808247381355  1.0000
  C   C60       1.0  0.1164671240111374  0.1569739153779608  0.8692787641051113  1.0000
  C   C61       1.0  0.8308142542531414  0.6375454800009807  0.9185024940097294  1.0000
  C   C62       1.0  0.9123901095719446  0.8624684092498214  0.0815736052861027  1.0000
  C   C63       1.0  0.16918829228367122  0.36245188697684944  0.08149660343513432  1.0000
  C   C64       1.0  0.08761134891103953  0.13753573951176892  0.9184278048476742  1.0000
  C   C65       1.0  0.814667594084085  0.6226778684962683  0.9734566786206714  1.0000
  C   C66       1.0  0.8413728421664715  0.8773239531888068  0.02657813282306885  1.0000
  C   C67       1.0  0.18533145446586016  0.37732104444287984  0.026542189170036992  1.0000
  C   C68       1.0  0.158631200457542  0.12268228141107333  0.973423957685121  1.0000
  C   C69       1.0  0.7696088202140032  0.6589254695383958  0.8021126840583082  1.0000
  C   C70       1.0  0.9675782182296614  0.8410535056212041  0.1979257541778168  1.0000
  C   C71       1.0  0.23039176233518793  0.341071404408254  0.19788737470503295  1.0000
  C   C72       1.0  0.03242145047369882  0.15894700012507465  0.8020747553057818  1.0000
  C   C73       1.0  0.6876387519266274  0.690495315062279  0.756407386134427  1.0000
  C   C74       1.0  0.9312705006227802  0.8094986338006083  0.2436024531644066  1.0000
  C   C75       1.0  0.3123593636507068  0.309503650223931  0.24359356664873397  1.0000
  C   C76       1.0  0.0687276655606227  0.19050131469072804  0.756396458839511  1.0000
  C   C77       1.0  0.6574318005721196  0.7549181441986621  0.7879820237427354  1.0000
  C   C78       1.0  0.8695425235299296  0.7450384345608185  0.212003490932034  1.0000
  C   C79       1.0  0.3425661996382914  0.24508083714349746  0.21201956873996153  1.0000
  C   C80       1.0  0.13045881778387527  0.2549615370229077  0.7879963448075246  1.0000
  C   C81       1.0  0.5928099921990437  0.7883535633797863  0.746953922268574  1.0000
  C   C82       1.0  0.8458877905019548  0.7115921764051836  0.2529968133993209  1.0000
  C   C83       1.0  0.40719003675984305  0.2116449117324777  0.2530481099753317  1.0000
  C   C84       1.0  0.1541132826789565  0.2884082888707269  0.747002084897538  1.0000
  C   C85       1.0  0.5576870159204504  0.7576600076267896  0.6727253200870964  1.0000
  C   C86       1.0  0.8849275433698054  0.7423416845479452  0.3272128692004373  1.0000
  C   C87       1.0  0.44231086892303745  0.2423389897713123  0.3272769120951438  1.0000
  C   C88       1.0  0.11507193928602523  0.25765770184820275  0.6727842555541983  1.0000
  C   C89       1.0  0.5873198280550723  0.6939346365101856  0.640315375355229  1.0000
  C   C90       1.0  0.9468575024872407  0.8060982690987971  0.3596281029151315  1.0000
  C   C91       1.0  0.41267790402245197  0.3060648385241508  0.3596852796847615  1.0000
  C   C92       1.0  0.05313916529372177  0.19389906357093883  0.6403696208641706  1.0000
  C   C93       1.0  0.6521943206085582  0.6611170801345312  0.682118909545821  1.0000
  C   C94       1.0  0.9699894081479171  0.8389410893760713  0.3178773914765146  1.0000
  C   C95       1.0  0.3478047653404417  0.3388813712243249  0.3178821750866662  1.0000
  C   C96       1.0  0.030009080891964874  0.16105729006154232  0.6821208264459315  1.0000
  C   C97       1.0  0.4942958593306629  0.7935361142025955  0.5673304419531321  1.0000
  C   C98       1.0  0.9269146398867393  0.706500445432127  0.4326132622935291  1.0000
  C   C99       1.0  0.5057068043753361  0.20646542995308445  0.4326702298859503  1.0000
  C   C100      1.0  0.07308299234613005  0.29349423864311325  0.5673819699862932  1.0000
  C   C101      1.0  0.37353924239067743  0.8530558968952775  0.5910180421694805  1.0000
  C   C102      1.0  0.7824890202136175  0.6469314073211907  0.40885467308096685  1.0000
  C   C103      1.0  0.6264629789744234  0.14694929093672474  0.408983554195558  1.0000
  C   C104      1.0  0.21750893667798016  0.3530659009341265  0.5911420792111316  1.0000
  C   C105      1.0  0.4162176417649802  0.8296612075493711  0.6461049665617793  1.0000
  C   C106      1.0  0.7700892006847369  0.6703544165604925  0.353796147096034  1.0000
  C   C107      1.0  0.583785313318195  0.17034136380002  0.3538954177028657  1.0000
  C   C108      1.0  0.2299068469428108  0.32964132330211277  0.6461999349903708  1.0000
  C   C109      1.0  0.20191024925485132  0.8350893706555385  0.8546774705815353  1.0000
  C   C110      1.0  0.3474457812208628  0.6649820000208706  0.14527824151835494  1.0000
  C   C111      1.0  0.7980919571009721  0.16491017915724632  0.1453261693107635  1.0000
  C   C112      1.0  0.6525536941477058  0.3350180762569935  0.8547257642061085  1.0000
  C   C113      1.0  0.10871217939450156  0.922315168320978  0.871806336751284  1.0000
  C   C114      1.0  0.2372008986377453  0.5777381575898275  0.12819489839036186  1.0000
  C   C115      1.0  0.891286083029044  0.07768118466186283  0.12819356982529942  1.0000
  C   C116      1.0  0.7627981658692277  0.42226296611692504  0.8718096253530235  1.0000
  C   C117      1.0  0.19987727765133217  0.9462877478734842  0.8720487927870055  1.0000
  C   C118      1.0  0.3280926762873193  0.5537563142371555  0.12784620140442382  1.0000
  C   C119      1.0  0.8001216281699044  0.053711718802375706  0.12795153046533156  1.0000
  C   C120      1.0  0.6719062021721245  0.4462436901194737  0.8721549376099917  1.0000
  C   C121      1.0  0.029595627190382078  0.8023257099675404  0.8482621248428402  1.0000
  C   C122      1.0  0.18157246748663877  0.6977137169737447  0.15184022558331384  1.0000
  C   C123      1.0  0.9704083438985264  0.19767176874086095  0.15174142662301907  1.0000
  C   C124      1.0  0.8184256854897427  0.3022847867321731  0.8481629440416257  1.0000
  C   C125      1.0  0.9863791154699442  0.8097864448847363  0.9000622249211861  1.0000
  C   C126      1.0  0.08660666499683595  0.6903156978014097  0.10000803610351744  1.0000
  C   C127      1.0  0.013625262363056806  0.19021204496144153  0.0999403992706931  1.0000
  C   C128      1.0  0.9133933366002508  0.3096833149916165  0.8999948119024738  1.0000
  C   C129      1.0  0.9057869721714269  0.7613324835261539  0.8860506381265197  1.0000
  C   C130      1.0  0.019966736777455252  0.738738307893634  0.11396796339699486  1.0000
  C   C131      1.0  0.0942143185363022  0.23866650485245344  0.11395123839226781  1.0000
  C   C132      1.0  0.9800338516914948  0.2612607007201575  0.886034718715166  1.0000
  C   C133      1.0  0.8668985190343079  0.7060879653033896  0.8206154597276696  1.0000
  C   C134      1.0  0.046409867461235904  0.7939174282309623  0.17944208064139397  1.0000
  C   C135      1.0  0.13310153728636456  0.29390997212810527  0.17938575675414373  1.0000
  C   C136      1.0  0.9535872503826324  0.2060825886633779  0.8205595560545191  1.0000
  C   C137      1.0  0.9112287963893523  0.6999266520056439  0.7691249699480381  1.0000
  C   C138      1.0  0.14222329058176805  0.800066686952917  0.23097798356265298  1.0000
  C   C139      1.0  0.08877385230736222  0.30006925413081126  0.23087774541829734  1.0000
  C   C140      1.0  0.8577722367370199  0.1999322510616608  0.7690218795910368  1.0000
  C   C141      1.0  0.9932224011905716  0.7469973041764888  0.7831264683385656  1.0000
  C   C142      1.0  0.21024414197572852  0.7530007919633308  0.21700198289540412  1.0000
  C   C143      1.0  0.00678186539300901  0.25299914315896643  0.21687720480790773  1.0000
  C   C144      1.0  0.7897507711094108  0.24699868791125826  0.7829988619142086  1.0000
  C   C145      1.0  0.7721431758302089  0.5810974976738309  0.7626913682920177  1.0000
  C   C146      1.0  0.009539115138274244  0.9188815095455851  0.2373234954183304  1.0000
  C   C147      1.0  0.22785640486802086  0.4189024864476139  0.23730896512903146  1.0000
  C   C148      1.0  0.9904598180447549  0.08111741944950523  0.7626760120719142  1.0000
  C   C149      1.0  0.6817417888380176  0.5353794242034909  0.7330401183419255  1.0000
  C   C150      1.0  0.9487795138655172  0.9646127992959141  0.26693440208589453  1.0000
  C   C151      1.0  0.31825738511611235  0.46461954878018474  0.26696114235310386  1.0000
  C   C152      1.0  0.051223417973368074  0.035388251167582006  0.7330672071958872  1.0000
  C   C153      1.0  0.6803630690440485  0.4637531013282583  0.7033963757821979  1.0000
  C   C154      1.0  0.9770245741731429  0.03623824308898091  0.2965124997537103  1.0000
  C   C155      1.0  0.31963919203535346  0.5362453731229878  0.2966056325859229  1.0000
  C   C156      1.0  0.02297882917068242  0.9637628192512154  0.7034895833337771  1.0000
  C   C157      1.0  0.7708943335842237  0.43556463998162104  0.7031028868076563  1.0000
  C   C158      1.0  0.06784176708139004  0.0644229983458828  0.2968052192169139  1.0000
  C   C159      1.0  0.22910754399536154  0.5644343442177516  0.29689882381730115  1.0000
  C   C160      1.0  0.9321592787377356  0.9355780046107968  0.7031944948420304  1.0000
  C   C161      1.0  0.8616357056786512  0.480176253181469  0.7330370860628863  1.0000
  C   C162      1.0  0.12869357558557232  0.0198181209599966  0.2669152775410026  1.0000
  C   C163      1.0  0.13836328814771548  0.5198237351192179  0.26696341325200024  1.0000
  C   C164      1.0  0.8713041149753876  0.980183874221297  0.733082751402151  1.0000
  C   C165      1.0  0.8618496935495018  0.5520746535008101  0.7625981133966705  1.0000
  C   C166      1.0  0.09931623872314795  0.9479244188099477  0.23742527308450448  1.0000
  C   C167      1.0  0.13815056202570727  0.44792584806622665  0.2374022301930978  1.0000
  C   C168      1.0  0.9006805735887723  0.05207655335687632  0.7625732093269307  1.0000
  C   C169      1.0  0.6888582715728616  0.31249793099571843  0.6443580837827483  1.0000
  C   C170      1.0  0.044469763082041515  0.18746529908833054  0.355594519442029  1.0000
  C   C171      1.0  0.31114680438141556  0.68750259718194  0.3556433255607062  1.0000
  C   C172      1.0  0.9555308153496468  0.8125336334249837  0.6444051300662608  1.0000
  C   C173      1.0  0.8167089680078587  0.2593030989655318  0.625192078437216  1.0000
  C   C174      1.0  0.19148969498861132  0.24063970631628712  0.37478608176473227  1.0000
  C   C175      1.0  0.1832970509562912  0.7406974529655344  0.374810278517657  1.0000
  C   C176      1.0  0.8085088879761599  0.7593613294132882  0.6252149355690763  1.0000
  C   C177      1.0  0.8520013807856017  0.3287213420029432  0.6596916382329925  1.0000
  C   C178      1.0  0.192217893701276  0.17123898613930785  0.3401589416569736  1.0000
  C   C179      1.0  0.1480031082968126  0.6712791903539569  0.3403099370042925  1.0000
  C   C180      1.0  0.8077847426429232  0.8287630956971415  0.6598425459441944  1.0000
  C   C181      1.0  0.24263942635322167  0.942733480383332  0.45231747349958357  1.0000
  C   C182      1.0  0.7905506235516951  0.5573126279578063  0.5475575528090176  1.0000
  C   C183      1.0  0.7573626778427068  0.057267530270813403  0.5476825484712435  1.0000
  C   C184      1.0  0.20945164344746572  0.4426879811605744  0.4524470789079161  1.0000
  C   C185      1.0  0.23547692920326574  0.0197939527880848  0.4712497260841886  1.0000
  C   C186      1.0  0.764454049539566  0.4802747162995189  0.5286647223303262  1.0000
  C   C187      1.0  0.7645274071131779  0.9802070572050497  0.5287502720108465  1.0000
  C   C188      1.0  0.23554883169324375  0.5197253509588506  0.47133892773069164  1.0000
  C   C189      1.0  0.14184743979962633  0.045839244712027515  0.4628272481219469  1.0000
  C   C190      1.0  0.6791649763977218  0.4543154784316387  0.5370623283826533  1.0000
  C   C191      1.0  0.8581563976500844  0.9541622910851686  0.5371730919294677  1.0000
  C   C192      1.0  0.32083698918699344  0.5456840273925607  0.46293955830485345  1.0000
  C   C193      1.0  0.1379153213588893  0.11778074896550814  0.4821265599516381  1.0000
  C   C194      1.0  0.6558405325098133  0.38238042905872066  0.517784029722428  1.0000
  C   C195      1.0  0.8620868708421625  0.8822207833134644  0.5178736380817386  1.0000
  C   C196      1.0  0.3441586314070549  0.6176184678244852  0.4822141983687375  1.0000
  C   C197      1.0  0.2269710959414794  0.16410484161344396  0.5109459214391592  1.0000
  C   C198      1.0  0.7161095301502768  0.3360296644411493  0.4890148209919545  1.0000
  C   C199      1.0  0.7730315951263053  0.8358961648614669  0.4890539346378376  1.0000
  C   C200      1.0  0.28388927762856764  0.6639692045094067  0.510982293593962  1.0000
  C   C201      1.0  0.321189617189404  0.13865955996187307  0.5223388926397945  1.0000
  C   C202      1.0  0.7989630567367241  0.36140748623560637  0.47762306208525024  1.0000
  C   C203      1.0  0.6788138408780071  0.8613404270167848  0.4776615589235221  1.0000
  C   C204      1.0  0.2010367273335518  0.6385930034547229  0.5223768076988051  1.0000
  C   C205      1.0  0.324449060075402  0.06655885974794272  0.5014765862260832  1.0000
  C   C206      1.0  0.8232163193852384  0.43348192722635304  0.49849986640088423  1.0000
  C   C207      1.0  0.6755540418539849  0.9334410992980794  0.49852275183197764  1.0000
  C   C208      1.0  0.176786945347388  0.5665176302838975  0.5015040814032903  1.0000
  C   C209      1.0  0.41925285169066484  0.18710690283026574  0.5546350577117637  1.0000
  C   C210      1.0  0.8646462166164708  0.3128959605787502  0.4453615385462372  1.0000
  C   C211      1.0  0.580750134871799  0.8128930722716918  0.44536492004584016  1.0000
  C   C212      1.0  0.13535132529602126  0.6871044536721203  0.5546353225097321  1.0000
  N   N1        1.0  0.6275535786277046  0.5942990172209975  0.10567931082904646  1.0000
  N   N2        1.0  0.5218683908763567  0.9057771041183076  0.8944277436720257  1.0000
  N   N3        1.0  0.3724493591309398  0.405704167909633  0.8943249218015483  1.0000
  N   N4        1.0  0.47813052815190094  0.0942238073429706  0.10556832195928935  1.0000
  N   N5        1.0  0.6988299413417495  0.6047406034463024  0.031215822626336376  1.0000
  N   N6        1.0  0.6677233471002281  0.8951474279829271  0.9686639567208247  1.0000
  N   N7        1.0  0.30117116923821663  0.3952594002493159  0.9687852925123014  1.0000
  N   N8        1.0  0.33227889570689934  0.10485508750117133  0.03133420053331553  1.0000
  N   N9        1.0  0.42287859597857386  0.8304671063204837  0.5426088124071242  1.0000
  N   N10       1.0  0.8802339924749562  0.6695120765650203  0.4572882250026782  1.0000
  N   N11       1.0  0.5771263878530704  0.1695349587990123  0.4573920116187225  1.0000
  N   N12       1.0  0.11976031778129945  0.33048519672119897  0.5427071297480808  1.0000
  N   N13       1.0  0.49252985184079284  0.7920035248918611  0.6304757685772275  1.0000
  N   N14       1.0  0.8620140221616808  0.7080154155245141  0.36945477302598567  1.0000
  N   N15       1.0  0.5074715501163496  0.2079975059974615  0.369525058986973  1.0000
  N   N16       1.0  0.13798243632747645  0.2919792769092029  0.6305407910414901  1.0000
  N   N17       1.0  0.25699183790656127  0.891504992345347  0.8617460579171097  1.0000
  N   N18       1.0  0.3954498104486673  0.6085627814178239  0.13813895787000524  1.0000
  N   N19       1.0  0.7430079502812177  0.10849343877832503  0.13825422112201122  1.0000
  N   N20       1.0  0.6045486945482355  0.3914378087874013  0.8618649160051249  1.0000
  N   N21       1.0  0.11109480803110482  0.8515461574935163  0.8604190425703495  1.0000
  N   N22       1.0  0.25093491277639396  0.6485189989813666  0.13961800463057028  1.0000
  N   N23       1.0  0.888907249676251  0.14845181138884564  0.13958342943476512  1.0000
  N   N24       1.0  0.7490646779590975  0.35148106124055545  0.86038536139435  1.0000
  N   N25       1.0  0.7153497268243639  0.2501670038011811  0.6163160577989332  1.0000
  N   N26       1.0  0.09902256221874241  0.24977696360564755  0.38367982146254326  1.0000
  N   N27       1.0  0.2846548776249734  0.7498335124997766  0.38368487773880844  1.0000
  N   N28       1.0  0.900976838351724  0.7502240358328081  0.6163197505783558  1.0000
  N   N29       1.0  0.7705499132529566  0.3624281639757144  0.6718977579980745  1.0000
  N   N30       1.0  0.09857115444413725  0.1375523133362009  0.3279646509082569  1.0000
  N   N31       1.0  0.22945510205798322  0.6375713048963477  0.328102659520738  1.0000
  N   N32       1.0  0.9014282734881219  0.8624481484214856  0.6720341053705498  1.0000
  O   O1        1.0  0.580971375642882  0.5644413528380883  0.23880563261935353  1.0000
  O   O2        1.0  0.3421676061818957  0.935469058589007  0.7611052274493134  1.0000
  O   O3        1.0  0.4190258416108819  0.4355564372327054  0.7611897084243326  1.0000
  O   O4        1.0  0.6578309667456067  0.06453190104009822  0.23889275728062392  1.0000
  O   O5        1.0  0.533007530290348  0.4747896784087688  0.1341660516315956  1.0000
  O   O6        1.0  0.3987486699784101  0.025169541948528704  0.8657222709780684  1.0000
  O   O7        1.0  0.46698601708379084  0.5252065558070315  0.8658291168878947  1.0000
  O   O8        1.0  0.6012459922983667  0.974829817836998  0.1342737880228811  1.0000
  O   O9        1.0  0.6338546468498336  0.21483892212226155  0.23541810068093844  1.0000
  O   O10       1.0  0.39859239296423254  0.28500346630424644  0.7643776158962582  1.0000
  O   O11       1.0  0.36613959452807193  0.7851614089916839  0.7645754437350691  1.0000
  O   O12       1.0  0.6014139880577003  0.7149992482265974  0.23562847791267677  1.0000
  O   O13       1.0  0.6108870634667056  0.24005619606293038  0.1365527880058366  1.0000
  O   O14       1.0  0.4741735316673329  0.2598228284798126  0.863318236367853  1.0000
  O   O15       1.0  0.389111648072003  0.759946268396121  0.8634433320074211  1.0000
  O   O16       1.0  0.5258308562029299  0.740175737466835  0.13668742042789014  1.0000
  O   O17       1.0  0.3276426330122675  0.9251164120244724  0.4441714080512256  1.0000
  O   O18       1.0  0.8837549388630636  0.5749743569628338  0.5558870431770375  1.0000
  O   O19       1.0  0.6723612965600766  0.07488358683089301  0.5558295173177968  1.0000
  O   O20       1.0  0.11624273849087542  0.4250261934330411  0.4441152433871381  1.0000
  O   O21       1.0  0.17130286926839491  0.902193503311686  0.4466082920538241  1.0000
  O   O22       1.0  0.7248278362110055  0.597819546790312  0.5530758454261502  1.0000
  O   O23       1.0  0.8286991469223963  0.09780698571763222  0.5533915538544535  1.0000
  O   O24       1.0  0.2751744955490026  0.40218006306700727  0.44693018737048373  1.0000
  O   O25       1.0  0.49882543375039035  0.1586347657044272  0.57985636156657  1.0000
  O   O26       1.0  0.91892185801548  0.3412449629690287  0.4200185826377236  1.0000
  O   O27       1.0  0.5011783704177759  0.8413651731064034  0.4201421708981243  1.0000
  O   O28       1.0  0.08107741715079436  0.6587559764248924  0.5799785964988473  1.0000
  O   O29       1.0  0.41979692788559936  0.24789166637545887  0.5538017424542332  1.0000
  O   O30       1.0  0.8660821425831883  0.2521686065227442  0.4463618976399602  1.0000
  O   O31       1.0  0.5802050003000687  0.7521083010290326  0.44619792739149494  1.0000
  O   O32       1.0  0.1339155420580127  0.7478312539914143  0.5536335079543805  1.0000
