data_image0
_chemical_formula_structural       Co2H12C16N8O4
_chemical_formula_sum              "Co2 H12 C16 N8 O4"
_cell_length_a       7.334003439945807
_cell_length_b       7.334086862900583
_cell_length_c       10.043124134793667
_cell_angle_alpha    111.40453277943209
_cell_angle_beta     111.40486102552563
_cell_angle_gamma    89.96627941850493

_space_group_name_H-M_alt    "P 1"
_space_group_IT_number       1

loop_
  _space_group_symop_operation_xyz
  'x, y, z'

loop_
  _atom_site_type_symbol
  _atom_site_label
  _atom_site_symmetry_multiplicity
  _atom_site_fract_x
  _atom_site_fract_y
  _atom_site_fract_z
  _atom_site_occupancy
  Co  Co1       1.0  0.4998873416543362  0.49992190148491733  0.9999329403230627  1.0000
  Co  Co2       1.0  0.7499189211910604  0.24988954098263605  0.49993201289708356  1.0000
  H   H1        1.0  0.2053526472212752  0.3749074278020289  0.24998383042711936  1.0000
  H   H2        1.0  0.04475557582497198  0.8751475954728675  0.2501988544347994  1.0000
  H   H3        1.0  0.12516307210093913  0.7947590825798728  0.7502068167068358  1.0000
  H   H4        1.0  0.6249193869575222  0.955353796983019  0.7499918644653149  1.0000
  H   H5        1.0  0.9128577758138549  0.41502674309604254  0.03310950879335913  1.0000
  H   H6        1.0  0.12048646285676061  0.6184236309314458  0.03328183534901543  1.0000
  H   H7        1.0  0.381815095496684  0.0872457396523956  0.9669608169968452  1.0000
  H   H8        1.0  0.5849081879535802  0.8794922409035523  0.9667957566337505  1.0000
  H   H9        1.0  0.33722768426635247  0.1318089074101465  0.46694746600550013  1.0000
  H   H10       1.0  0.1295047195167953  0.3349245736471572  0.46680999149420166  1.0000
  H   H11       1.0  0.8684217514669967  0.8704932792345588  0.5332977500167146  1.0000
  H   H12       1.0  0.6650154508277099  0.6628649118200302  0.5330981512718292  1.0000
  C   C1        1.0  0.677734443910282  0.37496091021659333  0.24990367345967707  1.0000
  C   C2        1.0  0.5722291005484763  0.8749696970686287  0.24998026808801638  1.0000
  C   C3        1.0  0.12494779759165202  0.32222149041093934  0.7499754004185062  1.0000
  C   C4        1.0  0.6249508349675139  0.427730651044115  0.7498997284808621  1.0000
  C   C5        1.0  0.056824702872582115  0.3748964059554113  0.24990903053511454  1.0000
  C   C6        1.0  0.19326728443699184  0.8750702411864851  0.25018467638283687  1.0000
  C   C7        1.0  0.12507542743898634  0.943261107475678  0.7501732482675789  1.0000
  C   C8        1.0  0.6249032965174734  0.8068215790558428  0.7499146012380746  1.0000
  C   C9        1.0  0.8976557728341777  0.3990748353245479  0.13243372370163795  1.0000
  C   C10       1.0  0.23503643577388542  0.733551687417389  0.13263128002432006  1.0000
  C   C11       1.0  0.2665744885002397  0.10244948017853522  0.8676074913918439  1.0000
  C   C12       1.0  0.6007876733171004  0.7649792459549192  0.8674030838725526  1.0000
  C   C13       1.0  0.3524496415455475  0.0165733974637021  0.3676164166196471  1.0000
  C   C14       1.0  0.014971079555905898  0.35076457371245345  0.3674000406335266  1.0000
  C   C15       1.0  0.9835508519863724  0.9850314001778104  0.6326173926460754  1.0000
  C   C16       1.0  0.6490973394341637  0.6476665380201825  0.6324434213334695  1.0000
  N   N1        1.0  0.7155285758849105  0.40468738331067305  0.13331794490300544  1.0000
  N   N2        1.0  0.4179647839330585  0.7287312745942742  0.13339591819325136  1.0000
  N   N3        1.0  0.27127106983181193  0.2845045189033543  0.8666297159530881  1.0000
  N   N4        1.0  0.5951764189996425  0.5820076072722956  0.8665263653065478  1.0000
  N   N5        1.0  0.5345045516196195  0.0212662021894232  0.3666296908994226  1.0000
  N   N6        1.0  0.8320134445147361  0.34519143841191646  0.3665432221988566  1.0000
  N   N7        1.0  0.9787299485850839  0.16796615645044707  0.6333999534727537  1.0000
  N   N8        1.0  0.6546728285314887  0.46552233026547907  0.6333021681480842  1.0000
  O   O1        1.0  0.5068381927845068  0.3749905172931919  0.24992270784630216  1.0000
  O   O2        1.0  0.743087123603047  0.8749465009383217  0.24990982859579683  1.0000
  O   O3        1.0  0.12493728738814981  0.49307004270617943  0.7498858468783138  1.0000
  O   O4        1.0  0.6249822439345111  0.2568338150866652  0.7499022311083576  1.0000
