data_image0
_chemical_formula_structural       Al2H24C48S6O30
_chemical_formula_sum              "Al2 H24 C48 S6 O30"
_cell_length_a       4.312548128174955
_cell_length_b       28.771108330748838
_cell_length_c       28.771213800939712
_cell_angle_alpha    119.99699869646246
_cell_angle_beta     89.99740004282802
_cell_angle_gamma    90.00074579855097

_space_group_name_H-M_alt    "P 1"
_space_group_IT_number       1

loop_
  _space_group_symop_operation_xyz
  'x, y, z'

loop_
  _atom_site_type_symbol
  _atom_site_label
  _atom_site_symmetry_multiplicity
  _atom_site_fract_x
  _atom_site_fract_y
  _atom_site_fract_z
  _atom_site_occupancy
  Al  Al1       1.0  0.9642065075104754  0.4999995577450633  0.4999983342857348  1.0000
  Al  Al2       1.0  0.9638702214377871  0.16665881311563185  0.8333456733661181  1.0000
  H   H1        1.0  0.50372482965156  0.17049112306462896  0.6953969177403039  1.0000
  H   H2        1.0  0.5670548532429647  0.21562765246885374  0.6413415016150382  1.0000
  H   H3        1.0  0.5331361682236988  0.36994335164642694  0.7865359527318462  1.0000
  H   H4        1.0  0.5330603245571693  0.29670421996471663  0.5468021764339284  1.0000
  H   H5        1.0  0.5042555011873803  0.49615595647806277  0.6379412904227449  1.0000
  H   H6        1.0  0.5673565297464193  0.45101987813848154  0.6920012038198067  1.0000
  H   H7        1.0  0.5037005065610742  0.024882895014123226  0.8294945060263147  1.0000
  H   H8        1.0  0.5670524339130054  0.9256927859500906  0.7843599929366717  1.0000
  H   H9        1.0  0.5330723194977763  0.916590935491385  0.6300479771910119  1.0000
  H   H10       1.0  0.5330284844220968  0.750085582082832  0.7032813373871463  1.0000
  H   H11       1.0  0.504240407873631  0.6417829402963448  0.5038263369102863  1.0000
  H   H12       1.0  0.5674023903902352  0.7409773559035459  0.5489635493521874  1.0000
  H   H13       1.0  0.5037439308367482  0.3045888290350689  0.9750838537062946  1.0000
  H   H14       1.0  0.5671122002560551  0.3586692699360157  0.07427557507306656  1.0000
  H   H15       1.0  0.5329993789203585  0.2134903640184262  0.08344001882474568  1.0000
  H   H16       1.0  0.5331190612244754  0.45321314351566133  0.24991070248356803  1.0000
  H   H17       1.0  0.5042039424928788  0.3620577045697146  0.35821527948061055  1.0000
  H   H18       1.0  0.5672976590310411  0.3080041724817447  0.2590179919753908  1.0000
  H   H19       1.0  0.9803537202688801  0.32236282390968546  0.8842881383835319  1.0000
  H   H20       1.0  0.9804229322696332  0.3443069309262016  0.44906796057488674  1.0000
  H   H21       1.0  0.9803041524137655  0.061927796492654  0.6776396162017236  1.0000
  H   H22       1.0  0.9804284473477692  0.6047552753163358  0.6556892639657547  1.0000
  H   H23       1.0  0.9802322427825059  0.11572587486688249  0.9381134579534773  1.0000
  H   H24       1.0  0.9804933954413285  0.5509418732826744  0.3952446479237182  1.0000
  C   C1        1.0  0.4672140844763462  0.4681721362350757  0.4200784476972927  1.0000
  C   C2        1.0  0.4672173161173063  0.451903583269136  0.5318273976291437  1.0000
  C   C3        1.0  0.4672157751504569  0.5799218660698814  0.5480912125148266  1.0000
  C   C4        1.0  0.4668716644810047  0.21475026418779208  0.8015189978847985  1.0000
  C   C5        1.0  0.4668592947237329  0.08674740427377278  0.7852453211443874  1.0000
  C   C6        1.0  0.4668563472975578  0.19848067276360123  0.9132564744411623  1.0000
  C   C7        1.0  0.49736299664471784  0.24434305631434947  0.7712249125661542  1.0000
  C   C8        1.0  0.5182511112518  0.21414437445453435  0.7151230264233703  1.0000
  C   C9        1.0  0.553129431155675  0.23930353093626186  0.6849417413399266  1.0000
  C   C10       1.0  0.5639476456348049  0.29580418304977496  0.7102151632665042  1.0000
  C   C11       1.0  0.5388763701802616  0.32630022328750397  0.7665285313941866  1.0000
  C   C12       1.0  0.5066971778878582  0.3006139051805051  0.7963785047039168  1.0000
  C   C13       1.0  0.5815439302710105  0.32190139451770244  0.6797041319376973  1.0000
  C   C14       1.0  0.5814885824866279  0.3447466029156629  0.6536393582271245  1.0000
  C   C15       1.0  0.5640591707936125  0.37084209590240386  0.6231295199488613  1.0000
  C   C16       1.0  0.5388724568701876  0.3403459717614298  0.5668130036756337  1.0000
  C   C17       1.0  0.506788017220984  0.36603833888995757  0.5369732801738821  1.0000
  C   C18       1.0  0.4975693625224409  0.42230852503903543  0.5621234542678123  1.0000
  C   C19       1.0  0.5185938236974224  0.4525007883984387  0.6182232145334723  1.0000
  C   C20       1.0  0.5534213925463972  0.4273402675422702  0.6484041360655084  1.0000
  C   C21       1.0  0.49730025850815446  0.02686270710206895  0.7556469891188301  1.0000
  C   C22       1.0  0.5181546152812118  0.0009506126048748816  0.7858413434348465  1.0000
  C   C23       1.0  0.5530790716751779  0.9456151318028958  0.7606822007052899  1.0000
  C   C24       1.0  0.5638989080299197  0.9144004128907213  0.7041888023955281  1.0000
  C   C25       1.0  0.5388336260072536  0.9402180747792029  0.673688519084905  1.0000
  C   C26       1.0  0.5066284483426529  0.9957507694823204  0.6993719292865207  1.0000
  C   C27       1.0  0.5814654245358071  0.8577929609985943  0.6780912944212644  1.0000
  C   C28       1.0  0.581494588007061  0.8088833017608223  0.6552398910369562  1.0000
  C   C29       1.0  0.564074828016409  0.7522816058745789  0.6291458329801999  1.0000
  C   C30       1.0  0.5388983529681184  0.7264593956454206  0.6596377009811292  1.0000
  C   C31       1.0  0.5067912059156612  0.6709263513294773  0.6339473057917432  1.0000
  C   C32       1.0  0.4976089169310284  0.6398110021568756  0.5776785549776591  1.0000
  C   C33       1.0  0.5186300347107391  0.6657162230501541  0.5474832251708719  1.0000
  C   C34       1.0  0.5534595416939041  0.7210588993820936  0.5726473190161556  1.0000
  C   C35       1.0  0.4973549166533785  0.22877667894999143  0.9731394819754727  1.0000
  C   C36       1.0  0.5182250825655074  0.28487896468713114  0.9990267016572788  1.0000
  C   C37       1.0  0.5531192758608937  0.3150652768014409  0.05436674547458858  1.0000
  C   C38       1.0  0.5638402829215181  0.28980024846175206  0.08560111080861078  1.0000
  C   C39       1.0  0.5387498516183059  0.23349382028111879  0.05980475016932729  1.0000
  C   C40       1.0  0.5066205161382699  0.20362990038955078  0.004265743784088683  1.0000
  C   C41       1.0  0.5814351551334979  0.3203210446996323  0.14220439963272466  1.0000
  C   C42       1.0  0.5814613401071256  0.3463737572661215  0.1911128519344416  1.0000
  C   C43       1.0  0.5640652972105897  0.3768801429517482  0.2477202941284133  1.0000
  C   C44       1.0  0.5389255613880549  0.43319434020207837  0.2735390186812978  1.0000
  C   C45       1.0  0.5068399611121707  0.4630363391093724  0.32907314783983566  1.0000
  C   C46       1.0  0.4976215030117929  0.4378790421001709  0.3601901477432818  1.0000
  C   C47       1.0  0.5186036269981643  0.3817780752888496  0.33428124829736566  1.0000
  C   C48       1.0  0.5534045161678235  0.35160195714208703  0.278935945527536  1.0000
  S   S1        1.0  0.42625802387755835  0.34312160492719823  0.8662994127100704  1.0000
  S   S2        1.0  0.4263083873840471  0.3235308481707264  0.4670522476359125  1.0000
  S   S3        1.0  0.4261854227097217  0.023171986309584818  0.65687099627921  1.0000
  S   S4        1.0  0.4263091094880878  0.6435176368802545  0.6764636526824361  1.0000
  S   S5        1.0  0.42610695929993625  0.1337198963566596  0.976871438116092  1.0000
  S   S6        1.0  0.4264246689771695  0.5329621321220727  0.35649374383391563  1.0000
  O   O1        1.0  0.6929343021208467  0.5539594390945908  0.5528752427177325  1.0000
  O   O2        1.0  0.6929388234904366  0.4989167577566676  0.4460334857191627  1.0000
  O   O3        1.0  0.6929398275784492  0.44711583040807307  0.5010787902150539  1.0000
  O   O4        1.0  0.22473152100289437  0.5610744499574025  0.519755144707929  1.0000
  O   O5        1.0  0.2247340187285403  0.4802391683719023  0.5413132415012071  1.0000
  O   O6        1.0  0.22471149445840413  0.4586834153764343  0.4389230163687258  1.0000
  O   O7        1.0  0.692583960270035  0.16772839148658397  0.887306908974864  1.0000
  O   O8        1.0  0.6925945494915879  0.21955889417125027  0.8322751259030597  1.0000
  O   O9        1.0  0.6926000789867856  0.11269818088825923  0.7804471204203695  1.0000
  O   O10       1.0  0.22442753989975017  0.2079716468751159  0.894396709530689  1.0000
  O   O11       1.0  0.2244121474776009  0.1055944958026774  0.8135917090424628  1.0000
  O   O12       1.0  0.22441892532398808  0.18640437269102256  0.7920242613929886  1.0000
  O   O13       1.0  0.7018886108000544  0.35115680627417606  0.8989502955087901  1.0000
  O   O14       1.0  0.27754888095851976  0.3905788603792218  0.8727668030841259  1.0000
  O   O15       1.0  0.20898168785421936  0.3076773655210092  0.8785682058744656  1.0000
  O   O16       1.0  0.701966722271969  0.31550104212332286  0.43439190854400067  1.0000
  O   O17       1.0  0.2776249086377263  0.27607428514340887  0.4605751790186615  1.0000
  O   O18       1.0  0.2090527593184817  0.3589879111543652  0.45479915020273154  1.0000
  O   O19       1.0  0.7018275318402232  0.04779606147566547  0.64883795703728  1.0000
  O   O20       1.0  0.27745448111772214  0.9821927276422643  0.6094157303909142  1.0000
  O   O21       1.0  0.20891846081141097  0.07088386714023188  0.6923279184828175  1.0000
  O   O22       1.0  0.701962876591878  0.6188934560384639  0.6844989924904326  1.0000
  O   O23       1.0  0.2775957942463236  0.6844963046620905  0.72391675244927  1.0000
  O   O24       1.0  0.20906497800708476  0.5958013342470565  0.6410083915725336  1.0000
  O   O25       1.0  0.7017444540153192  0.10105408120002599  0.9522602976755438  1.0000
  O   O26       1.0  0.2773771174595652  0.1272632902570976  0.017862707518830175  1.0000
  O   O27       1.0  0.2088407183575356  0.12145568896156089  0.9291558731514017  1.0000
  O   O28       1.0  0.7020691351261236  0.5656091686692618  0.38111821153392356  1.0000
  O   O29       1.0  0.27772093454392177  0.5394480543168853  0.3155174078612077  1.0000
  O   O30       1.0  0.20913807848749846  0.5452201944754833  0.4042064373630296  1.0000
