data_image0
_chemical_formula_structural       Mn2P4H60C72N4O8
_chemical_formula_sum              "Mn2 P4 H60 C72 N4 O8"
_cell_length_a       5.445151475
_cell_length_b       13.742270399553716
_cell_length_c       20.871
_cell_angle_alpha    94.63592974215386
_cell_angle_beta     90.0
_cell_angle_gamma    90.0

_space_group_name_H-M_alt    "P 1"
_space_group_IT_number       1

loop_
  _space_group_symop_operation_xyz
  'x, y, z'

loop_
  _atom_site_type_symbol
  _atom_site_label
  _atom_site_symmetry_multiplicity
  _atom_site_fract_x
  _atom_site_fract_y
  _atom_site_fract_z
  _atom_site_occupancy
  Mn  Mn1       1.0  0.5000007828065023  0.5000017866645408  0.9999987774642918  1.0000
  Mn  Mn2       1.0  1.10189772116e-05  7.300702975e-07  0.5000033927886918  1.0000
  P   P1        1.0  0.0038217485951577007  0.4466913232408913  0.8932989452436502  1.0000
  P   P2        1.0  0.5038151854168547  0.0533038927909502  0.6067037947507217  1.0000
  P   P3        1.0  0.9961853265064564  0.5533049493851934  0.10670205422868409  1.0000
  P   P4        1.0  0.49619739917336153  0.9466974903272387  0.3932984349573019  1.0000
  H   H1        1.0  0.6822969052481654  0.2777245829290962  0.9013008520378635  1.0000
  H   H2        1.0  0.1822997954340622  0.2222684428918384  0.598699375730064  1.0000
  H   H3        1.0  0.317721188830653  0.7222673092751748  0.09870135172001682  1.0000
  H   H4        1.0  0.8177091161637551  0.777730019945146  0.4013022194338163  1.0000
  H   H5        1.0  0.7291367408654139  0.1018842307367009  0.864359317929207  1.0000
  H   H6        1.0  0.2291359580589045  0.3981087950842337  0.6356423472399015  1.0000
  H   H7        1.0  0.2708886991982169  0.8981076614675774  0.13564432322985454  1.0000
  H   H8        1.0  0.7708692805465064  0.601891127893353  0.3643545342919269  1.0000
  H   H9        1.0  0.10233140483938291  0.045456367129276  0.801705170535783  1.0000
  H   H10       1.0  0.6023321876458924  0.4545373887619562  0.6982946169510242  1.0000
  H   H11       1.0  0.8976866892394428  0.9545384453561995  0.1982947929638925  1.0000
  H   H12       1.0  0.3976693779671194  0.5454698349186344  0.3017007365719593  1.0000
  H   H13       1.0  0.4224584036939021  0.16536603358899532  0.7766888448247541  1.0000
  H   H14       1.0  0.9224573500042084  0.3346299125131438  0.7233158505571353  1.0000
  H   H15       1.0  0.5775449984153127  0.8346324292479893  0.22331179207167656  1.0000
  H   H16       1.0  0.07753870612020111  0.6653816915892463  0.27668548568620116  1.0000
  H   H17       1.0  0.38194346099434995  0.3389212657403604  0.8168114390524723  1.0000
  H   H18       1.0  0.8819332248236478  0.1610724901508789  0.6831993685100386  1.0000
  H   H19       1.0  0.6180654506034671  0.6610757369560218  0.1831900784061986  1.0000
  H   H20       1.0  0.11807752327037242  0.8389376538109161  0.3168085979002484  1.0000
  H   H21       1.0  0.576744286071488  0.565143769380505  0.8658352743217748  1.0000
  H   H22       1.0  0.07671962881436661  0.9348557500507158  0.6341712881922349  1.0000
  H   H23       1.0  0.4232738080073304  0.4348503130346728  0.1341675251276513  1.0000
  H   H24       1.0  0.9232764273100429  0.0651485533486706  0.36583013865876524  1.0000
  H   H25       1.0  0.4818121244276341  0.6717114010958696  0.7779834800323044  1.0000
  H   H26       1.0  0.9818037247531279  0.828288118335351  0.7220254781503357  1.0000
  H   H27       1.0  0.5181931141777838  0.3282819512490108  0.22202071796569814  1.0000
  H   H28       1.0  0.0182070233408922  0.17170815429072667  0.2779736047870927  1.0000
  H   H29       1.0  0.769949195949593  0.6795603868981388  0.686030430718688  1.0000
  H   H30       1.0  0.2699649416089045  0.820436942322182  0.8139736195688769  1.0000
  H   H31       1.0  0.23003951419000404  0.3204329654467344  0.31397041334322756  1.0000
  H   H32       1.0  0.7300549889661241  0.1795527596711963  0.1860227180264786  1.0000
  H   H33       1.0  0.1569359463962385  0.58242891381866  0.6830044898051356  1.0000
  H   H34       1.0  0.6569477481799525  0.9175684154016608  0.816995248278893  1.0000
  H   H35       1.0  0.8430619462243669  0.4175680888777222  0.3169960693860858  1.0000
  H   H36       1.0  0.34307218239507625  0.0824220166620151  0.1830011281690673  1.0000
  H   H37       1.0  0.2592251118229925  0.4818748711697438  0.7726510866169605  1.0000
  H   H38       1.0  0.7592222216370956  0.0181203448620977  0.727347341173882  1.0000
  H   H39       1.0  0.740787472767231  0.5181250518078429  0.22735010711840434  1.0000
  H   H40       1.0  0.24078301696832233  0.981875927763987  0.2726517417635534  1.0000
  H   H41       1.0  0.854971624090588  0.6796991002552631  0.018363048687128004  1.0000
  H   H42       1.0  0.3550296091625285  0.8203069898086639  0.4816371556281639  1.0000
  H   H43       1.0  0.1449895386059978  0.3203183444095359  0.9816342861735166  1.0000
  H   H44       1.0  0.6449848119238979  0.1796965835204247  0.5183647115039564  1.0000
  H   H45       1.0  0.8178321614092497  0.8583794259171854  0.03197289637599  1.0000
  H   H46       1.0  0.3179030019545976  0.6416252040061465  0.4680267511003607  1.0000
  H   H47       1.0  0.18209594435570864  0.1416350984664092  0.9680199708706851  1.0000
  H   H48       1.0  0.6821206016128301  0.3583790993932396  0.5319737174831829  1.0000
  H   H49       1.0  0.11650731901815452  0.8275784900031269  0.9339191014680139  1.0000
  H   H50       1.0  0.6165760521841152  0.6724202993578032  0.5660811934549487  1.0000
  H   H51       1.0  0.883424459739203  0.1724126721308537  0.0660749181639133  1.0000
  H   H52       1.0  0.38344387839091354  0.3275774334088837  0.43391940458887746  1.0000
  H   H53       1.0  0.1789408438816693  0.6470634976756742  0.9293338441946162  1.0000
  H   H54       1.0  0.6789967215742152  0.8529367518258513  0.5706655701660994  1.0000
  H   H55       1.0  0.8210295012959181  0.352929854669199  0.0706607711288569  1.0000
  H   H56       1.0  0.3210268819932125  0.1470631711517356  0.4293413731739761  1.0000
  H   H57       1.0  0.2495926892465405  0.9883772037912593  0.9656296057753337  1.0000
  H   H58       1.0  0.7496742778859088  0.5116296163429723  0.5343730330611933  1.0000
  H   H59       1.0  0.7503078690753995  0.0116263695378294  0.0343645952171698  1.0000
  H   H60       1.0  0.2503529986739252  0.4883717667752094  0.46562488444330086  1.0000
  C   C1        1.0  0.0264914577054967  0.3200628198043063  0.8608780304858784  1.0000
  C   C2        1.0  0.526492240512006  0.1799302060166283  0.6391260303518607  1.0000
  C   C3        1.0  0.9735137808999142  0.679930532540574  0.1391223344423125  1.0000
  C   C4        1.0  0.47352401707061637  0.8200740973827578  0.3608787504352193  1.0000
  C   C5        1.0  0.843994886294695  0.2525174456586043  0.8740320247942253  1.0000
  C   C6        1.0  0.3440032859691939  0.24747777037323  0.6259711943338786  1.0000
  C   C7        1.0  0.156010352310723  0.7474780968971758  0.125969894092961  1.0000
  C   C8        1.0  0.6560074621248262  0.7525243428152565  0.3740315533604814  1.0000
  C   C9        1.0  0.8714413220249284  0.15387764733798553  0.8532884228013273  1.0000
  C   C10       1.0  0.3714497216994346  0.3461197589047558  0.6467144337508657  1.0000
  C   C11       1.0  0.1285675895728886  0.8461193553583968  0.14671405292479284  1.0000
  C   C12       1.0  0.6285536804097803  0.6538823542837306  0.3532849600074144  1.0000
  C   C13       1.0  0.0792686855419404  0.12231378795974733  0.818160343819457  1.0000
  C   C14       1.0  0.5792713048446458  0.377685078423589  0.6818406739030465  1.0000
  C   C15       1.0  0.9207420625520797  0.8776861350178322  0.18183941251473362  1.0000
  C   C16       1.0  0.420733933760765  0.6223206851163995  0.31815747671708294  1.0000
  C   C17       1.0  0.26030680808563034  0.18958684588330502  0.8040819825430886  1.0000
  C   C18       1.0  0.7603057543959295  0.3104120205000314  0.6959209517143138  1.0000
  C   C19       1.0  0.7397021035121867  0.8104138071645792  0.1959178126437067  1.0000
  C   C20       1.0  0.2396976477132782  0.6895988535320612  0.3040798665426792  1.0000
  C   C21       1.0  0.23548472542722013  0.2876922327438507  0.8258957980628524  1.0000
  C   C22       1.0  0.7354818352413233  0.2123066336394857  0.6741104901306373  1.0000
  C   C23       1.0  0.7645241861705969  0.7123084203040335  0.17410399712394314  1.0000
  C   C24       1.0  0.26452707635649386  0.7877027802520047  0.3258936043572334  1.0000
  C   C25       1.0  0.9264205088068707  0.518160825252572  0.826073202980794  1.0000
  C   C26       1.0  0.42642156249657154  0.981834313756849  0.6739278559465944  1.0000
  C   C27       1.0  0.0735847297985401  0.481834717303208  0.1739267993714861  1.0000
  C   C28       1.0  0.5735855126050495  0.0181670693613398  0.32607293636026213  1.0000
  C   C29       1.0  0.7062668536691135  0.5712113836491994  0.8266358746526805  1.0000
  C   C30       1.0  0.2062532153892036  0.9287852155008239  0.6733695741834539  1.0000
  C   C31       1.0  0.2937457309211027  0.4287826987659784  0.1733678830641949  1.0000
  C   C32       1.0  0.7937538597124174  0.0712183578282648  0.32663037641376047  1.0000
  C   C33       1.0  0.6523601806688006  0.6301054247322142  0.7768885652712926  1.0000
  C   C34       1.0  0.15235021538128993  0.8698926345584113  0.7231179195375007  1.0000
  C   C35       1.0  0.3476505674252124  0.36988938775326835  0.2231152312981877  1.0000
  C   C36       1.0  0.8476568597203241  0.1301029079973688  0.2768806454135984  1.0000
  C   C37       1.0  0.813736774880077  0.6343602744443899  0.7251745066660291  1.0000
  C   C38       1.0  0.3137415015621769  0.8656377848462284  0.7748295824741334  1.0000
  C   C39       1.0  0.18626295423673161  0.3656352681113901  0.27482789135487456  1.0000
  C   C40       1.0  0.6862710830280463  0.1343541073580425  0.22516639254530446  1.0000
  C   C41       1.0  0.0309578164673567  0.5798072313690312  0.7234993431516301  1.0000
  C   C42       1.0  0.5309604357700621  0.9201886377106874  0.7765022337620807  1.0000
  C   C43       1.0  0.9690492586342573  0.4201875811164442  0.2765010994817629  1.0000
  C   C44       1.0  0.4690558218125602  0.0798047146341858  0.2234938189625666  1.0000
  C   C45       1.0  0.0877826819317278  0.5228077227162018  0.7738702099400854  1.0000
  C   C46       1.0  0.5877834647382301  0.977188146363517  0.7261289713050021  1.0000
  C   C47       1.0  0.9122225566736902  0.4771892799801805  0.2261289118499548  1.0000
  C   C48       1.0  0.412227283355783  0.0228103164734605  0.2738702281902476  1.0000
  C   C49       1.0  0.6918503584879616  0.7152834567791759  0.0012380294121925074  1.0000
  C   C50       1.0  0.19191385304850433  0.7847240934253605  0.49876081520712756  1.0000
  C   C51       1.0  0.3081034582238118  0.284728877393519  0.9987575960790238  1.0000
  C   C52       1.0  0.8081060775265243  0.2152787498334305  0.5012414922061126  1.0000
  C   C53       1.0  0.6707765645766557  0.8160930240333215  0.007726922632308208  1.0000
  C   C54       1.0  0.1708418956334015  0.6839101457494081  0.4922716888713836  1.0000
  C   C55       1.0  0.3291552141807017  0.18391711992847354  0.9922661906324635  1.0000
  C   C56       1.0  0.8291817079340262  0.3160934275796805  0.507729219993287  1.0000
  C   C57       1.0  0.4612103100400873  0.860874806204798  0.9834041469802913  1.0000
  C   C58       1.0  0.9612900621832596  0.6391261733670248  0.5165943479655795  1.0000
  C   C59       1.0  0.5387122862362618  0.1391273069836814  0.016589976306995897  1.0000
  C   C60       1.0  0.0387353778803714  0.3608737496105547  0.48340588750233593  1.0000
  C   C61       1.0  0.2826110544518841  0.7977485475889239  0.9540483589933259  1.0000
  C   C62       1.0  0.7826816241140477  0.7022502417719991  0.5459519359296294  1.0000
  C   C63       1.0  0.7173188878092702  0.2022491851777559  0.0459464894457824  1.0000
  C   C64       1.0  0.2173438159495831  0.2977496812055875  0.45404973693946005  1.0000
  C   C65       1.0  0.315464134999111  0.6974514896858324  0.9511256220042911  1.0000
  C   C66       1.0  0.8155291951726653  0.8025567905889943  0.5488727823339161  1.0000
  C   C67       1.0  0.6844933547050688  0.3025498934323494  0.0488689415641232  1.0000
  C   C68       1.0  0.1844962448909655  0.1974460526697897  0.4511309624805051  1.0000
  C   C69       1.0  0.4219698957043221  0.9654537264211954  0.9867880926263554  1.0000
  C   C70       1.0  0.9220165909158666  0.534555283923936  0.5132141836342613  1.0000
  C   C71       1.0  0.5779453545872215  0.0345498469078933  0.013206587499873001  1.0000
  C   C72       1.0  0.078005176155358  0.4654453691239482  0.4867856115525271  1.0000
  N   N1        1.0  0.5177541915856452  0.6554921592966636  0.9740931636620972  1.0000
  N   N2        1.0  0.0178048306727803  0.8445095503454638  0.5259020162002983  1.0000
  N   N3        1.0  0.48221064410333986  0.344511414032425  0.025900558196681796  1.0000
  N   N4        1.0  0.9822095904136462  0.1554918327727179  0.474100692641457  1.0000
  O   O1        1.0  0.7944884581929871  0.4543263984450689  0.9413167841686986  1.0000
  O   O2        1.0  0.2944784929054691  0.045676848360074  0.5586873414717957  1.0000
  O   O3        1.0  0.205518616908634  0.5456698741810087  0.058683257036186404  1.0000
  O   O4        1.0  0.7055414376695524  0.9543296452502119  0.44131276453584434  1.0000
  O   O5        1.0  0.2595373161772301  0.4772447653230287  0.9167207199975138  1.0000
  O   O6        1.0  0.7595234070141288  0.0227482604979059  0.5832790286366888  1.0000
  O   O7        1.0  0.7404734319167829  0.5227500471624467  0.08327876436842982  1.0000
  O   O8        1.0  0.24049101407229764  0.9772538526905805  0.41672563559257725  1.0000
