data_image0
_chemical_formula_structural       Y4H48C60O36
_chemical_formula_sum              "Y4 H48 C60 O36"
_cell_length_a       10.012571801
_cell_length_b       12.17475098144816
_cell_length_c       13.787
_cell_angle_alpha    105.3919527043642
_cell_angle_beta     90.0
_cell_angle_gamma    90.0

_space_group_name_H-M_alt    "P 1"
_space_group_IT_number       1

loop_
  _space_group_symop_operation_xyz
  'x, y, z'

loop_
  _atom_site_type_symbol
  _atom_site_label
  _atom_site_symmetry_multiplicity
  _atom_site_fract_x
  _atom_site_fract_y
  _atom_site_fract_z
  _atom_site_occupancy
  Y   Y1        1.0  0.2109667767664902  0.9409821952290257  0.4226350211148997  1.0000
  Y   Y2        1.0  0.710966187457359  0.5590175349226527  0.5773653870960089  1.0000
  Y   Y3        1.0  0.7890330433596446  0.0590173408959558  0.5773656680139824  1.0000
  Y   Y4        1.0  0.28903263392437856  0.4409820012023289  0.42263530203287303  1.0000
  H   H1        1.0  0.2279933712707063  0.5739952883732755  0.1655897707045284  1.0000
  H   H2        1.0  0.727992781961575  0.9260069975636469  0.8344097858957086  1.0000
  H   H3        1.0  0.772007447599826  0.4260068035369499  0.8344100668136817  1.0000
  H   H4        1.0  0.2720070381645598  0.0739942424181592  0.1655898519454269  1.0000
  H   H5        1.0  0.2568361107526016  0.4562775239514565  0.9890338242909991  1.0000
  H   H6        1.0  0.7568365201878678  0.04372352200365269  0.010966094468109597  1.0000
  H   H7        1.0  0.7431637093735334  0.5437237160303496  0.010965813550129211  1.0000
  H   H8        1.0  0.24316429868266454  0.9562768660497412  0.9890333436959438  1.0000
  H   H9        1.0  0.4187116041036845  0.7464673439062252  0.9058771100011783  1.0000
  H   H10       1.0  0.9187130122833481  0.7535332381738653  0.09412132192394297  1.0000
  H   H11       1.0  0.5812892147668478  0.2535330441471686  0.0941216028419163  1.0000
  H   H12       1.0  0.0812878065871843  0.2464671498795283  0.9058773909191518  1.0000
  H   H13       1.0  0.3863712617385318  0.8657850298899631  0.08368496300300171  1.0000
  H   H14       1.0  0.8863686749405988  0.6342164041185399  0.9163143939201532  1.0000
  H   H15       1.0  0.6136305558763979  0.1342170620202552  0.9163148745152085  1.0000
  H   H16       1.0  0.11363014644113181  0.365783983934854  0.08368504424389303  1.0000
  H   H17       1.0  0.47978182783370477  0.3412441859628855  0.7956231987444866  1.0000
  H   H18       1.0  0.9797822372689708  0.1587568599922236  0.2043767200146149  1.0000
  H   H19       1.0  0.5202179922924302  0.6587570540189205  0.20437643909664155  1.0000
  H   H20       1.0  0.020218581601561404  0.8412418242043458  0.7956237694371853  1.0000
  H   H21       1.0  0.37553288752690867  0.1546326745389237  0.701957990724452  1.0000
  H   H22       1.0  0.8755342957065723  0.3453675194877732  0.2980424536785335  1.0000
  H   H23       1.0  0.6244669325992263  0.8453677135144702  0.29804289808151196  1.0000
  H   H24       1.0  0.12446752190835751  0.654631164708789  0.7019573104523147  1.0000
  H   H25       1.0  0.9951069713182861  0.3213278034949596  0.7100006256165586  1.0000
  H   H26       1.0  0.4951075606274173  0.17867239053173728  0.289999093465461  1.0000
  H   H27       1.0  0.0048928488078488  0.6786717326300148  0.2899993381913646  1.0000
  H   H28       1.0  0.5048942569875124  0.8213271455932443  0.7100008703424622  1.0000
  H   H29       1.0  0.0995368642350698  0.5073199629617804  0.8005127624017945  1.0000
  H   H30       1.0  0.5995382724147335  0.9926806191183103  0.19948639484427838  1.0000
  H   H31       1.0  0.9004619571466679  0.4926795731631941  0.199485750764218  1.0000
  H   H32       1.0  0.4004615477114016  0.0073189170066711995  0.8005113930007823  1.0000
  H   H33       1.0  0.1263711287317406  0.7264027258942176  0.48348011075209024  1.0000
  H   H34       1.0  0.6263715381670067  0.7735987081142851  0.5165199714920163  1.0000
  H   H35       1.0  0.8736276926499899  0.273597662159176  0.5165200527329148  1.0000
  H   H36       1.0  0.373628281959121  0.2264008280106964  0.4834814429578175  1.0000
  H   H37       1.0  0.2012240251599238  0.8104429081730089  0.5734844663233787  1.0000
  H   H38       1.0  0.7012234358507925  0.6895568219786625  0.42651594188753  1.0000
  H   H39       1.0  0.7987767937106086  0.18955747988038496  0.4265156971616264  1.0000
  H   H40       1.0  0.2987763842753424  0.3104435660747313  0.573484946918434  1.0000
  H   H41       1.0  0.1636732332682342  0.1600875721752502  0.36098440149719824  1.0000
  H   H42       1.0  0.6636736427035004  0.3399117699230274  0.6390158432287052  1.0000
  H   H43       1.0  0.8363255881135033  0.8399119639497243  0.6390162876316836  1.0000
  H   H44       1.0  0.3363271761670319  0.6600869142735348  0.36098464622309473  1.0000
  H   H45       1.0  0.030513638860448104  0.1397988969903068  0.4187735177703829  1.0000
  H   H46       1.0  0.5305150470401117  0.3602004451079779  0.5812267269555136  1.0000
  H   H47       1.0  0.969484183776892  0.8602014910630871  0.5812266457146222  1.0000
  H   H48       1.0  0.4694847730860232  0.6397990910170037  0.4187739621733613  1.0000
  C   C1        1.0  0.2838521467297923  0.7999454462528347  0.23862903556467782  1.0000
  C   C2        1.0  0.7838505586762565  0.7000551358272489  0.7613701216813951  1.0000
  C   C3        1.0  0.7161496708851445  0.20005494180055186  0.7613696772784166  1.0000
  C   C4        1.0  0.2161482627054738  0.2999452522261379  0.2386293164826583  1.0000
  C   C5        1.0  0.3028942074300147  0.7281406598592568  0.13486373399794618  1.0000
  C   C6        1.0  0.8028926193764861  0.7718607741492463  0.865135622925209  1.0000
  C   C7        1.0  0.697107610184915  0.2718622839793809  0.865137028518298  1.0000
  C   C8        1.0  0.1971062020052514  0.2281396139041405  0.1348638152388375  1.0000
  C   C9        1.0  0.267249019850496  0.6124377061371007  0.10839197716546779  1.0000
  C   C10       1.0  0.7672494292857693  0.8875645797998217  0.8916083047557207  1.0000
  C   C11       1.0  0.7327508002756319  0.3875643857731248  0.8916085856736942  1.0000
  C   C12       1.0  0.23275039084036564  0.1124375121104038  0.1083922580834411  1.0000
  C   C13       1.0  0.2833707519297519  0.5462795012730481  0.009914739615453505  1.0000
  C   C14       1.0  0.7833731588538129  0.9537219327354548  0.9900838919867425  1.0000
  C   C15       1.0  0.716629068196383  0.45372259063717724  0.9900843725817978  1.0000
  C   C16       1.0  0.21662865876111684  0.046278455317938894  0.009914820856352  1.0000
  C   C17       1.0  0.3369154366177014  0.5962595855508255  0.937907572988763  1.0000
  C   C18       1.0  0.8369178435417625  0.9037409965292653  0.06209085893635796  1.0000
  C   C19       1.0  0.663083384764036  0.4037416544309805  0.062091339531413284  1.0000
  C   C20       1.0  0.1630829753287699  0.0962593915241285  0.9379078539067364  1.0000
  C   C21       1.0  0.37580554474767075  0.7109981563080652  0.9636093046519748  1.0000
  C   C22       1.0  0.8758079516717387  0.7890032777004379  0.03638932695022847  1.0000
  C   C23       1.0  0.6241952741228616  0.2890030836737409  0.03638960786820179  1.0000
  C   C24       1.0  0.1241938659431909  0.21099711035295596  0.9636093858928662  1.0000
  C   C25       1.0  0.3577262736475221  0.7762047571334207  0.06163357616220822  1.0000
  C   C26       1.0  0.8577256843383907  0.7237966768750823  0.9383650554399877  1.0000
  C   C27       1.0  0.6422745452230103  0.22379648284838535  0.9383653363579612  1.0000
  C   C28       1.0  0.1422741357877442  0.2762037111783116  0.0616336574031067  1.0000
  C   C29       1.0  0.2955114888369152  0.43287164269883494  0.8012529807237172  1.0000
  C   C30       1.0  0.7955128970165788  0.0671285513278619  0.1987467383583024  1.0000
  C   C31       1.0  0.7044863338004248  0.5671278934261466  0.19874698308420596  1.0000
  C   C32       1.0  0.20448792185395354  0.9328709847971197  0.801253225449621  1.0000
  C   C33       1.0  0.3741306503915283  0.33482916500371823  0.7763514429170327  1.0000
  C   C34       1.0  0.8741310598267944  0.1651710290229786  0.2236482761649938  1.0000
  C   C35       1.0  0.6258691697346066  0.665169519192844  0.22364832121381534  1.0000
  C   C36       1.0  0.1258697590437379  0.8348285071020028  0.7763524129638881  1.0000
  C   C37       1.0  0.3159288205737596  0.23205166918229733  0.7250176947412328  1.0000
  C   C38       1.0  0.8159302287534232  0.2679493767728118  0.2749822240178688  1.0000
  C   C39       1.0  0.6840709995523754  0.7679478669426771  0.2749829943876421  1.0000
  C   C40       1.0  0.1840715888615065  0.7320501593521698  0.7250177397900615  1.0000
  C   C41       1.0  0.1798748648993609  0.2272041965053191  0.6999249063550722  1.0000
  C   C42       1.0  0.679875274334627  0.2727951455929656  0.3000746130498726  1.0000
  C   C43       1.0  0.8201259539711715  0.7727953396196625  0.30007650809476166  1.0000
  C   C44       1.0  0.3201255445359052  0.7272026866751843  0.6999256767248455  1.0000
  C   C45       1.0  0.1008931591281197  0.3259231053613334  0.7296654838819805  1.0000
  C   C46       1.0  0.6008935685633858  0.1740770886653635  0.2703342352000462  1.0000
  C   C47       1.0  0.8991066609980153  0.6740764307636482  0.2703344799259426  1.0000
  C   C48       1.0  0.3991072503071464  0.8259232993880303  0.7296666536059178  1.0000
  C   C49       1.0  0.1586994861641173  0.4293599937753711  0.7801455859900983  1.0000
  C   C50       1.0  0.6586998955993835  0.0706393483229135  0.21985465873579813  1.0000
  C   C51       1.0  0.8413003339620176  0.5706395423496105  0.21985437781782477  1.0000
  C   C52       1.0  0.34129992452675145  0.929360187802061  0.780145305072125  1.0000
  C   C53       1.0  0.12194868853555363  0.11991999937260538  0.6349251616372413  1.0000
  C   C54       1.0  0.6219500967152172  0.3800810465825037  0.3650754824428192  1.0000
  C   C55       1.0  0.8780471366129916  0.8800812406092007  0.3650766521667563  1.0000
  C   C56       1.0  0.3780497234109177  0.6199184895424708  0.6349252066860629  1.0000
  C   C57       1.0  0.5037586846065096  0.9407163935637826  0.5107383851722815  1.0000
  C   C58       1.0  0.0037492864716597  0.5592833365878889  0.4892612977176754  1.0000
  C   C59       1.0  0.4962531204524013  0.05928399448961129  0.48926685555940713  1.0000
  C   C60       1.0  0.9962455399324811  0.44071705146549783  0.5107374151254263  1.0000
  O   O1        1.0  0.2971993668702382  0.9083618562480638  0.2580988366938115  1.0000
  O   O2        1.0  0.7971957813279076  0.591638725832027  0.7419017711941791  1.0000
  O   O3        1.0  0.7028044482334863  0.0916393837337424  0.7419022517892273  1.0000
  O   O4        1.0  0.2028000438206305  0.4083608102929546  0.2580989179347029  1.0000
  O   O5        1.0  0.2513709814044632  0.7542250040462263  0.3097146630195198  1.0000
  O   O6        1.0  0.7513703920953319  0.7457755780338644  0.6902844942265602  1.0000
  O   O7        1.0  0.7486308362104667  0.24577623593558676  0.6902842495006568  1.0000
  O   O8        1.0  0.2486314255196049  0.2542248100195295  0.3097149439374931  1.0000
  O   O9        1.0  0.3595080336543007  0.5364976592208279  0.8399568555475201  1.0000
  O   O10       1.0  0.8595104405783616  0.9635029228592629  0.16004302701951187  1.0000
  O   O11       1.0  0.6404907877274368  0.4635035807609782  0.16004350761456723  1.0000
  O   O12       1.0  0.1404913770365681  0.0364966132657187  0.8399562114674596  1.0000
  O   O13       1.0  0.9961666391250077  0.1136498062438562  0.6244151379589766  1.0000
  O   O14       1.0  0.49616323345654934  0.3863495358544283  0.37558510676692697  1.0000
  O   O15       1.0  0.0038361772343194003  0.8863497298811253  0.3755877271327677  1.0000
  O   O16       1.0  0.5038355879251881  0.6136482964137215  0.6244166336497088  1.0000
  O   O17       1.0  0.2020000495574976  0.0419787726113086  0.5895293760178504  1.0000
  O   O18       1.0  0.7019984615039689  0.4580205694869761  0.41047014338709426  1.0000
  O   O19       1.0  0.7980017680574321  0.9580199115852608  0.41046966279203906  1.0000
  O   O20       1.0  0.2980013586221659  0.5419789666379984  0.5895298204208288  1.0000
  O   O21       1.0  0.40643403921393434  0.8740828126445876  0.4829744177375019  1.0000
  O   O22       1.0  0.9064354473936049  0.6259152136502593  0.5170226898354287  1.0000
  O   O23       1.0  0.5935577909570071  0.1259124638383184  0.5170281742898055  1.0000
  O   O24       1.0  0.09356137649933773  0.37408602633155397  0.48297404672188543  1.0000
  O   O25       1.0  0.6087407033017485  0.9189002107321187  0.55402934843449  1.0000
  O   O26       1.0  0.1087422913552771  0.5810995194195598  0.44596888381355637  1.0000
  O   O27       1.0  0.3912551218467898  0.0810993253928629  0.4459691647315296  1.0000
  O   O28       1.0  0.8912565300264532  0.4189025724906656  0.5540316790256128  1.0000
  O   O29       1.0  0.13717155065622683  0.809117307560463  0.5197183397611838  1.0000
  O   O30       1.0  0.6371709613470955  0.6908815706627961  0.48028186877264295  1.0000
  O   O31       1.0  0.8628272707255036  0.1908830804929309  0.4802818237238213  1.0000
  O   O32       1.0  0.3628288587790394  0.309117113533766  0.5197178953582053  1.0000
  O   O33       1.0  0.11664335829115662  0.1056144174408118  0.3916396389762227  1.0000
  O   O34       1.0  0.6166447664708272  0.3943849246574658  0.608359880428722  1.0000
  O   O35       1.0  0.8833554630905738  0.8943851186841625  0.6083603248317004  1.0000
  O   O36       1.0  0.3833560523997051  0.605615463395928  0.3916402830562832  1.0000
