data_image0
_chemical_formula_structural       Cu2H32C28I8O16
_chemical_formula_sum              "Cu2 H32 C28 I8 O16"
_cell_length_a       9.478619846107641
_cell_length_b       9.594386458814778
_cell_length_c       13.448595162728044
_cell_angle_alpha    94.0393435720907
_cell_angle_beta     89.86443597385113
_cell_angle_gamma    114.01585964775008

_space_group_name_H-M_alt    "P 1"
_space_group_IT_number       1

loop_
  _space_group_symop_operation_xyz
  'x, y, z'

loop_
  _atom_site_type_symbol
  _atom_site_label
  _atom_site_symmetry_multiplicity
  _atom_site_fract_x
  _atom_site_fract_y
  _atom_site_fract_z
  _atom_site_occupancy
  Cu  Cu1       1.0  0.6038209529249555  0.09957675500808702  0.2386717957686173  1.0000
  Cu  Cu2       1.0  0.3961788374562404  0.9004262083544464  0.7613263127560899  1.0000
  H   H1        1.0  0.4930484811574302  0.7544335936279792  0.159657474875857  1.0000
  H   H2        1.0  0.5069545061114694  0.24556942167753704  0.8403399106644827  1.0000
  H   H3        1.0  0.2954626651296053  0.6762382068912276  0.11527688086405162  1.0000
  H   H4        1.0  0.7045415358027114  0.3237625547229399  0.884720405443872  1.0000
  H   H5        1.0  0.3180075285616653  0.5335668361213168  0.2588088979956922  1.0000
  H   H6        1.0  0.6819959029528989  0.466437323652187  0.741189287581264  1.0000
  H   H7        1.0  0.4060119468613621  0.7099727398973033  0.33390936969173174  1.0000
  H   H8        1.0  0.5939910513214386  0.2900302751772301  0.666087272287207  1.0000
  H   H9        1.0  0.24760837632021557  0.8459226377451118  0.38204366513095783  1.0000
  H   H10       1.0  0.7523961499273142  0.15408153872675  0.617952296620814  1.0000
  H   H11       1.0  0.05316186682323122  0.7687577415605773  0.3321032825786361  1.0000
  H   H12       1.0  0.9468421606091367  0.2312452915982419  0.6678955969435096  1.0000
  H   H13       1.0  0.14391318469989767  0.8266572867992114  0.1629811993327266  1.0000
  H   H14       1.0  0.8560866273659754  0.17333771861632394  0.8370150473196816  1.0000
  H   H15       1.0  0.23910689834601592  0.997011025769574  0.24298333887380613  1.0000
  H   H16       1.0  0.760891602953798  0.002988503265044101  0.7570093952954623  1.0000
  H   H17       1.0  0.6246197806919298  0.10718814798778453  0.007929638199257702  1.0000
  H   H18       1.0  0.37538546054697264  0.8928205889647035  0.992069516839976  1.0000
  H   H19       1.0  0.7228106735045189  0.9874769887807916  0.9737156220272496  1.0000
  H   H20       1.0  0.2771938636569047  0.012527187460087004  0.026279596163135504  1.0000
  H   H21       1.0  0.8295341733763805  0.17954022821064095  0.0277620845191819  1.0000
  H   H22       1.0  0.17047224878424316  0.8204662557434615  0.9722392019718313  1.0000
  H   H23       1.0  0.6197299244767365  0.12593629635002662  0.47036962469175597  1.0000
  H   H24       1.0  0.3802596572094928  0.8740517232901797  0.5296306964646362  1.0000
  H   H25       1.0  0.4812899492846157  0.20276294482400206  0.5058382225317715  1.0000
  H   H26       1.0  0.5186927725527326  0.7972238269242241  0.4941642316795196  1.0000
  H   H27       1.0  0.6667992354876021  0.32533845456005395  0.4615900706928144  1.0000
  H   H28       1.0  0.333190302686141  0.6746575234891241  0.5384135994586643  1.0000
  H   H29       1.0  0.7878931747123373  0.014810759660463201  0.1568517457473959  1.0000
  H   H30       1.0  0.2121023239050574  0.9851841775757041  0.8431489348373448  1.0000
  H   H31       1.0  0.5007650646326596  0.26538524788715984  0.32678590086369047  1.0000
  H   H32       1.0  0.49922859166181144  0.7346130703480114  0.6732164156924656  1.0000
  C   C1        1.0  0.5181014869030278  0.3377012923951597  0.1711890228919728  1.0000
  C   C2        1.0  0.48190889064915154  0.6623018455735805  0.8288113849070414  1.0000
  C   C3        1.0  0.5083625412857558  0.4224267129704772  0.0825803500121012  1.0000
  C   C4        1.0  0.4916435663304243  0.5775683984099234  0.9174211427241517  1.0000
  C   C5        1.0  0.6449373574280345  0.5219752078501686  0.040355868159018406  1.0000
  C   C6        1.0  0.3550694881297787  0.4780267313977192  0.9596370269737663  1.0000
  C   C7        1.0  0.6368041003763807  0.6002912319690525  0.9576411428619593  1.0000
  C   C8        1.0  0.3631969582377224  0.3997094765471871  0.042353148623341504  1.0000
  C   C9        1.0  0.8417236571544037  0.017092107846139  0.3189795134160747  1.0000
  C   C10       1.0  0.15826744168265372  0.9828970734223864  0.6810208710745513  1.0000
  C   C11       1.0  0.9221262108761508  0.007586464983070599  0.4136235080095503  1.0000
  C   C12       1.0  0.07786422670281495  0.9924118017710916  0.5863810186537606  1.0000
  C   C13       1.0  0.8887081827066865  0.8653037577423462  0.4518114740770329  1.0000
  C   C14       1.0  0.1112905444176562  0.13468896289499815  0.5481965566072874  1.0000
  C   C15       1.0  0.0319686871364837  0.1428302321746955  0.46221405600820736  1.0000
  C   C16       1.0  0.968034017350341  0.8571670995003303  0.5377919836108234  1.0000
  C   C17       1.0  0.374983793196094  0.7374902386644635  0.17913860492373604  1.0000
  C   C18       1.0  0.6250181429954367  0.2625127590187403  0.8208580301961916  1.0000
  C   C19       1.0  0.3238383236782525  0.6500169808799754  0.2711458180910711  1.0000
  C   C20       1.0  0.6761631246120172  0.34998487325918853  0.7288529912378294  1.0000
  C   C21       1.0  0.17238196996694208  0.7862221403520168  0.3161705493793718  1.0000
  C   C22       1.0  0.8276205730563005  0.21377973048551271  0.6838260361243513  1.0000
  C   C23       1.0  0.22710912980304  0.8791092999533064  0.22625085219866753  1.0000
  C   C24       1.0  0.7728934132202028  0.12089257088422302  0.7737457333050558  1.0000
  C   C25       1.0  0.7199545661842208  0.07747992734520892  0.0278128708471712  1.0000
  C   C26       1.0  0.2800470120935189  0.9225276136582824  0.9721876942626012  1.0000
  C   C27       1.0  0.5735334172895178  0.20957607153015803  0.4540879874630833  1.0000
  C   C28       1.0  0.4264558283107149  0.7904164909683616  0.5459147765603518  1.0000
  I   I1        1.0  0.8581995710632312  0.546781281220774  0.1027718119505394  1.0000
  I   I2        1.0  0.1418121183774659  0.45321960097772535  0.897221804563479  1.0000
  I   I3        1.0  0.8353925532452922  0.7515195417203632  0.8895272280520957  1.0000
  I   I4        1.0  0.1646122763465314  0.24848009258615636  0.1104685215168217  1.0000
  I   I5        1.0  0.7216012227787375  0.6677825491854606  0.3750956811396406  1.0000
  I   I6        1.0  0.2784033567727136  0.332211400797604  0.6249064918237792  1.0000
  I   I7        1.0  0.06854088738514721  0.35373690857717593  0.4053430746801183  1.0000
  I   I8        1.0  0.9314629227485582  0.6462604395652249  0.5946599975523341  1.0000
  O   O1        1.0  0.5399244216915307  0.21650188863368675  0.148105956113902  1.0000
  O   O2        1.0  0.46009075637417146  0.7835161081796473  0.851898896810937  1.0000
  O   O3        1.0  0.5041491933251051  0.3898941610213456  0.2576709617078876  1.0000
  O   O4        1.0  0.49584943698283723  0.6101167445137677  0.7423342067598782  1.0000
  O   O5        1.0  0.7136573637012659  0.0306914232211497  0.3330522058486522  1.0000
  O   O6        1.0  0.2863317510752808  0.9693090995342432  0.6669598556610552  1.0000
  O   O7        1.0  0.9042998860609188  0.012290958002644497  0.236775032532698  1.0000
  O   O8        1.0  0.0956831272274955  0.9876969614473982  0.7632386315747723  1.0000
  O   O9        1.0  0.3764182524839797  0.8879159258238263  0.19670987823573682  1.0000
  O   O10       1.0  0.623583824465797  0.1120848010076898  0.8032873943541645  1.0000
  O   O11       1.0  0.17146469488410085  0.6364360293533836  0.296917566985087  1.0000
  O   O12       1.0  0.8285394842204141  0.3635647327227574  0.7030812064456314  1.0000
  O   O13       1.0  0.6917755922247864  0.0186042111821436  0.12480360604832438  1.0000
  O   O14       1.0  0.30821856288484656  0.9813952503660706  0.8751957927374648  1.0000
  O   O15       1.0  0.5081902325746769  0.1715577215254954  0.35395422018478234  1.0000
  O   O16       1.0  0.491800032483674  0.8284371271371356  0.6460412211751176  1.0000
