data_image0
_chemical_formula_structural       Zn2H28C24N24O12
_chemical_formula_sum              "Zn2 H28 C24 N24 O12"
_cell_length_a       7.44765743846011
_cell_length_b       8.630230267216762
_cell_length_c       14.686981658848914
_cell_angle_alpha    90.00418750940227
_cell_angle_beta     84.20882441740731
_cell_angle_gamma    89.99210922846157

_space_group_name_H-M_alt    "P 1"
_space_group_IT_number       1

loop_
  _space_group_symop_operation_xyz
  'x, y, z'

loop_
  _atom_site_type_symbol
  _atom_site_label
  _atom_site_symmetry_multiplicity
  _atom_site_fract_x
  _atom_site_fract_y
  _atom_site_fract_z
  _atom_site_occupancy
  Zn  Zn1       1.0  0.7369335089033129  0.05447098964433649  0.7518495629254431  1.0000
  Zn  Zn2       1.0  0.26308821756641987  0.554487137540377  0.24815409585607284  1.0000
  H   H1        1.0  0.057298601284180996  0.909234613201775  0.7470994067827876  1.0000
  H   H2        1.0  0.9426668501863633  0.4092828039889583  0.2529186507610532  1.0000
  H   H3        1.0  0.08264130385115463  0.0211635352138231  0.658575134859035  1.0000
  H   H4        1.0  0.9172696586581497  0.5213711039347829  0.3413915851634145  1.0000
  H   H5        1.0  0.4030867586587163  0.09929228327888501  0.8510506485139757  1.0000
  H   H6        1.0  0.597010832510712  0.5990423704853852  0.14898315745692509  1.0000
  H   H7        1.0  0.4188676810164936  0.19921334555099426  0.758697364187377  1.0000
  H   H8        1.0  0.5811511336050686  0.6991403033610979  0.2412912832468805  1.0000
  H   H9        1.0  0.09656672276540952  0.2661225196755054  0.765408323634766  1.0000
  H   H10       1.0  0.9034631223210782  0.7661812030666154  0.23456609145950585  1.0000
  H   H11       1.0  0.5671840122328432  0.39147592334839487  0.8636305190611965  1.0000
  H   H12       1.0  0.4328239302357488  0.8914398902026193  0.13637305322545498  1.0000
  H   H13       1.0  0.2575133198298262  0.48645633504355607  0.8262137164382183  1.0000
  H   H14       1.0  0.7424716264793786  0.9865030775054607  0.17379396063375202  1.0000
  H   H15       1.0  0.0539585524110606  0.6444748342958703  0.0583254258333952  1.0000
  H   H16       1.0  0.9459989806283106  0.14446111278465418  0.9416744071231306  1.0000
  H   H17       1.0  0.42754550790125023  0.2875053992452833  0.08981664711714642  1.0000
  H   H18       1.0  0.5724976368868369  0.7875260377477813  0.9101723673347806  1.0000
  H   H19       1.0  0.8482362336498568  0.35175427823119776  0.6046683967695827  1.0000
  H   H20       1.0  0.1517251784492686  0.8518090759881572  0.3953227689650305  1.0000
  H   H21       1.0  0.5999007792510297  0.9291899660873066  0.5485006657120195  1.0000
  H   H22       1.0  0.40016634723447464  0.4292302013086625  0.4514898096260609  1.0000
  H   H23       1.0  0.7838631840518888  0.12108761418378583  0.3263804979272109  1.0000
  H   H24       1.0  0.21611718869799298  0.621171709340139  0.6736209984811977  1.0000
  H   H25       1.0  0.6267305810671004  0.34406033579092815  0.26489369842030197  1.0000
  H   H26       1.0  0.3732206623985235  0.8441372702922436  0.7351400161562938  1.0000
  H   H27       1.0  0.09333062860291362  0.2132689828319343  0.350457788102105  1.0000
  H   H28       1.0  0.9066300694012102  0.7132391941254639  0.6495586669759348  1.0000
  C   C1        1.0  0.9796568658250421  0.32590615954394747  0.7984237660850511  1.0000
  C   C2        1.0  0.020371422127595903  0.825940146417146  0.2015640122623523  1.0000
  C   C3        1.0  0.7127836528357393  0.39319177534512306  0.8495307912915777  1.0000
  C   C4        1.0  0.28725141712386204  0.8931851273529147  0.1504796753232256  1.0000
  C   C5        1.0  0.14707193558813006  0.5306553987188706  0.8751510427580483  1.0000
  C   C6        1.0  0.8528952662285008  0.030708403913330105  0.124849851318217  1.0000
  C   C7        1.0  0.14768502243847345  0.5492160499557741  0.04710382391109391  1.0000
  C   C8        1.0  0.8522985787786015  0.0492313516229714  0.9529007037004362  1.0000
  C   C9        1.0  0.33639475677288294  0.366507343109447  0.0602356462678344  1.0000
  C   C10       1.0  0.6636454859485853  0.8665326256383566  0.939759840905282  1.0000
  C   C11       1.0  0.13788499951057528  0.7099768803908049  0.8598561074227434  1.0000
  C   C12       1.0  0.8621094263440555  0.21001234995995327  0.14016439426494295  1.0000
  C   C13       1.0  0.792392040779106  0.25638275601458815  0.5689077879791924  1.0000
  C   C14       1.0  0.20758999443062723  0.7564475636742928  0.43108887523177947  1.0000
  C   C15       1.0  0.6635382300412332  0.04172886423558711  0.5440941929496574  1.0000
  C   C16       1.0  0.33647135989610893  0.5417745540751395  0.45590638993984817  1.0000
  C   C17       1.0  0.6703947629201467  0.07410693957714189  0.372425645297767  1.0000
  C   C18       1.0  0.3295829704412085  0.574168795272378  0.6275672879785077  1.0000
  C   C19       1.0  0.5084198513660994  0.28270378962881887  0.2949619987323899  1.0000
  C   C20       1.0  0.49156881175065337  0.7827647571054824  0.705052795318899  1.0000
  C   C21       1.0  0.23937513937182334  0.213049122860177  0.34014361279429295  1.0000
  C   C22       1.0  0.7606083971944956  0.713041912976706  0.659861427194997  1.0000
  C   C23       1.0  0.6658214770568024  0.895410644930507  0.3541866533488829  1.0000
  C   C24       1.0  0.3341880780879478  0.39547134943592244  0.6457964024083723  1.0000
  N   N1        1.0  0.9858548347901676  0.4527916518863435  0.8513876661448024  1.0000
  N   N2        1.0  0.0141378183669261  0.9528115019723341  0.14860569406317134  1.0000
  N   N3        1.0  0.816406870451935  0.4977748725227185  0.8846978797039569  1.0000
  N   N4        1.0  0.1835818160024445  0.9977783745606598  0.1153062459606886  1.0000
  N   N5        1.0  0.8076966077338883  0.2849991677526802  0.7956671779647522  1.0000
  N   N6        1.0  0.19232973429284073  0.785005754379412  0.2043317685197721  1.0000
  N   N7        1.0  0.19306543953704391  0.4847988514188514  0.9647767474597089  1.0000
  N   N8        1.0  0.806929625873039  0.9848443102225345  0.03522730487496519  1.0000
  N   N9        1.0  0.3137518934588287  0.36646538108019655  0.9719513237033937  1.0000
  N   N10       1.0  0.6862736097411359  0.8665340332609335  0.02804380688539251  1.0000
  N   N11       1.0  0.23717686110970962  0.47765190549608133  0.1092265310887583  1.0000
  N   N12       1.0  0.7628425563256941  0.9776706633412213  0.890775657043875  1.0000
  N   N13       1.0  0.703335394585345  0.11714013179771847  0.4646314328804664  1.0000
  N   N14       1.0  0.29665955254827037  0.6172213710361375  0.5353663523866246  1.0000
  N   N15       1.0  0.7855546646559189  0.2557460365525373  0.4791463707887544  1.0000
  N   N16       1.0  0.2144197866812689  0.7558456139206342  0.5208470529987181  1.0000
  N   N17       1.0  0.7195823138851839  0.1264944583013019  0.6118187902067831  1.0000
  N   N18       1.0  0.2804201478807401  0.626535144265773  0.3881808266192621  1.0000
  N   N19       1.0  0.51147749949061  0.1530432812752593  0.3458898408205542  1.0000
  N   N20       1.0  0.48851721631191236  0.6531146827824655  0.6541002605494841  1.0000
  N   N21       1.0  0.3405519355210772  0.10710499540777359  0.3757178417686334  1.0000
  N   N22       1.0  0.6594547264975148  0.6071087239330027  0.6242756453570949  1.0000
  N   N23       1.0  0.33712271353814327  0.32355899846846364  0.2896405396781816  1.0000
  N   N24       1.0  0.6628796480998603  0.8235852353059272  0.7103662373078875  1.0000
  O   O1        1.0  0.0865960608895335  0.7407267327209723  0.7813480826420973  1.0000
  O   O2        1.0  0.9133565927964895  0.24078693012411623  0.2186718168010842  1.0000
  O   O3        1.0  0.1896797416396083  0.7992453133180603  0.9181495775779211  1.0000
  O   O4        1.0  0.8102685513744704  0.29927913362423914  0.0818748875027637  1.0000
  O   O5        1.0  0.7267169743158137  0.8049007965738754  0.4092345694251876  1.0000
  O   O6        1.0  0.2733232038315023  0.30502310128028387  0.5907291854161232  1.0000
  O   O7        1.0  0.6093139643895498  0.8666688636371304  0.2766594290689994  1.0000
  O   O8        1.0  0.39077677099276553  0.36673030234398135  0.7233172105743508  1.0000
  O   O9        1.0  0.023174186232488094  0.013302925348156696  0.7205732768103061  1.0000
  O   O10       1.0  0.9768206810508603  0.5133723438580657  0.2794127748398694  1.0000
  O   O11       1.0  0.45114122387866484  0.09578963691832598  0.7868942142921966  1.0000
  O   O12       1.0  0.5488536787163341  0.5956958403157273  0.2131261898056138  1.0000
