data_image0
_chemical_formula_structural       Hg2H24C44N12O4F8
_chemical_formula_sum              "Hg2 H24 C44 N12 O4 F8"
_cell_length_a       8.369937702015156
_cell_length_b       10.453836849257616
_cell_length_c       12.176220474448494
_cell_angle_alpha    104.30545020959235
_cell_angle_beta     89.99980734546524
_cell_angle_gamma    90.000143418267

_space_group_name_H-M_alt    "P 1"
_space_group_IT_number       1

loop_
  _space_group_symop_operation_xyz
  'x, y, z'

loop_
  _atom_site_type_symbol
  _atom_site_label
  _atom_site_symmetry_multiplicity
  _atom_site_fract_x
  _atom_site_fract_y
  _atom_site_fract_z
  _atom_site_occupancy
  Hg  Hg1       1.0  1.1947510359e-06  9.898232490999998e-07  1.0290619840999998e-06  1.0000
  Hg  Hg2       1.0  0.5000008575391066  0.5000019622558937  0.9999988419725411  1.0000
  H   H1        1.0  0.033655441986347505  0.04717107111890329  0.3260491372933529  1.0000
  H   H2        1.0  0.5336541602542866  0.4528289710604482  0.6739508662505996  1.0000
  H   H3        1.0  0.9663319850138024  0.9528239648110597  0.673958779203076  1.0000
  H   H4        1.0  0.4663368510530503  0.547174894418113  0.3260416569826532  1.0000
  H   H5        1.0  0.09965334658252091  0.8921102340587265  0.45002508553778137  1.0000
  H   H6        1.0  0.5996528028664585  0.6078910470252623  0.5499750653733031  1.0000
  H   H7        1.0  0.9003472226959064  0.10788677101151477  0.5499816017613881  1.0000
  H   H8        1.0  0.4003465717020235  0.3921118338940416  0.4500180724435836  1.0000
  H   H9        1.0  0.2007475321982355  0.5947693071187599  0.16269058776302356  1.0000
  H   H10       1.0  0.7007488915724239  0.9052321186916145  0.837308538217286  1.0000
  H   H11       1.0  0.7992566213533224  0.4052326181523327  0.8373122047447765  1.0000
  H   H12       1.0  0.2992564567471306  0.09476780853599108  0.16268644336970078  1.0000
  H   H13       1.0  0.9666469529204565  0.5442957140353925  0.5993691123138304  1.0000
  H   H14       1.0  0.46665032270739465  0.9557041381026817  0.4006331741314142  1.0000
  H   H15       1.0  0.033354811128049305  0.4557052214115771  0.4006326511331864  1.0000
  H   H16       1.0  0.5333526360951026  0.04429481770040409  0.5993665311880392  1.0000
  H   H17       1.0  0.1477810965517534  0.6644900023671736  0.4892193213575452  1.0000
  H   H18       1.0  0.6477826391107584  0.8355074027217453  0.510780725746649  1.0000
  H   H19       1.0  0.8522230569997832  0.3355099458876721  0.5107822348514901  1.0000
  H   H20       1.0  0.35221912493968693  0.16448957606422707  0.4892177432752405  1.0000
  H   H21       1.0  0.30295511201039466  0.9213442891235104  0.8059833907304251  1.0000
  H   H22       1.0  0.8029550195963254  0.5786553060174239  0.1940134717868743  1.0000
  H   H23       1.0  0.6970454572820871  0.07865665157961389  0.19402001637300256  1.0000
  H   H24       1.0  0.19704554971012564  0.42134363926985674  0.805982946224546  1.0000
  C   C1        1.0  0.07066435625777252  0.9453042263531726  0.28971352408389345  1.0000
  C   C2        1.0  0.570664061780576  0.5546960252831707  0.7102864778311185  1.0000
  C   C3        1.0  0.9293266550014538  0.05469179414475179  0.7102937778169078  1.0000
  C   C4        1.0  0.42933053378181546  0.4453068530041334  0.28970583816295903  1.0000
  C   C5        1.0  0.10696659856758832  0.8594676613094095  0.35772462119336274  1.0000
  C   C6        1.0  0.6069668998993338  0.6405346150002414  0.6422749004322981  1.0000
  C   C7        1.0  0.893032775965857  0.14053230008452283  0.6422810441585156  1.0000
  C   C8        1.0  0.3930324746661286  0.3594672813537158  0.35771885197662096  1.0000
  C   C9        1.0  0.1640113603050608  0.6959645047149862  0.20057625286171535  1.0000
  C   C10       1.0  0.6640125930705097  0.8040368701776613  0.7994237687503941  1.0000
  C   C11       1.0  0.8359892089804077  0.30403545667981985  0.7994294124889618  1.0000
  C   C12       1.0  0.3359915604980372  0.19596404424293465  0.20057142007335926  1.0000
  C   C13       1.0  0.1302396058859827  0.7817623904224573  0.1312668087942298  1.0000
  C   C14       1.0  0.6302414313845546  0.7182379480515022  0.8687330734301852  1.0000
  C   C15       1.0  0.8697549896383522  0.21823658377412863  0.8687386493268717  1.0000
  C   C16       1.0  0.36975913792992543  0.28176296373796816  0.13126129356956537  1.0000
  C   C17       1.0  0.1552710884463551  0.7332577324210161  0.005141700875327596  1.0000
  C   C18       1.0  0.6552784218429722  0.7667426425425103  0.994858131054549  1.0000
  C   C19       1.0  0.844724701836036  0.266743210907144  0.9948625280605086  1.0000
  C   C20       1.0  0.3447269264755732  0.23325629749123064  0.0051366432968577794  1.0000
  C   C21       1.0  0.13292729334691702  0.7707080305453428  0.8211758026543379  1.0000
  C   C22       1.0  0.6329265437690951  0.7292933016666578  0.17882510323619974  1.0000
  C   C23       1.0  0.867072081196554  0.22929389472226078  0.17882698985825837  1.0000
  C   C24       1.0  0.36707283078136044  0.2707076258930242  0.8211741947303892  1.0000
  C   C25       1.0  0.04277965573691491  0.6639428251596085  0.7592435475051075  1.0000
  C   C26       1.0  0.5427801273779522  0.8360573910899588  0.24075815408554743  1.0000
  C   C27       1.0  0.9572221083065743  0.336057128350525  0.24075965236154662  1.0000
  C   C28       1.0  0.45722044192049804  0.16394156471138638  0.7592415512363004  1.0000
  C   C29       1.0  0.043796615608144414  0.6249797448624931  0.642021831911478  1.0000
  C   C30       1.0  0.5437978302014984  0.8750184958536802  0.35797863133657143  1.0000
  C   C31       1.0  0.9562051484403612  0.3750211905844764  0.35797993153553154  1.0000
  C   C32       1.0  0.45620393385095076  0.1249784803037741  0.6420190158577198  1.0000
  C   C33       1.0  0.14312974129541092  0.6903733635598497  0.5816752483937861  1.0000
  C   C34       1.0  0.6431304603656829  0.809624034748715  0.4183248080559564  1.0000
  C   C35       1.0  0.856875607005158  0.309627577146763  0.41832815870484547  1.0000
  C   C36       1.0  0.35687010893172305  0.19037195684251876  0.5816734537315682  1.0000
  C   C37       1.0  0.23608384660264653  0.7935179839861062  0.64329340579129  1.0000
  C   C38       1.0  0.7360833540646327  0.7064805317470613  0.3567050274924312  1.0000
  C   C39       1.0  0.7639167226878316  0.20648295934553568  0.3567108231397497  1.0000
  C   C40       1.0  0.26391602048877877  0.29351742634549527  0.6432911832846101  1.0000
  C   C41       1.0  0.23292948135102884  0.8366951860530984  0.7607181097571996  1.0000
  C   C42       1.0  0.7329282338859572  0.6633052994694848  0.23928074433564453  1.0000
  C   C43       1.0  0.7670722826924605  0.16330476745703484  0.23928509010945478  1.0000
  C   C44       1.0  0.2670723354215099  0.3366946330116675  0.7607158809113556  1.0000
  N   N1        1.0  0.08204936274160701  0.9058223864404054  0.17685638584182323  1.0000
  N   N2        1.0  0.5820510288540107  0.594178866357346  0.8231429786063699  1.0000
  N   N3        1.0  0.9179416485236516  0.09417560318821216  0.8231496868749132  1.0000
  N   N4        1.0  0.41794595620842767  0.4058240171887347  0.17685098104052335  1.0000
  N   N5        1.0  0.15272790591653523  0.7344453917065932  0.31355095610881983  1.0000
  N   N6        1.0  0.6527259869966359  0.7655559667371461  0.6864490881752514  1.0000
  N   N7        1.0  0.8472750528729521  0.2655525926737141  0.6864534729406983  1.0000
  N   N8        1.0  0.34727577707087687  0.23444593224706264  0.31354548605887084  1.0000
  N   N9        1.0  0.11586601407455531  0.8156088479464213  0.9398830009442631  1.0000
  N   N10       1.0  0.6158633157697296  0.6843934439612196  0.060117324632820136  1.0000
  N   N11       1.0  0.8841345552159227  0.1843920953852205  0.060121227986769596  1.0000
  N   N12       1.0  0.3841372535417592  0.31560846027914374  0.9398788932577204  1.0000
  O   O1        1.0  0.21467761315103934  0.6208633019069222  0.9675045816590284  1.0000
  O   O2        1.0  0.7146923753030807  0.8791322236828447  0.032494094736016096  1.0000
  O   O3        1.0  0.7853169823723151  0.3791366621120387  0.03250190552525107  1.0000
  O   O4        1.0  0.2853189467765347  0.12086374951663706  0.9674984142474514  1.0000
  F   F1        1.0  0.9452484974445811  0.5986942380943175  0.8168968876936872  1.0000
  F   F2        1.0  0.44525037123016636  0.9013085391771297  0.1831044197947022  1.0000
  F   F3        1.0  0.05474968235086661  0.40130768191539073  0.18310426116489242  1.0000
  F   F4        1.0  0.5547513928273489  0.09869337294964707  0.8168942635774528  1.0000
  F   F5        1.0  0.33368099333796414  0.8573810348758923  0.5837293162385818  1.0000
  F   F6        1.0  0.8336800138055551  0.6426156434684387  0.4162668628436634  1.0000
  F   F7        1.0  0.6663195759545104  0.14261990582723877  0.41627409086484585  1.0000
  F   F8        1.0  0.1663193607478348  0.3573803376078714  0.5837281116346276  1.0000
