data_image0
_chemical_formula_structural       Mn2H32C48N4Cl4O8
_chemical_formula_sum              "Mn2 H32 C48 N4 Cl4 O8"
_cell_length_a       6.929782034531439
_cell_length_b       12.187697424610148
_cell_length_c       14.498478983977854
_cell_angle_alpha    114.87338415625445
_cell_angle_beta     95.72015981975447
_cell_angle_gamma    89.9446000728437

_space_group_name_H-M_alt    "P 1"
_space_group_IT_number       1

loop_
  _space_group_symop_operation_xyz
  'x, y, z'

loop_
  _atom_site_type_symbol
  _atom_site_label
  _atom_site_symmetry_multiplicity
  _atom_site_fract_x
  _atom_site_fract_y
  _atom_site_fract_z
  _atom_site_occupancy
  Mn  Mn1       1.0  0.7501675652546851  0.3855860809475261  2.8317983755216415e-05  1.0000
  Mn  Mn2       1.0  0.24982191380360064  0.6144137151654335  0.9999706293495336  1.0000
  H   H1        1.0  0.3627228497646018  0.6598005110361104  0.3011314302603624  1.0000
  H   H2        1.0  0.1376080813865954  0.3589204727657247  0.6991047297883669  1.0000
  H   H3        1.0  0.6372886441827108  0.3402029189504178  0.69886847792408  1.0000
  H   H4        1.0  0.8623824603704691  0.6410738561702232  0.3008971393604866  1.0000
  H   H5        1.0  0.269484681778451  0.5135084203643245  0.5186659638541329  1.0000
  H   H6        1.0  0.2301489404206194  0.9948128507500584  0.48129727735440037  1.0000
  H   H7        1.0  0.730522130716537  0.4864904977851054  0.48133003932656493  1.0000
  H   H8        1.0  0.7698579342244187  0.005186992987283602  0.5186963010497792  1.0000
  H   H9        1.0  0.05630460864001921  0.348706055392178  0.3847497518798733  1.0000
  H   H10       1.0  0.4431605700410445  0.9634399236780029  0.6150807352689327  1.0000
  H   H11       1.0  0.943697594915669  0.6512892156723282  0.6152481771016766  1.0000
  H   H12       1.0  0.5568418898870391  0.036559004111325115  0.3849136862923928  1.0000
  H   H13       1.0  0.0018227852115443998  0.33700454375833294  0.2064955217155315  1.0000
  H   H14       1.0  0.4979079967563678  0.1299076242516151  0.7934439231601119  1.0000
  H   H15       1.0  0.9981803350781107  0.663003411776039  0.7935056105098255  1.0000
  H   H16       1.0  0.5020926874607099  0.8700867616156815  0.2065508583141451  1.0000
  H   H17       1.0  0.7388792806664242  0.0024306332965267  0.08156300670094652  1.0000
  H   H18       1.0  0.7602379466761207  0.9211064595335403  0.9196108650786313  1.0000
  H   H19       1.0  0.26112641820629534  0.9975727605366201  0.9184414429868966  1.0000
  H   H20       1.0  0.2397705862884862  0.07889603439286222  0.0803927066863821  1.0000
  H   H21       1.0  0.6195159753574445  0.10355591148257301  0.2524600970668587  1.0000
  H   H22       1.0  0.8800223394818688  0.8504955545009171  0.7487850103776736  1.0000
  H   H23       1.0  0.3804879434863722  0.8964429657767712  0.7475412727084532  1.0000
  H   H24       1.0  0.1199730088911863  0.1495051323782945  0.2512166021869859  1.0000
  H   H25       1.0  0.5242781229073827  0.3205107782934605  0.31435956976470447  1.0000
  H   H26       1.0  0.9761312439042626  0.0049368588308667  0.6865512370866469  1.0000
  H   H27       1.0  0.47571835031449455  0.6794853669966445  0.685642539839016  1.0000
  H   H28       1.0  0.023858434557858712  0.9950656380011369  0.3134507553934824  1.0000
  H   H29       1.0  0.569218599270684  0.4284676727163018  0.20264692807293733  1.0000
  H   H30       1.0  0.9316661586601996  0.22488780290736804  0.7978570574399768  1.0000
  H   H31       1.0  0.4307670668117112  0.5715194132456392  0.7973521187158782  1.0000
  H   H32       1.0  0.06832642036175682  0.7751146942575605  0.20214507216627453  1.0000
  C   C1        1.0  0.1779787817792098  0.4974891322303281  0.2433560175432632  1.0000
  C   C2        1.0  0.3219718376914145  0.25392175363136005  0.75674673829257  1.0000
  C   C3        1.0  0.8220286910773567  0.5025188136641461  0.7566466963014591  1.0000
  C   C4        1.0  0.678019026906  0.7460771322690862  0.2432526384850107  1.0000
  C   C5        1.0  0.2974086550825277  0.5911681020254279  0.3193461120497219  1.0000
  C   C6        1.0  0.2026693748074777  0.2719144426626557  0.6808275381291226  1.0000
  C   C7        1.0  0.7025937444226784  0.40882989003670656  0.6806521102183041  1.0000
  C   C8        1.0  0.7973328287482103  0.7280808284018504  0.3191703908524275  1.0000
  C   C9        1.0  0.3299819087132718  0.5947621154548699  0.4169064912504794  1.0000
  C   C10       1.0  0.16999978800447485  0.1779584736660098  0.583214687180508  1.0000
  C   C11       1.0  0.6700233231566559  0.4052349868398012  0.5830894771645349  1.0000
  C   C12       1.0  0.8300053161110484  0.8220367977314286  0.41678337892716416  1.0000
  C   C13       1.0  0.24398748172960447  0.5085262868312626  0.4416621074683746  1.0000
  C   C14       1.0  0.25573617170049806  0.06677065103055922  0.5583595280950675  1.0000
  C   C15       1.0  0.756015774161895  0.49146357789197753  0.5583304877476393  1.0000
  C   C16       1.0  0.7442747335346809  0.9332246210327428  0.4416388122648486  1.0000
  C   C17       1.0  0.1243870627472674  0.4158089749761515  0.36548183741155077  1.0000
  C   C18       1.0  0.3752614454474923  0.0499775218885574  0.6344709256602457  1.0000
  C   C19       1.0  0.8756197497477274  0.5841899431732785  0.6345141657691472  1.0000
  C   C20       1.0  0.6247485317519621  0.9500250076918278  0.3655278989121769  1.0000
  C   C21       1.0  0.0929119607754387  0.409400597746803  0.2668302679220176  1.0000
  C   C22       1.0  0.4068123622936071  0.14214132902462506  0.7331739253916822  1.0000
  C   C23       1.0  0.9070875364427737  0.590597404121695  0.7331664412897041  1.0000
  C   C24       1.0  0.5931901701474942  0.8578584635168698  0.2668263269742397  1.0000
  C   C25       1.0  0.14004593577327276  0.4937304092142867  0.13787916688283994  1.0000
  C   C26       1.0  0.3603737956447617  0.355514848555032  0.8622564766035269  1.0000
  C   C27       1.0  0.859952833676637  0.5062775458206872  0.8621217596533343  1.0000
  C   C28       1.0  0.6396198331222606  0.6444822574775628  0.13773825534190806  1.0000
  C   C29       1.0  0.7147376351103388  0.16230562998193682  0.051590545818655194  1.0000
  C   C30       1.0  0.7851244494547274  0.11086112334062655  0.9492571375372307  1.0000
  C   C31       1.0  0.2852604161458672  0.837692346371874  0.9484095346554682  1.0000
  C   C32       1.0  0.21487208419003417  0.8891359576766789  0.050741171359788874  1.0000
  C   C33       1.0  0.6978720496407078  0.09626410952714085  0.10975360669199573  1.0000
  C   C34       1.0  0.8016233909465883  0.9864982382880143  0.8912948957241795  1.0000
  C   C35       1.0  0.3021321316205743  0.9037383889695081  0.8902490714187438  1.0000
  C   C36       1.0  0.19837914235809964  0.013501549183835905  0.1087060446068335  1.0000
  C   C37       1.0  0.6308830803678944  0.15310956552328753  0.2056099156068782  1.0000
  C   C38       1.0  0.868857729813449  0.9470005407375766  0.7954542589568662  1.0000
  C   C39       1.0  0.3691209049438697  0.8468902119757403  0.7943924692173852  1.0000
  C   C40       1.0  0.1311552808817282  0.053003789655100816  0.20454673283958164  1.0000
  C   C41       1.0  0.5801556098960037  0.27364611665825583  0.240735341495828  1.0000
  C   C42       1.0  0.9202066855291449  0.03210533552859832  0.7602040014277733  1.0000
  C   C43       1.0  0.41983361624420473  0.726350002451298  0.75926986511805  1.0000
  C   C44       1.0  0.07978015711393742  0.9678980713494457  0.23979749304500336  1.0000
  C   C45       1.0  0.602557849963425  0.3336413535876944  0.17887806491189207  1.0000
  C   C46       1.0  0.8980043795958608  0.1540747180516321  0.8218111728141367  1.0000
  C   C47       1.0  0.39744600759392773  0.6663565930141004  0.8211264176050294  1.0000
  C   C48       1.0  0.10198832890766599  0.8459295998712405  0.17819023502965325  1.0000
  N   N1        1.0  0.6683375611639948  0.27980337317285386  0.08721579576605623  1.0000
  N   N2        1.0  0.8319854093358074  0.19238677373066795  0.9134444443750313  1.0000
  N   N3        1.0  0.331657855404174  0.7201982038067459  0.9127882077777444  1.0000
  N   N4        1.0  0.168015808352024  0.8076148039147885  0.08655983342101344  1.0000
  Cl  Cl1       1.0  0.4790780727945716  0.711378003345807  0.5103335023191704  1.0000
  Cl  Cl2       1.0  0.021215723598004395  0.20139210802719984  0.48976584058016936  1.0000
  Cl  Cl3       1.0  0.5209349396277717  0.28862631690757473  0.4896688654074595  1.0000
  Cl  Cl4       1.0  0.9787868062523514  0.7986076997232345  0.5102323478904793  1.0000
  O   O1        1.0  0.045811941258108405  0.40291881680733627  0.06815480124350877  1.0000
  O   O2        1.0  0.4547273480627751  0.3341381547409555  0.9318229440980519  1.0000
  O   O3        1.0  0.9541740415443484  0.5970927376881863  0.9318495684209154  1.0000
  O   O4        1.0  0.5452633154036306  0.6658580405797423  0.0681720116024991  1.0000
  O   O5        1.0  0.7921797026386483  0.4150525216933192  0.8724529946216464  1.0000
  O   O6        1.0  0.7071892778187279  0.5427572326186622  0.12724185562413481  1.0000
  O   O7        1.0  0.20782018561502008  0.5849509272400653  0.12754361319793617  1.0000
  O   O8        1.0  0.2927986283867199  0.4572407020127259  0.8727632486293047  1.0000
