data_image0
_chemical_formula_structural       Zn4H43C65N17
_chemical_formula_sum              "Zn4 H43 C65 N17"
_cell_length_a       13.41301264412516
_cell_length_b       11.714689308408328
_cell_length_c       15.304551452208845
_cell_angle_alpha    108.0997825606795
_cell_angle_beta     115.83547931484146
_cell_angle_gamma    91.68548374478142

_space_group_name_H-M_alt    "P 1"
_space_group_IT_number       1

loop_
  _space_group_symop_operation_xyz
  'x, y, z'

loop_
  _atom_site_type_symbol
  _atom_site_label
  _atom_site_symmetry_multiplicity
  _atom_site_fract_x
  _atom_site_fract_y
  _atom_site_fract_z
  _atom_site_occupancy
  Zn  Zn1       1.0  0.13146914870741713  0.6853426421068178  0.010587389886502822  1.0000
  Zn  Zn2       1.0  0.9071526263608832  0.3375797717936919  0.9757463860835502  1.0000
  Zn  Zn3       1.0  0.8549011921683916  0.558781407763746  0.8750412046682713  1.0000
  Zn  Zn4       1.0  0.1797293908277524  0.4682151067455181  0.1197627040226551  1.0000
  H   H1        1.0  0.10713912906686567  0.9696005544008058  0.08375867584543771  1.0000
  H   H2        1.0  0.548919484754073  0.8095639757015007  0.36432538838437983  1.0000
  H   H3        1.0  0.8364712521674564  0.24959601803176668  0.16727404551752306  1.0000
  H   H4        1.0  0.43086698575400123  0.11872429004194628  0.28408446183009783  1.0000
  H   H5        1.0  0.510086551306067  0.07912995138383389  0.16098952523148577  1.0000
  H   H6        1.0  0.5905895492190963  0.1538724266926863  0.5084961783517628  1.0000
  H   H7        1.0  0.292124342038619  0.904522847218658  0.5139250082838701  1.0000
  H   H8        1.0  0.40564026694799077  0.8974835717790693  0.6918138154708942  1.0000
  H   H9        1.0  0.356432636927785  0.9363790028954282  0.8361143830924362  1.0000
  H   H10       1.0  0.33024901045264  0.14323711106002426  0.9206962767319598  1.0000
  H   H11       1.0  0.36358895602236885  0.315122396351434  0.8651562583370238  1.0000
  H   H12       1.0  0.7009894101880934  0.11986321038389747  0.7901732021928327  1.0000
  H   H13       1.0  0.414080039727665  0.2768967813799108  0.7239803644172867  1.0000
  H   H14       1.0  0.464821319560727  0.3014103670272377  0.41140783873495235  1.0000
  H   H15       1.0  0.774388051948769  0.740992398703568  0.020248593373942348  1.0000
  H   H16       1.0  0.2963962033154957  0.13380584107633808  0.3258546226207458  1.0000
  H   H17       1.0  0.1369443351026618  0.166264295751823  0.36570053895486865  1.0000
  H   H18       1.0  0.31324621209233783  0.5315720358776445  0.5787994285345591  1.0000
  H   H19       1.0  0.473039353942113  0.49921137244215436  0.5382821497880741  1.0000
  H   H20       1.0  0.8379681730990358  0.38871492789907325  0.34123375332796246  1.0000
  H   H21       1.0  0.6878247620008795  0.35070958825112103  0.38214797839665954  1.0000
  H   H22       1.0  0.536991818167948  0.46798890885013117  0.38277299255570096  1.0000
  H   H23       1.0  0.2763628091539304  0.20731109066712616  0.10905649953564023  1.0000
  H   H24       1.0  0.5847560494370968  0.6771287028562796  0.5152633871210456  1.0000
  H   H25       1.0  0.786404746526017  0.7688659659099314  0.6465768389038686  1.0000
  H   H26       1.0  0.3169318721958306  0.6508550150171644  0.3661130217518079  1.0000
  H   H27       1.0  0.9364413030422373  0.6545355904877397  0.6431866082887725  1.0000
  H   H28       1.0  0.5600740855142163  0.4360831539817197  0.05435843251096628  1.0000
  H   H29       1.0  0.6017594660889786  0.7007150970676789  0.06478662199946683  1.0000
  H   H30       1.0  0.7967830074042511  0.052111390147892706  0.023864640840237372  1.0000
  H   H31       1.0  0.04913863020993859  0.14025784465140836  0.1848066993270052  1.0000
  H   H32       1.0  0.7566949375180629  0.40757700572499533  0.08277172752552539  1.0000
  H   H33       1.0  0.2001101252063008  0.9075363939718029  0.21009792359986781  1.0000
  H   H34       1.0  0.9456099775461484  0.09591771632660342  0.8414537241034739  1.0000
  H   H35       1.0  0.1395739424944793  0.5031003122025054  0.34707863543435025  1.0000
  H   H36       1.0  0.7524563273638094  0.8110222463075373  0.885928203078528  1.0000
  H   H37       1.0  0.40830831385117267  0.7317162788459798  0.03590215000961899  1.0000
  H   H38       1.0  0.8428528469731517  0.3849013215813102  0.6593426938436907  1.0000
  H   H39       1.0  0.18871034654071653  0.5841340813101324  0.8221867995082591  1.0000
  H   H40       1.0  0.3641883906698027  0.37820205228096876  0.06270810347680816  1.0000
  H   H41       1.0  0.5953009853751823  0.40682931435092234  0.6680887399905587  1.0000
  H   H42       1.0  0.6167729580063865  0.9099346183607152  0.14463846593550767  1.0000
  H   H43       1.0  0.6322731034234794  0.77245210358808  0.24411322356971257  1.0000
  C   C1        1.0  0.025086791402394185  0.9100710369052722  0.03238093958724162  1.0000
  C   C2        1.0  0.10325481028608147  0.541584105679071  0.7973010362343729  1.0000
  C   C3        1.0  0.3592226748829788  0.4685891429183187  0.057639426751549545  1.0000
  C   C4        1.0  0.926556596761863  0.26173492523711417  0.1871605736293915  1.0000
  C   C5        1.0  0.6379978549632881  0.3507353884278999  0.7123436758560971  1.0000
  C   C6        1.0  0.4356590329890509  0.5484120314719974  0.05325841488429012  1.0000
  C   C7        1.0  0.6046280140266519  0.22693710804768585  0.6927752856948501  1.0000
  C   C8        1.0  0.017487237318711445  0.46909517600663975  0.6969984914448377  1.0000
  C   C9        1.0  0.1219096133490964  0.09509296325148144  0.9585547941825184  1.0000
  C   C10       1.0  0.5879604676481663  0.8484136966403779  0.25266549639592745  1.0000
  C   C11       1.0  0.5402748192024163  0.868560082435891  0.31954498041769597  1.0000
  C   C12       1.0  0.006352905910745167  0.3458601790820665  0.2970668100851341  1.0000
  C   C13       1.0  0.48487284225997485  0.9673079916084788  0.33361561853224947  1.0000
  C   C14       1.0  0.4743967832423197  0.042159317851890386  0.2752757459351188  1.0000
  C   C15       1.0  0.5200114349610914  0.020641234377642103  0.206430437253296  1.0000
  C   C16       1.0  0.7847311319148533  0.6543012393357515  0.031406049510721346  1.0000
  C   C17       1.0  0.5787265133564361  0.9250361801751409  0.1964559534285683  1.0000
  C   C18       1.0  0.5224868723785221  0.10051283456736121  0.5084598588572364  1.0000
  C   C19       1.0  0.5140157510330496  0.13117231690990386  0.6006426064196831  1.0000
  C   C20       1.0  0.43083375078208536  0.058320775434531  0.6041293940737732  1.0000
  C   C21       1.0  0.35982382409827823  0.9582826661599739  0.5137085200244941  1.0000
  C   C22       1.0  0.3695165774923268  0.9268083026356706  0.4220167355463644  1.0000
  C   C23       1.0  0.7232469618378091  0.5863278708791881  0.05890853537201224  1.0000
  C   C24       1.0  0.4539271722469281  0.9990303863207828  0.4195832318591711  1.0000
  C   C25       1.0  0.3971103243801721  0.9893651750269895  0.7305544733407248  1.0000
  C   C26       1.0  0.3700257960871127  0.01126649167152041  0.8119369651886148  1.0000
  C   C27       1.0  0.3573724551106211  0.1282463947200085  0.8609768104698718  1.0000
  C   C28       1.0  0.27610053583250493  0.6976073536917723  0.3123233321258212  1.0000
  C   C29       1.0  0.3750221412807734  0.22363531095860623  0.8295370333559973  1.0000
  C   C30       1.0  0.40353732718283214  0.20206679397290367  0.7491102069590171  1.0000
  C   C31       1.0  0.4131008914008092  0.08425721589014756  0.6970748336595279  1.0000
  C   C32       1.0  0.30000252259575433  0.22158046663653147  0.38044016507774364  1.0000
  C   C33       1.0  0.21062089199467243  0.23936547814798098  0.40310479381912506  1.0000
  C   C34       1.0  0.2910880105472131  0.8228011327854784  0.328764127595555  1.0000
  C   C35       1.0  0.2135579878329921  0.35152312503618777  0.47366749011393955  1.0000
  C   C36       1.0  0.3096237282869083  0.44421510045332724  0.5235128950745036  1.0000
  C   C37       1.0  0.3991510418867605  0.4262263169916665  0.500414595948449  1.0000
  C   C38       1.0  0.3942180615429081  0.315291154881848  0.428406849253726  1.0000
  C   C39       1.0  0.1129065536419844  0.4105125426968782  0.5836606386277907  1.0000
  C   C40       1.0  0.7759358182389849  0.48458835063302524  0.06381616401645843  1.0000
  C   C41       1.0  0.01606542211851546  0.43705031712318737  0.5960715209954088  1.0000
  C   C42       1.0  0.9167741309642781  0.4329424473950637  0.5061654563703045  1.0000
  C   C43       1.0  0.9134455587868048  0.38743194536093734  0.4087204067537371  1.0000
  C   C44       1.0  0.008488678309596773  0.3582132342705791  0.3963960306422649  1.0000
  C   C45       1.0  0.3815049537113211  0.6488421862275757  0.043754577191982856  1.0000
  C   C46       1.0  0.11119257489325213  0.3729411534473073  0.4857539750100204  1.0000
  C   C47       1.0  0.7096809492504976  0.44265615692869176  0.4399930098035939  1.0000
  C   C48       1.0  0.6245549112463495  0.5083660177000056  0.44080253080771575  1.0000
  C   C49       1.0  0.6511518227637509  0.6255503460804873  0.5150060773637293  1.0000
  C   C50       1.0  0.7638438963959333  0.6771598708609972  0.5884071645493878  1.0000
  C   C51       1.0  0.8487893431685977  0.6123398252303075  0.5868811368279054  1.0000
  C   C52       1.0  0.21700982048319162  0.8277596662684772  0.23183594788079637  1.0000
  C   C53       1.0  0.8231535089441453  0.4938728421181722  0.5128119050417583  1.0000
  C   C54       1.0  0.5432695045432966  0.5279297167033404  0.05834913835062133  1.0000
  C   C55       1.0  0.6207102906316707  0.6104883728341475  0.06424729002877433  1.0000
  C   C56       1.0  0.691543696087493  0.20468367554379793  0.775171901274952  1.0000
  C   C57       1.0  0.886498038209979  0.047096226143928284  0.06005651194168857  1.0000
  C   C58       1.0  0.9586669590241572  0.13970962225209146  0.1483306594356792  1.0000
  C   C59       1.0  0.07069712621834157  0.42830482668079367  0.28685024391559477  1.0000
  C   C60       1.0  0.8441410733266397  0.8302732599139231  0.928911320860891  1.0000
  C   C61       1.0  0.9170000712449993  0.9383224925580151  0.009387332989888263  1.0000
  C   C62       1.0  0.21814801433264822  0.42797800417792325  0.6732282704023761  1.0000
  C   C63       1.0  0.9264166904901432  0.4400415539992579  0.7141419582791004  1.0000
  C   C64       1.0  0.19075961486827708  0.19626432214962358  0.047928541042843185  1.0000
  C   C65       1.0  0.0242768061472063  0.1410412395812486  0.9127145414061887  1.0000
  N   N1        1.0  0.016282265404335416  0.7938281828757714  0.9747999026538212  1.0000
  N   N2        1.0  0.8649024444386486  0.5950051395900076  0.016728401809764728  1.0000
  N   N3        1.0  0.2001310604747104  0.6341592826742399  0.21207446879261485  1.0000
  N   N4        1.0  0.8592763146536843  0.4913761884010982  0.03805653248510785  1.0000
  N   N5        1.0  0.16303521103588992  0.7143036705815008  0.16189018493512466  1.0000
  N   N6        1.0  0.033228745655414095  0.41309151911385567  0.18334324800981255  1.0000
  N   N7        1.0  0.9029404344384064  0.7434125023742979  0.9088908034588387  1.0000
  N   N8        1.0  0.283282654859093  0.6306511889117842  0.045552120745448156  1.0000
  N   N9        1.0  0.3060483030244114  0.4497040466033296  0.7465212043671344  1.0000
  N   N10       1.0  0.7705151116832099  0.306870059890656  0.838515333864848  1.0000
  N   N11       1.0  0.9559778641615612  0.4928402786136985  0.815739122168438  1.0000
  N   N12       1.0  0.1377504116695789  0.2941335961513474  0.05600527143177201  1.0000
  N   N13       1.0  0.03323067316731709  0.2603850383898063  0.9700837485889198  1.0000
  N   N14       1.0  0.0641554353854588  0.5557983171800417  0.8664156940280209  1.0000
  N   N15       1.0  0.2688425132168177  0.5187455121305931  0.05358947028431522  1.0000
  N   N16       1.0  0.7370057661905351  0.3987309586072882  0.8007744409049878  1.0000
  N   N17       1.0  0.9476714281559712  0.32426524033716936  0.12447297542369301  1.0000
