data_image0
_chemical_formula_structural       Cd4H32C56I12N20O16
_chemical_formula_sum              "Cd4 H32 C56 I12 N20 O16"
_cell_length_a       7.868347408035974
_cell_length_b       14.693902810096795
_cell_length_c       17.032852693050003
_cell_angle_alpha    90.00026325299058
_cell_angle_beta     90.00010503407654
_cell_angle_gamma    89.9996764959785

_space_group_name_H-M_alt    "P 1"
_space_group_IT_number       1

loop_
  _space_group_symop_operation_xyz
  'x, y, z'

loop_
  _atom_site_type_symbol
  _atom_site_label
  _atom_site_symmetry_multiplicity
  _atom_site_fract_x
  _atom_site_fract_y
  _atom_site_fract_z
  _atom_site_occupancy
  Cd  Cd1       1.0  0.8805009988115129  0.2138557464583641  0.4074633773716484  1.0000
  Cd  Cd2       1.0  0.11951561546717217  0.71386139000532  0.5925299621581244  1.0000
  Cd  Cd3       1.0  0.619533605790842  0.21385812787469394  0.907472876166892  1.0000
  Cd  Cd4       1.0  0.38047792485879467  0.7138576475185445  0.09253220537229367  1.0000
  H   H1        1.0  0.6374924762608883  0.6593848808074938  0.5722204933882435  1.0000
  H   H2        1.0  0.3625196161955556  0.15939251242321717  0.4277908248819101  1.0000
  H   H3        1.0  0.8625082284376685  0.6593879993904609  0.07222213445776048  1.0000
  H   H4        1.0  0.13750386402434595  0.1593798660224692  0.9277674610665654  1.0000
  H   H5        1.0  0.5078268966789067  0.7352395497224792  0.5247488035791362  1.0000
  H   H6        1.0  0.49217805885004395  0.23524566606858593  0.47526399717973056  1.0000
  H   H7        1.0  0.9921550424335234  0.7352449899515251  0.024748204875528795  1.0000
  H   H8        1.0  0.007846100304746499  0.23523886466808358  0.9752381763467849  1.0000
  H   H9        1.0  0.9045681550237318  0.1103597878323299  0.6956086856106223  1.0000
  H   H10       1.0  0.0954164829588109  0.6103619684208609  0.3043936268753242  1.0000
  H   H11       1.0  0.5954336235359747  0.11036100930648018  0.19560834162052734  1.0000
  H   H12       1.0  0.4045383052694404  0.6103661914014255  0.8043939708711604  1.0000
  H   H13       1.0  0.8461625477143854  0.9534501570170946  0.6069587535027947  1.0000
  H   H14       1.0  0.1538071134706058  0.4534419197372016  0.3930490630703502  1.0000
  H   H15       1.0  0.6538047614305283  0.953436906437247  0.10694906478920527  1.0000
  H   H16       1.0  0.3461776089244565  0.4534476841763181  0.8930499452633283  1.0000
  H   H17       1.0  0.134182163458938  0.2322040856282186  0.7161542000350207  1.0000
  H   H18       1.0  0.8658037596484718  0.732205821154736  0.2838444979528774  1.0000
  H   H19       1.0  0.36581302774411734  0.23220038843815874  0.21615173415672465  1.0000
  H   H20       1.0  0.6341716245174496  0.7321972683754296  0.7838498993093237  1.0000
  H   H21       1.0  0.15544764700372576  0.3184993339640485  0.5712737794847056  1.0000
  H   H22       1.0  0.8445577206617326  0.8185086927654979  0.4287282047570215  1.0000
  H   H23       1.0  0.3445575112741608  0.31850114688759135  0.07126953450357117  1.0000
  H   H24       1.0  0.6554198962703879  0.8185048382174145  0.9287306884201525  1.0000
  H   H25       1.0  0.6481872630567407  0.8741812772697556  0.5097170180084232  1.0000
  H   H26       1.0  0.3517933830112199  0.3741756553241871  0.4902904764050361  1.0000
  H   H27       1.0  0.8518020791811124  0.8741749011330384  0.0097121919860044  1.0000
  H   H28       1.0  0.1482014433679382  0.37417726752962466  0.9902894314202014  1.0000
  H   H29       1.0  0.6282126855061418  0.9957484119161181  0.38406478738735916  1.0000
  H   H30       1.0  0.37177560305598684  0.49575358879037873  0.6159361559235135  1.0000
  H   H31       1.0  0.8717845297737054  0.9957486528283398  0.8840656910171699  1.0000
  H   H32       1.0  0.1282024878993084  0.4957499451188596  0.11593936199126627  1.0000
  C   C1        1.0  0.757783068107571  0.3905761506824988  0.3985156830825004  1.0000
  C   C2        1.0  0.24223045258925413  0.8905787393436742  0.6014818972823333  1.0000
  C   C3        1.0  0.742212821361832  0.390580194673511  0.8985182394685081  1.0000
  C   C4        1.0  0.2577930738056934  0.8905794592253288  0.10147170859351458  1.0000
  C   C5        1.0  0.6722792424368362  0.4829948787328604  0.3950290439239977  1.0000
  C   C6        1.0  0.3277282414137018  0.9829972213649898  0.6049771314618723  1.0000
  C   C7        1.0  0.8277080543015101  0.48300614465642866  0.8950240396462659  1.0000
  C   C8        1.0  0.1723007003420349  0.9830022886959567  0.10496334855044147  1.0000
  C   C9        1.0  0.5825689009473578  0.5093173246872382  0.32754418101217186  1.0000
  C   C10       1.0  0.417428217429446  0.0093185706082934  0.6724606563174971  1.0000
  C   C11       1.0  0.9174153118154321  0.5093283134697728  0.8275427744955476  1.0000
  C   C12       1.0  0.08260214107450989  0.0093266372821006  0.17244855956491276  1.0000
  C   C13       1.0  0.5118153340413938  0.5965182110221361  0.32079971555985043  1.0000
  C   C14       1.0  0.48819486507111504  0.09650906503608066  0.6792084116651295  1.0000
  C   C15       1.0  0.9881501594423268  0.5965337451145345  0.8207942586164376  1.0000
  C   C16       1.0  0.011857497619018898  0.09652891972537249  0.17919449435578366  1.0000
  C   C17       1.0  0.5235774735069114  0.6558354786625031  0.3845865724448386  1.0000
  C   C18       1.0  0.4764283010386804  0.15583080179136025  0.6154206216669422  1.0000
  C   C19       1.0  0.9764092696187702  0.6558428824216164  0.8845863895460082  1.0000
  C   C20       1.0  0.023601588498550492  0.15583564797133684  0.11540847547777126  1.0000
  C   C21       1.0  0.599157790488938  0.6299248022749211  0.4568245976656512  1.0000
  C   C22       1.0  0.4008558767596708  0.1299267894664879  0.5431854266587378  1.0000
  C   C23       1.0  0.9008320514445668  0.6299303978640937  0.9568231772423699  1.0000
  C   C24       1.0  0.09917017750642995  0.1299245966074878  0.043163950156241485  1.0000
  C   C25       1.0  0.6782765072502384  0.5431376672499012  0.4586239181377606  1.0000
  C   C26       1.0  0.32172280413038823  0.04314057010390119  0.5413834050538353  1.0000
  C   C27       1.0  0.8217193206791223  0.5431428267036011  0.958620670128873  1.0000
  C   C28       1.0  0.1782977834303878  0.043143577226587085  0.04136786586388298  1.0000
  C   C29       1.0  0.425898634774988  0.627340456571652  0.2455539790255372  1.0000
  C   C30       1.0  0.5741290392526607  0.1273287134874792  0.7544507508669154  1.0000
  C   C31       1.0  0.07408370239792819  0.6273565893671603  0.7455470009729905  1.0000
  C   C32       1.0  0.9259363458827747  0.1273581778186426  0.2544465740953398  1.0000
  C   C33       1.0  0.07427882834348049  0.2167595324687142  0.6604928860390229  1.0000
  C   C34       1.0  0.9257097958810047  0.7167654551975672  0.33951279439636284  1.0000
  C   C35       1.0  0.425718840718062  0.21675905297122708  0.16048753485130615  1.0000
  C   C36       1.0  0.5742545325544623  0.7167604902820061  0.839517558465914  1.0000
  C   C37       1.0  0.08538372387859988  0.2581213807672782  0.5878862292799238  1.0000
  C   C38       1.0  0.9146197247478725  0.7581181868868753  0.41211022563714994  1.0000
  C   C39       1.0  0.4146246656416395  0.2581161716972247  0.08788732689135507  1.0000
  C   C40       1.0  0.5853495519689814  0.7581199932423388  0.9121138248122802  1.0000
  C   C41       1.0  0.9269485794111814  0.13812877876467408  0.5739914253381355  1.0000
  C   C42       1.0  0.073056106837349  0.63812417366713  0.4260115871036375  1.0000
  C   C43       1.0  0.5730613213994928  0.13812326382241477  0.07398988838616558  1.0000
  C   C44       1.0  0.4269204883561314  0.6381330914075176  0.9260096014486405  1.0000
  C   C45       1.0  0.826602494941653  0.07018500568918991  0.5352948499853765  1.0000
  C   C46       1.0  0.17339780838063487  0.570184374757531  0.46469966691122966  1.0000
  C   C47       1.0  0.6734092223542373  0.07018054184857188  0.03529691970981469  1.0000
  C   C48       1.0  0.326566933589632  0.570190880318414  0.9647052294901212  1.0000
  C   C49       1.0  0.6991378762965467  0.942054909328732  0.5020948486926071  1.0000
  C   C50       1.0  0.30083952784681856  0.4420569704511834  0.49790881188641806  1.0000
  C   C51       1.0  0.8008520062466218  0.9420486906123668  0.002094676790406399  1.0000
  C   C52       1.0  0.1991457325515995  0.44205978636268384  0.9979083966895104  1.0000
  C   C53       1.0  0.6878162005890829  0.0034307567177904994  0.4409845585880204  1.0000
  C   C54       1.0  0.3121835203032928  0.503434950456679  0.5590137967163  1.0000
  C   C55       1.0  0.8121940195719473  0.003427778975058999  0.9409836509791981  1.0000
  C   C56       1.0  0.18779553405260427  0.5034263587798975  0.059010594592344  1.0000
  I   I1        1.0  0.7948630450106859  0.5011883911634527  0.5650957706536914  1.0000
  I   I2        1.0  0.20514813725831968  0.0011931431689476003  0.4349113820537268  1.0000
  I   I3        1.0  0.7051278245147896  0.50118995427664  0.06509375726771788  1.0000
  I   I4        1.0  0.29487827408855327  0.0011868161432956998  0.9348981308092942  1.0000
  I   I5        1.0  0.42083092641669123  0.7882599260588706  0.3748209652099702  1.0000
  I   I6        1.0  0.5791607731461709  0.2882638297226805  0.6252032059412116  1.0000
  I   I7        1.0  0.07913756041020288  0.7882658349203524  0.874820449484403  1.0000
  I   I8        1.0  0.9208706609301771  0.2882674485102186  0.12517025695229478  1.0000
  I   I9        1.0  0.5408628787533514  0.4122544490134175  0.23817549541112015  1.0000
  I   I10       1.0  0.45914787658076506  0.9122469915100309  0.7618245214413191  1.0000
  I   I11       1.0  0.9591283312572898  0.4122646283823954  0.7381741238367778  1.0000
  I   I12       1.0  0.0409014876213689  0.912270159267358  0.26182237048711693  1.0000
  N   N1        1.0  0.601156770861529  0.6873004622935707  0.5202104567267225  1.0000
  N   N2        1.0  0.39885376278905227  0.18730348775861222  0.4798039104932669  1.0000
  N   N3        1.0  0.8988319990820697  0.6873027880774245  0.020209779828554993  1.0000
  N   N4        1.0  0.10116455446556218  0.18729707859232997  0.9797746452408016  1.0000
  N   N5        1.0  0.9941897036061459  0.20827875652302202  0.5341755997476197  1.0000
  N   N6        1.0  0.005810446330613698  0.7082806908281611  0.4658235881085203  1.0000
  N   N7        1.0  0.5058193139616661  0.20827821320040846  0.034174006471260995  1.0000
  N   N8        1.0  0.49416050132023764  0.7082846369556391  0.965825768483988  1.0000
  N   N9        1.0  0.9726762355242115  0.141268985399897  0.6507942051506104  1.0000
  N   N10       1.0  0.027311896432117098  0.6412648034722254  0.34920471034270406  1.0000
  N   N11       1.0  0.5273288572667807  0.14126429228631565  0.15079028148513626  1.0000
  N   N12       1.0  0.47265292011035587  0.6412708577074399  0.8492098082097069  1.0000
  N   N13       1.0  0.7876353890201241  0.9853000734163544  0.5610093562246943  1.0000
  N   N14       1.0  0.21235682010786402  0.4852959771226749  0.438996241409903  1.0000
  N   N15       1.0  0.7123631801804534  0.9852948086443617  0.0610073488833436  1.0000
  N   N16       1.0  0.2876277579998643  0.4853073668845767  0.9389976616624478  1.0000
  N   N17       1.0  0.7663532907011968  0.08306644344948211  0.4625824273316041  1.0000
  N   N18       1.0  0.23364942156543825  0.5830734899327014  0.5374186000430397  1.0000
  N   N19       1.0  0.7336612783584542  0.0830677916606462  0.9625808668348766  1.0000
  N   N20       1.0  0.2663160156393545  0.583067377886195  0.03742250892229749  1.0000
  O   O1        1.0  0.6649952312075273  0.321560636565586  0.4152208677191139  1.0000
  O   O2        1.0  0.33501773038076976  0.8215689768544363  0.5847823031671024  1.0000
  O   O3        1.0  0.8350217716848075  0.3215643938064474  0.915202366224605  1.0000
  O   O4        1.0  0.1649975444157334  0.8215686223177913  0.08477849484400217  1.0000
  O   O5        1.0  0.9149698245600033  0.3845590876560721  0.3835305780421691  1.0000
  O   O6        1.0  0.0850361327546594  0.8845533925333341  0.6164693262505947  1.0000
  O   O7        1.0  0.5850311505714315  0.3845561311711023  0.8835371124311633  1.0000
  O   O8        1.0  0.4149913286018148  0.8845604323008089  0.11645574666823677  1.0000
  O   O9        1.0  0.5241438544765982  0.6698884410219319  0.19778524404191697  1.0000
  O   O10       1.0  0.4758744842371525  0.16988949940948575  0.8022173103959956  1.0000
  O   O11       1.0  0.9758038669977934  0.6699019715592627  0.6977768412546651  1.0000
  O   O12       1.0  0.024214471552028296  0.16990319101709866  0.3022139712242619  1.0000
  O   O13       1.0  0.27092460533979323  0.6106643617750152  0.23417939096084686  1.0000
  O   O14       1.0  0.7290803642466909  0.1106487962277285  0.7658305550447222  1.0000
  O   O15       1.0  0.22902862708271945  0.6106956685753745  0.7341696072594812  1.0000
  O   O16       1.0  0.770976342057864  0.11069847536269609  0.2658262484934966  1.0000
