data_image0
_chemical_formula_structural       Cu4H32C24N16
_chemical_formula_sum              "Cu4 H32 C24 N16"
_cell_length_a       7.689312283048468
_cell_length_b       8.713982489621115
_cell_length_c       13.049765158413738
_cell_angle_alpha    82.54789956359738
_cell_angle_beta     72.87726670005814
_cell_angle_gamma    63.80983416936015

_space_group_name_H-M_alt    "P 1"
_space_group_IT_number       1

loop_
  _space_group_symop_operation_xyz
  'x, y, z'

loop_
  _atom_site_type_symbol
  _atom_site_label
  _atom_site_symmetry_multiplicity
  _atom_site_fract_x
  _atom_site_fract_y
  _atom_site_fract_z
  _atom_site_occupancy
  Cu  Cu1       1.0  0.38599208301616955  0.16894032708464832  0.6584784615695087  1.0000
  Cu  Cu2       1.0  0.21365413387804463  0.8310908816843751  0.3413544139692705  1.0000
  Cu  Cu3       1.0  0.7943614847231615  0.6689408475316229  0.841598261283352  1.0000
  Cu  Cu4       1.0  0.30542487342910374  0.3309076534987696  0.15841347581823584  1.0000
  H   H1        1.0  0.04123691339928123  0.9219203768054667  0.1770983347100028  1.0000
  H   H2        1.0  0.13965117457118467  0.0780311700256959  0.8227305862027878  1.0000
  H   H3        1.0  0.9679131409906531  0.4218271929068679  0.32303868465833574  1.0000
  H   H4        1.0  0.7121397062801975  0.5782656149181022  0.6772985301864697  1.0000
  H   H5        1.0  0.7971839713328424  0.9827291089931692  0.16122839680221565  1.0000
  H   H6        1.0  0.940566432391144  0.017238707519347002  0.8387081452929908  1.0000
  H   H7        1.0  0.7079640579261408  0.48273756141330176  0.33882964835319046  1.0000
  H   H8        1.0  0.5286802078926558  0.5175474466739302  0.6616062743640044  1.0000
  H   H9        1.0  0.8271570266465248  0.9168937827989722  0.5521556213260512  1.0000
  H   H10       1.0  0.29615230350924543  0.08311775921165321  0.4478085382446224  1.0000
  H   H11       1.0  0.12933482489254522  0.4166159006339854  0.9479302980515244  1.0000
  H   H12       1.0  0.49422452777684367  0.5831985668656189  0.052176645187287846  1.0000
  H   H13       1.0  0.944019525064718  0.22378648910049748  0.22250187774788097  1.0000
  H   H14       1.0  0.389629200171626  0.7761196656897055  0.7775005864780129  1.0000
  H   H15       1.0  0.9160651947961111  0.7236372611537122  0.27770478471654775  1.0000
  H   H16       1.0  0.9172715217183836  0.27641867023753974  0.7222267305289736  1.0000
  H   H17       1.0  0.6961104834631656  0.2836394764140593  0.21078748805176425  1.0000
  H   H18       1.0  0.1898323781028206  0.7163619903309383  0.7890598353295248  1.0000
  H   H19       1.0  0.6565335325600332  0.7835800029303641  0.2892659833238086  1.0000
  H   H20       1.0  0.7290177263837594  0.2165214383910268  0.7108575846643961  1.0000
  H   H21       1.0  0.4589209518230817  0.32162017646481894  0.3901462312544696  1.0000
  H   H22       1.0  0.1708288388671802  0.6782320761027095  0.6095653315124495  1.0000
  H   H23       1.0  0.5993441680135303  0.8219026858789819  0.10973321344290812  1.0000
  H   H24       1.0  0.5309029255321535  0.1782297926568432  0.8903044998971128  1.0000
  H   H25       1.0  0.07793315485630363  0.14374983822101228  0.03136695882929531  1.0000
  H   H26       1.0  0.25292027261122746  0.855849283432015  0.9683236119733254  1.0000
  H   H27       1.0  0.8589169482952175  0.6437540024012948  0.46870846426917734  1.0000
  H   H28       1.0  0.9703493190578667  0.35578696889493944  0.5316180855318964  1.0000
  H   H29       1.0  0.8493397351850833  0.1701011180365199  0.011344052606410998  1.0000
  H   H30       1.0  0.030236089630001694  0.8300991101225604  0.9886306471325242  1.0000
  H   H31       1.0  0.610144967178421  0.6704812251430566  0.48863041104201005  1.0000
  H   H32       1.0  0.7675473773776673  0.3306298509063695  0.5114938332611986  1.0000
  C   C1        1.0  0.9136124432549977  0.0276513265900249  0.15343053370349938  1.0000
  C   C2        1.0  0.09413172672525848  0.9723338181003385  0.8464501177506423  1.0000
  C   C3        1.0  0.816602718279235  0.5276067375388322  0.3466463633924094  1.0000
  C   C4        1.0  0.690089300684498  0.47261913000092887  0.6536350031642543  1.0000
  C   C5        1.0  0.7749909157980853  0.0055936576086282  0.4899032648380414  1.0000
  C   C6        1.0  0.27034279842566605  0.9944127308269516  0.5100402406563803  1.0000
  C   C7        1.0  0.014908934424724365  0.505392696814866  0.010173514582767522  1.0000
  C   C8        1.0  0.5307586751075063  0.49443963398930185  0.9899384311883211  1.0000
  C   C9        1.0  0.18789440046363373  0.3773097642611631  0.7155797940978063  1.0000
  C   C10       1.0  0.2810461448800367  0.6226937527670772  0.28431944096175954  1.0000
  C   C11       1.0  0.6530654697141145  0.8772533721068356  0.7846049886252902  1.0000
  C   C12       1.0  0.3156640937037949  0.1225380170817303  0.21528419883725297  1.0000
  C   C13       1.0  0.829357040118275  0.1776966396032833  0.22880528985457013  1.0000
  C   C14       1.0  0.23523125113440085  0.8222378376967115  0.7711102551083046  1.0000
  C   C15       1.0  0.8077647030930067  0.6775623957171959  0.2713207298757824  1.0000
  C   C16       1.0  0.7563785681072304  0.3224618172136645  0.728803963972645  1.0000
  C   C17       1.0  0.5831506749689551  0.21216703631848333  0.4114255196346051  1.0000
  C   C18       1.0  0.2068641037693552  0.7877066782264919  0.588312703685425  1.0000
  C   C19       1.0  0.7448456326403132  0.7122799148564737  0.08850605492079922  1.0000
  C   C20       1.0  0.5456660724877055  0.28773719039782714  0.9115534540689653  1.0000
  C   C21       1.0  0.9819465984884489  0.07751717454683421  0.037315019884587734  1.0000
  C   C22       1.0  0.0965528948167032  0.9224442923098054  0.9625476647749381  1.0000
  C   C23       1.0  0.7686692005163708  0.577698650722418  0.46276245532995836  1.0000
  C   C24       1.0  0.8081901638778036  0.4227120409008834  0.5375291813879032  1.0000
  N   N1        1.0  0.7632752721781132  0.13274945838982427  0.3407312483973756  1.0000
  N   N2        1.0  0.23646056987443106  0.8671787903496764  0.6591390804950026  1.0000
  N   N3        1.0  0.8538812980011276  0.6327107580171045  0.1593146596694767  1.0000
  N   N4        1.0  0.6460124744301581  0.36721638835197723  0.840806112831615  1.0000
  N   N5        1.0  0.05517475817438102  0.5014468904365827  0.7609090504548564  1.0000
  N   N6        1.0  0.3176093173559735  0.4985427438396286  0.23906773938442435  1.0000
  N   N7        1.0  0.5657860560079655  0.0012740704978000002  0.7391752307280798  1.0000
  N   N8        1.0  0.30682080024708824  0.9985545600364389  0.2606531275603318  1.0000
  N   N9        1.0  0.5864913969903898  0.13453070436746367  0.5070035905106282  1.0000
  N   N10       1.0  0.22822213223925986  0.8653857639325438  0.4927837998242526  1.0000
  N   N11       1.0  0.843768387094528  0.6345739939237945  0.9929659218530421  1.0000
  N   N12       1.0  0.4714092258569805  0.3654283120200433  0.007097410321783619  1.0000
  N   N13       1.0  0.8881487857224786  0.0002878228393612001  0.3900619583014092  1.0000
  N   N14       1.0  0.2781413375906753  0.9997087111732768  0.6099391417569464  1.0000
  N   N15       1.0  0.02801893388444644  0.5000637587951432  0.11007376074871902  1.0000
  N   N16       1.0  0.6383871608041641  0.4997702370246345  0.8900547225208374  1.0000
