data_image0
_chemical_formula_structural       Zn4H40C88N4Cl8O40
_chemical_formula_sum              "Zn4 H40 C88 N4 Cl8 O40"
_cell_length_a       16.955106199124156
_cell_length_b       24.731316968169
_cell_length_c       25.749137247993694
_cell_angle_alpha    89.99969387669096
_cell_angle_beta     90.00043934119509
_cell_angle_gamma    89.99999661397577

_space_group_name_H-M_alt    "P 1"
_space_group_IT_number       1

loop_
  _space_group_symop_operation_xyz
  'x, y, z'

loop_
  _atom_site_type_symbol
  _atom_site_label
  _atom_site_symmetry_multiplicity
  _atom_site_fract_x
  _atom_site_fract_y
  _atom_site_fract_z
  _atom_site_occupancy
  Zn  Zn1       1.0  0.4156517525928153  0.5000008622332147  1.2419312870000067e-07  1.0000
  Zn  Zn2       1.0  0.5843507844049185  0.5000000503803719  5.492999477000002e-07  1.0000
  Zn  Zn3       1.0  0.4155567404955036  0.9999993758841442  0.4999980891665815  1.0000
  Zn  Zn4       1.0  0.5844439625897805  5.875022419999989e-08  0.5000007494442471  1.0000
  H   H1        1.0  0.37339821365192444  0.38709900169153133  0.8762991637328525  1.0000
  H   H2        1.0  0.6266018996473052  0.6129008372980637  0.1237008399589286  1.0000
  H   H3        1.0  0.373401480194488  0.6129109505690664  0.1236862207518854  1.0000
  H   H4        1.0  0.6265986330797091  0.38709131445918377  0.8763095109212388  1.0000
  H   H5        1.0  0.6265989612505508  0.3871174710435454  0.12371808144319371  1.0000
  H   H6        1.0  0.3734011520440673  0.6128839853221919  0.8762811455029579  1.0000
  H   H7        1.0  0.6265998020476006  0.6128864066667815  0.876283725307765  1.0000
  H   H8        1.0  0.3734009010398154  0.3871158583902031  0.123715501629583  1.0000
  H   H9        1.0  0.37339887305598296  0.8761566764586347  0.3865883797975442  1.0000
  H   H10       1.0  0.6266000606598611  0.12384316253417893  0.6134120122537894  1.0000
  H   H11       1.0  0.3733955127302623  0.1238423585754163  0.6134098207760701  1.0000
  H   H12       1.0  0.6266034209879054  0.8761562673836921  0.38659095965321916  1.0000
  H   H13       1.0  0.6266017951094368  0.8761524723744003  0.6134028308671944  1.0000
  H   H14       1.0  0.37339831818513153  0.12385019702823287  0.3865963960635241  1.0000
  H   H15       1.0  0.6266028661034752  0.12384938358849239  0.38659664574918656  1.0000
  H   H16       1.0  0.3733972471911499  0.8761520727772449  0.6134025811969651  1.0000
  H   H17       1.0  0.31593197513504384  0.3349900596097441  0.8134327210538501  1.0000
  H   H18       1.0  0.6840669585854046  0.6650081620069273  0.1865684477431131  1.0000
  H   H19       1.0  0.31593007236267573  0.6650194904528703  0.18655159708516322  1.0000
  H   H20       1.0  0.6840682715399142  0.3349811572024636  0.8134452996916578  1.0000
  H   H21       1.0  0.6840675637841825  0.33501683936759724  0.1865870148140161  1.0000
  H   H22       1.0  0.3159337291051544  0.6649846170108944  0.81341376558521  1.0000
  H   H23       1.0  0.6840676662792761  0.664987440543932  0.8134162466422198  1.0000
  H   H24       1.0  0.31593362660102287  0.33501361147614966  0.18658298031204623  1.0000
  H   H25       1.0  0.31592856548984116  0.8131171420885366  0.33383503634458833  1.0000
  H   H26       1.0  0.6840685988565839  0.18688269691708836  0.6661669091523876  1.0000
  H   H27       1.0  0.31592522495600417  0.18688998196753198  0.6661574374175315  1.0000
  H   H28       1.0  0.6840725291719066  0.8131102613677398  0.33384256626315795  1.0000
  H   H29       1.0  0.6840738778140292  0.8130907559586904  0.6661414671699576  1.0000
  H   H30       1.0  0.3159280048590746  0.18691070040701155  0.3338577597806562  1.0000
  H   H31       1.0  0.684073737880837  0.18690948047073158  0.3338586874687195  1.0000
  H   H32       1.0  0.3159269652111973  0.8130907628644904  0.6661413162194023  1.0000
  H   H33       1.0  0.16192221873038906  0.6251475970306472  0.9999991649066616  1.0000
  H   H34       1.0  0.8380784843684667  0.37485224196852573  2.003874179500002e-06  1.0000
  H   H35       1.0  0.1619217050706183  0.37485265898595094  3.0005426050000057e-07  1.0000
  H   H36       1.0  0.8380778184198903  0.625147988672559  0.9999969850880603  1.0000
  H   H37       1.0  0.16177777493686565  0.1251264400223988  0.5000004228927963  1.0000
  H   H38       1.0  0.8382223383691995  0.8748725902855201  0.5000007458968483  1.0000
  H   H39       1.0  0.1617795095507262  0.8748734116539368  0.4999990413509749  1.0000
  H   H40       1.0  0.8382211935368035  0.12512642732926343  0.5000001856172318  1.0000
  C   C1        1.0  0.5000104976734221  0.5714709038443148  0.9255034463236173  1.0000
  C   C2        1.0  0.5000096685818178  0.4285305525274339  0.0744965573981133  1.0000
  C   C3        1.0  0.50001202104324  0.5714792681967539  0.0744823114235018  1.0000
  C   C4        1.0  0.500010504374295  0.42852097512527376  0.9255161388695043  1.0000
  C   C5        1.0  0.4999958262463693  0.07462307687045208  0.4286061274081376  1.0000
  C   C6        1.0  0.4999948503608139  0.9253775708010037  0.571392711161991  1.0000
  C   C7        1.0  0.49999606941255337  0.07461939937046938  0.5713973194372528  1.0000
  C   C8        1.0  0.4999940174108987  0.9253804396225079  0.4286030725917911  1.0000
  C   C9        1.0  0.2449461789078526  0.5464376746601544  0.999999210256995  1.0000
  C   C10       1.0  0.7550533445940034  0.45356256866869427  1.6703097600000214e-08  1.0000
  C   C11       1.0  0.244946183217948  0.4535627176574053  3.3107311999997305e-09  1.0000
  C   C12       1.0  0.7550532757566587  0.5464376650843122  0.99999855383858  1.0000
  C   C13       1.0  0.24482060848146153  0.046438756658140824  0.5000000796452753  1.0000
  C   C14       1.0  0.7551783252412322  0.9535598693073623  0.5000014775090662  1.0000
  C   C15       1.0  0.24482174601338608  0.9535610919056055  0.4999998031082384  1.0000
  C   C16       1.0  0.7551789570854696  0.0464387470935606  0.5000013656726026  1.0000
  C   C17       1.0  0.1188025355532076  0.5000000591115566  1.529124773000004e-07  1.0000
  C   C18       1.0  0.8811969879486697  0.4999997798716578  0.9999990740527593  1.0000
  C   C19       1.0  0.11874291104127373  0.9999993814754545  0.500000836502501  1.0000
  C   C20       1.0  0.8812571559121595  0.9999997715180982  0.5000012044700313  1.0000
  C   C21       1.0  0.03594961894543759  0.4999992519762273  3.325082289999995e-07  1.0000
  C   C22       1.0  0.9640504943538488  0.4999993739764718  0.9999996711989779  1.0000
  C   C23       1.0  0.03593127993130451  0.9999989786849853  0.5000010161971389  1.0000
  C   C24       1.0  0.9640676074319785  0.9999993656109396  0.5000002480576455  1.0000
  C   C25       1.0  0.4284597494878354  0.33741252265662774  0.8171371755712472  1.0000
  C   C26       1.0  0.5715397740116971  0.6625889337059261  0.18286166301089682  1.0000
  C   C27       1.0  0.4284578037629885  0.6625913624036956  0.18285431190921736  1.0000
  C   C28       1.0  0.571540540135075  0.3374092852452506  0.8171418081425517  1.0000
  C   C29       1.0  0.5715427381776266  0.3374335848589283  0.18288366383445978  1.0000
  C   C30       1.0  0.42845737512602267  0.6625686802108531  0.8171171165515078  1.0000
  C   C31       1.0  0.5715422943024466  0.6625698905725981  0.8171182538139021  1.0000
  C   C32       1.0  0.42845781899440993  0.33743237448759794  0.1828813614844904  1.0000
  C   C33       1.0  0.4284663634649207  0.8161521847812238  0.3370548066616763  1.0000
  C   C34       1.0  0.5715319804649469  0.18384644118428645  0.6629467504911801  1.0000
  C   C35       1.0  0.42846357547387737  0.18384927425938707  0.662943283043802  1.0000
  C   C36       1.0  0.5715353582442901  0.8161493516997279  0.3370574973854872  1.0000
  C   C37       1.0  0.5715325408629467  0.8161394977407638  0.6629324936058936  1.0000
  C   C38       1.0  0.4284675724203312  0.1838623629546347  0.3370647915224865  1.0000
  C   C39       1.0  0.5715330284290943  0.18386074289092852  0.3370651520467831  1.0000
  C   C40       1.0  0.42846767464710217  0.8161390960762986  0.6629321331087965  1.0000
  C   C41       1.0  0.4284570446875193  0.3726912170256682  0.8592736725793841  1.0000
  C   C42       1.0  0.5715442481837129  0.6273098349816377  0.1407240009247772  1.0000
  C   C43       1.0  0.4284587391824886  0.6273142854140301  0.1407174265135183  1.0000
  C   C44       1.0  0.5715419638890824  0.37268757527496643  0.8592790818912875  1.0000
  C   C45       1.0  0.5715424907356379  0.37270794684910397  0.1407458809859321  1.0000
  C   C46       1.0  0.4284605715208514  0.627293509513386  0.859252957605122  1.0000
  C   C47       1.0  0.5715431315282373  0.6272947198783642  0.8592544832240989  1.0000
  C   C48       1.0  0.42846052052334466  0.3727067364873021  0.1407447437309699  1.0000
  C   C49       1.0  0.4284606695940242  0.858765248498308  0.37237428293533265  1.0000
  C   C50       1.0  0.5715370845384483  0.14123418615209  0.6276264974806978  1.0000
  C   C51       1.0  0.42845865307620573  0.14123540185443767  0.627624195116212  1.0000
  C   C52       1.0  0.5715385112612525  0.8587624154102469  0.3723761969563811  1.0000
  C   C53       1.0  0.5715388205647685  0.8587560237992307  0.627611156445333  1.0000
  C   C54       1.0  0.4284595233513997  0.1412450282209079  0.3723880705015006  1.0000
  C   C55       1.0  0.571538544590574  0.141244621187461  0.37238765431950344  1.0000
  C   C56       1.0  0.42846097890674884  0.8587556221350069  0.6276107959155438  1.0000
  C   C57       1.0  0.4999978574559378  0.39033339396454647  0.8804242399974669  1.0000
  C   C58       1.0  0.5000004864511284  0.6096684667340782  0.1195734334889735  1.0000
  C   C59       1.0  0.4999993171508308  0.39034937413043025  0.11959369964909432  1.0000
  C   C60       1.0  0.499999026767597  0.6096516778929059  0.880405915660269  1.0000
  C   C61       1.0  0.5000014616559271  0.8801657891359795  0.3900050729661616  1.0000
  C   C62       1.0  0.4999992414429499  0.11983364551755933  0.6099960958198238  1.0000
  C   C63       1.0  0.4999997959188463  0.8801582988067053  0.6099840939333703  1.0000
  C   C64       1.0  0.500002086754293  0.11984234886772777  0.390015133027525  1.0000
  C   C65       1.0  0.4999991319438307  0.31855365904457494  0.7950164662167936  1.0000
  C   C66       1.0  0.49999803240484664  0.6814465843098814  0.2049858676375749  1.0000
  C   C67       1.0  0.5000004085338646  0.3185718531499048  0.20500912499426255  1.0000
  C   C68       1.0  0.5000008843531134  0.6814316249535608  0.7949912670167265  1.0000
  C   C69       1.0  0.49999986696175824  0.7938232534751535  0.31815832712957354  1.0000
  C   C70       1.0  0.49999611779229974  0.2061749681383773  0.6818424532974277  1.0000
  C   C71       1.0  0.500000218977725  0.7938108799538169  0.6818213855944393  1.0000
  C   C72       1.0  0.4999998943146906  0.20618936337183402  0.3181774530046154  1.0000
  C   C73       1.0  0.5000006619479224  0.28146512026048504  0.7536866211956479  1.0000
  C   C74       1.0  0.4999970921662751  0.7185375491294153  0.24631105227901884  1.0000
  C   C75       1.0  0.5000006513544976  0.28148763347346056  0.24634030189725561  1.0000
  C   C76       1.0  0.5000000517442658  0.7185142272538695  0.753660866857871  1.0000
  C   C77       1.0  0.5000002400687792  0.7525420865497877  0.2806845869648527  1.0000
  C   C78       1.0  0.4999986936447627  0.24745856113109707  0.7193154167136697  1.0000
  C   C79       1.0  0.49999984966611777  0.7525210295760231  0.7192895739411611  1.0000
  C   C80       1.0  0.5000008534236143  0.24748002244726314  0.2807100413741423  1.0000
  C   C81       1.0  0.16206023379212545  0.5487994590556156  0.9999993597161705  1.0000
  C   C82       1.0  0.8379404692976424  0.45120078427640914  2.556094216000002e-07  1.0000
  C   C83       1.0  0.16206030284430284  0.45119998826452695  1.0595206130000025e-07  1.0000
  C   C84       1.0  0.8379404002341815  0.548799446360256  0.9999975675711852  1.0000
  C   C85       1.0  0.1619529469457603  0.048797306291397995  0.5000006175541927  1.0000
  C   C86       1.0  0.8380453969886403  0.951201319680507  0.500001716323716  1.0000
  C   C87       1.0  0.16195349489936461  0.951202141039154  0.4999996242996049  1.0000
  C   C88       1.0  0.8380460286093198  0.0487972936080183  0.5000007677583582  1.0000
  N   N1        1.0  0.28572445705331967  0.49999979105052017  0.999999903725481  1.0000
  N   N2        1.0  0.7142761815115081  0.4999997830062952  0.9999994301621413  1.0000
  N   N3        1.0  0.28561181570293565  0.9999997826778397  0.4999993151696104  1.0000
  N   N4        1.0  0.7143864818629736  0.9999989659573388  0.5000011723534996  1.0000
  Cl  Cl1       1.0  0.29334575494655724  0.6076786501946643  0.9999977764756167  1.0000
  Cl  Cl2       1.0  0.706654358352658  0.3923215931405721  2.2272110129999996e-06  1.0000
  Cl  Cl3       1.0  0.2933446498853556  0.39232079219191013  7.973796201000013e-07  1.0000
  Cl  Cl4       1.0  0.7066542838123978  0.6076782380840837  0.999996487781786  1.0000
  Cl  Cl5       1.0  0.29296775319163265  0.10780467500737963  0.4999998087260523  1.0000
  Cl  Cl6       1.0  0.7070305907268873  0.892194355287792  0.49999980660902577  1.0000
  Cl  Cl7       1.0  0.29296889641543095  0.8921951717485328  0.49999992831227763  1.0000
  Cl  Cl8       1.0  0.7070312168906128  0.10780426290501309  0.5000012404722227  1.0000
  O   O1        1.0  0.43298772296137866  0.5566602724347972  0.9429479338064157  1.0000
  O   O2        1.0  0.5670029536685135  0.4433391622317089  0.0570547884044146  1.0000
  O   O3        1.0  0.43298904814668043  0.443341186452244  0.05705212050837361  1.0000
  O   O4        1.0  0.5670010386652607  0.556662695981089  0.9429463296566  1.0000
  O   O5        1.0  0.567005307523445  0.5566663255874786  0.0570440261310878  1.0000
  O   O6        1.0  0.4329877282776949  0.44333432211587376  0.9429586960702567  1.0000
  O   O7        1.0  0.5670016337678094  0.44333229785061695  0.9429559268909244  1.0000
  O   O8        1.0  0.43299258157833265  0.556665519375791  0.0570398048239156  1.0000
  O   O9        1.0  0.432987193357974  0.05734510962948041  0.44376746301821873  1.0000
  O   O10       1.0  0.5670158688916942  0.942656751069052  0.5562302104801091  1.0000
  O   O11       1.0  0.43298721856522354  0.9426555405471716  0.556230261125755  1.0000
  O   O12       1.0  0.5670152539008412  0.057343085399096994  0.44376896586234693  1.0000
  O   O13       1.0  0.567017679327087  0.0573444149104674  0.5562329281280824  1.0000
  O   O14       1.0  0.4329901012721252  0.9426546153781387  0.44376591050571795  1.0000
  O   O15       1.0  0.5670187516121956  0.9426558259191893  0.44376819003523593  1.0000
  O   O16       1.0  0.43298784941949003  0.0573432043949964  0.5562337554958035  1.0000
  O   O17       1.0  0.3602583383973296  0.31883023452008524  0.7950700929637762  1.0000
  O   O18       1.0  0.6397411851068284  0.6811692001206923  0.2049295223691274  1.0000
  O   O19       1.0  0.3602548789941976  0.681178100860201  0.20491639039109094  1.0000
  O   O20       1.0  0.6397434649015212  0.3188241641680846  0.795079341277571  1.0000
  O   O21       1.0  0.6397429714371938  0.31885893549232247  0.20495626780677165  1.0000
  O   O22       1.0  0.3602583214565627  0.6811449469663556  0.795045289286648  1.0000
  O   O23       1.0  0.6397422683384734  0.6811469634759033  0.795048323694175  1.0000
  O   O24       1.0  0.36025666537272377  0.31885530158431413  0.2049512916012404  1.0000
  O   O25       1.0  0.36024491995796376  0.7938438803636386  0.3184791505150173  1.0000
  O   O26       1.0  0.6397534239741701  0.20615474560506897  0.6815227950003688  1.0000
  O   O27       1.0  0.36024234659480925  0.20615838989654386  0.6815151001021463  1.0000
  O   O28       1.0  0.6397554075399867  0.7938398317201487  0.31848606869183993  1.0000
  O   O29       1.0  0.6397557558086575  0.793831900716569  0.6815067754811325  1.0000
  O   O30       1.0  0.360246126857689  0.20616874694828619  0.318491286392188  1.0000
  O   O31       1.0  0.6397560246149823  0.20616874171640376  0.3184927674407163  1.0000
  O   O32       1.0  0.36024526826308534  0.7938315016092189  0.6815060711613086  1.0000
  O   O33       1.0  0.12241966597070332  0.5959918515908099  0.9999982711542899  1.0000
  O   O34       1.0  0.8775810371235976  0.40400839174760256  2.1208963545e-06  1.0000
  O   O35       1.0  0.1224185598242116  0.40400800156079  9.947291345999996e-07  1.0000
  O   O36       1.0  0.8775809636663399  0.5959918374064513  0.9999962904234679  1.0000
  O   O37       1.0  0.12227404259836308  0.0959698859008995  0.5000006942353252  1.0000
  O   O38       1.0  0.8777266605050401  0.9040295487590269  0.5000012512757195  1.0000
  O   O39       1.0  0.12227518471411263  0.9040291585680436  0.4999989592926824  1.0000
  O   O40       1.0  0.8777261081640262  0.09596946737504913  0.4999998793299199  1.0000
