data_image0
_chemical_formula_structural       Co8H64C96N32
_chemical_formula_sum              "Co8 H64 C96 N32"
_cell_length_a       13.313127990190031
_cell_length_b       13.896914807000663
_cell_length_c       26.500276194273
_cell_angle_alpha    89.99996497782286
_cell_angle_beta     101.67590285601453
_cell_angle_gamma    90.00000181395396

_space_group_name_H-M_alt    "P 1"
_space_group_IT_number       1

loop_
  _space_group_symop_operation_xyz
  'x, y, z'

loop_
  _atom_site_type_symbol
  _atom_site_label
  _atom_site_symmetry_multiplicity
  _atom_site_fract_x
  _atom_site_fract_y
  _atom_site_fract_z
  _atom_site_occupancy
  Co  Co1       1.0  0.9829956037519667  0.1327686253220008  0.7315069306622493  1.0000
  Co  Co2       1.0  0.017005255796519205  0.632768775838187  0.7684936734730176  1.0000
  Co  Co3       1.0  0.0170033570350157  0.8672326191267674  0.26849322789000507  1.0000
  Co  Co4       1.0  0.9829960071240154  0.36723102944191055  0.23150709485301493  1.0000
  Co  Co5       1.0  0.9897213622226532  0.8859149134574904  0.7559180588893499  1.0000
  Co  Co6       1.0  0.010277936837745501  0.38591543816826146  0.744081929303022  1.0000
  Co  Co7       1.0  0.010276830447757802  0.11408489182317542  0.24408164476073324  1.0000
  Co  Co8       1.0  0.9897217898494762  0.6140850866965195  0.2559179292180787  1.0000
  H   H1        1.0  0.7354646337103788  0.15359124537661736  0.7032201446041884  1.0000
  H   H2        1.0  0.26453545674344536  0.6535913704256658  0.7967803752185745  1.0000
  H   H3        1.0  0.26453509408509757  0.8464085599037576  0.29678009138387307  1.0000
  H   H4        1.0  0.7354650380604469  0.3464084348546804  0.20321993820505213  1.0000
  H   H5        1.0  0.7626895347712336  0.8677029458785553  0.7699461126443624  1.0000
  H   H6        1.0  0.23730976722209363  0.367702774306828  0.7300542590297  1.0000
  H   H7        1.0  0.2373101930242427  0.13229685940181918  0.23005412334369174  1.0000
  H   H8        1.0  0.7626899605733756  0.632297030973547  0.26994597695835415  1.0000
  H   H9        1.0  0.20210907556765537  0.14711929690555078  0.7036475127941346  1.0000
  H   H10       1.0  0.7978910111016762  0.6471201583114023  0.7963514992986093  1.0000
  H   H11       1.0  0.7978906500114107  0.8528797887910926  0.2963519682603675  1.0000
  H   H12       1.0  0.20210948370225174  0.35287892738477217  0.20364881412513822  1.0000
  H   H13       1.0  0.2336087728239633  0.8632825304377575  0.7729823930738249  1.0000
  H   H14       1.0  0.766391295512456  0.36328237855293816  0.7270176800288654  1.0000
  H   H15       1.0  0.76639018796309  0.1367172748426597  0.2270177654786636  1.0000
  H   H16       1.0  0.233608431174801  0.6367174267276569  0.27298217849235584  1.0000
  H   H17       1.0  0.37274539523245664  0.1417001155091953  0.6960484179316353  1.0000
  H   H18       1.0  0.6272539238631866  0.6417009628386268  0.8039501410484606  1.0000
  H   H19       1.0  0.6272543281301993  0.8582982506037171  0.3039503081893145  1.0000
  H   H20       1.0  0.37274656761600516  0.3582995620265592  0.19604903997453962  1.0000
  H   H21       1.0  0.5562415223260403  0.14433595529047238  0.6958037907020015  1.0000
  H   H22       1.0  0.44375856462215785  0.6443367967355585  0.8041952223099856  1.0000
  H   H23       1.0  0.44375820214480655  0.8556631304063913  0.3041953128856747  1.0000
  H   H24       1.0  0.5562411598486109  0.3556637281296561  0.19580388127744902  1.0000
  H   H25       1.0  0.5923185328585066  0.8708568781176638  0.7744150422714356  1.0000
  H   H26       1.0  0.40768230172748327  0.3708559973766156  0.7255851057654255  1.0000
  H   H27       1.0  0.40768196194535017  0.12914364674686135  0.22558527115207036  1.0000
  H   H28       1.0  0.592318191968154  0.6291445274881298  0.2744148301912475  1.0000
  H   H29       1.0  0.40931198072394903  0.8689233521221453  0.7753075808073221  1.0000
  H   H30       1.0  0.5906888540557277  0.3689231975907461  0.7246925678679903  1.0000
  H   H31       1.0  0.590688512971724  0.1310764531584212  0.22469235514947175  1.0000
  H   H32       1.0  0.4093116396399453  0.6310766076898204  0.2753073680888037  1.0000
  H   H33       1.0  0.03199220566469311  0.4273621156294283  0.6280533718613057  1.0000
  H   H34       1.0  0.9680078573596519  0.927363613567202  0.8719470575448371  1.0000
  H   H35       1.0  0.9680082880310154  0.5726369700669592  0.37194656409560883  1.0000
  H   H36       1.0  0.03199263633595  0.07263763088171517  0.12805287841171523  1.0000
  H   H37       1.0  0.979243050692489  0.12031700955657951  0.6134827709886396  1.0000
  H   H38       1.0  0.020757043095088103  0.6203177420007434  0.8865177598232779  1.0000
  H   H39       1.0  0.020756677102980306  0.8796827957238021  0.3865174649994217  1.0000
  H   H40       1.0  0.9792426847003527  0.37968278286381013  0.1134824761646627  1.0000
  H   H41       1.0  0.07554227928276451  0.1300853907940152  0.5452490749754162  1.0000
  H   H42       1.0  0.9244593475429143  0.6300867907446985  0.9547516074813844  1.0000
  H   H43       1.0  0.9244589836378126  0.8699136949019034  0.45475169335072957  1.0000
  H   H44       1.0  0.07554268127771023  0.3699151732881134  0.04524886081301821  1.0000
  H   H45       1.0  0.08355631626626801  0.1235904775604695  0.45371713569230115  1.0000
  H   H46       1.0  0.916443072303288  0.6235937932437492  0.04628326751588933  1.0000
  H   H47       1.0  0.9164426445208919  0.8764071689674181  0.5462830228605428  1.0000
  H   H48       1.0  0.08355895651730089  0.3764088903732342  0.9537172007783996  1.0000
  H   H49       1.0  0.9762682064419581  0.4167944293758623  0.43519915304040074  1.0000
  H   H50       1.0  0.023732685659837206  0.9167969766219882  0.06480093073779611  1.0000
  H   H51       1.0  0.023731520245405598  0.5832032171522101  0.5648007054811758  1.0000
  H   H52       1.0  0.9762678069274745  0.08320570699549991  0.9351986277516817  1.0000
  H   H53       1.0  0.9672149772462932  0.4227762791160997  0.5266616490952672  1.0000
  H   H54       1.0  0.032784317012620114  0.9227783497490167  0.9733379494560668  1.0000
  H   H55       1.0  0.032785517557670105  0.5772220869958887  0.47333866432859406  1.0000
  H   H56       1.0  0.9672146415578456  0.0772243338685428  0.02666145416227292  1.0000
  H   H57       1.0  0.9830559736097444  0.40991381675555527  0.34752111072279496  1.0000
  H   H58       1.0  0.016944920289724105  0.9099148222786014  0.1524793527949058  1.0000
  H   H59       1.0  0.016943755293986805  0.5900852689404275  0.65247950273222  1.0000
  H   H60       1.0  0.9830555745141327  0.09008570258591672  0.8475209606286003  1.0000
  H   H61       1.0  0.06521140049512301  0.1082497136763507  0.3655507889253898  1.0000
  H   H62       1.0  0.93478875329528  0.6082514878342026  0.1344485643846127  1.0000
  H   H63       1.0  0.9347875602919589  0.8917493720198878  0.6344493696272197  1.0000
  H   H64       1.0  0.06521250630052582  0.3917497566149066  0.8655510715406792  1.0000
  C   C1        1.0  0.7586523794196368  0.08342098523287692  0.7195089359428055  1.0000
  C   C2        1.0  0.24134771695643314  0.5834204090045532  0.7804912295878809  1.0000
  C   C3        1.0  0.24134811649243915  0.9165795396314209  0.2804917549475335  1.0000
  C   C4        1.0  0.7586527778474946  0.41657867669161414  0.21950908383586665  1.0000
  C   C5        1.0  0.6998697418693781  0.0101212520924321  0.7360749190258176  1.0000
  C   C6        1.0  0.3001295937340346  0.5101206969954576  0.7639248158106471  1.0000
  C   C7        1.0  0.30012998592605566  0.9898792727721215  0.26392531696212274  1.0000
  C   C8        1.0  0.6998701340614418  0.4898791082849243  0.23607542017740712  1.0000
  C   C9        1.0  0.7727622914444795  0.9382668188013382  0.7541250705387983  1.0000
  C   C10       1.0  0.22723700347897596  0.4382666284542509  0.7458752778306277  1.0000
  C   C11       1.0  0.22723820446759654  0.0617337060629595  0.24587562035154062  1.0000
  C   C12       1.0  0.7727627243164934  0.5617331768261236  0.2541249581574264  1.0000
  C   C13       1.0  0.1935755844617688  0.07751822680570092  0.7208888495805752  1.0000
  C   C14       1.0  0.806425277297649  0.5775183890134487  0.7791106404013491  1.0000
  C   C15       1.0  0.8064241411172618  0.9224815784751143  0.279110631473813  1.0000
  C   C16       1.0  0.1935759845146663  0.42248141626686936  0.2208897504578431  1.0000
  C   C17       1.0  0.26666731770180974  0.005108621245057099  0.7375551326487513  1.0000
  C   C18       1.0  0.7333335513124056  0.5051088006774407  0.7624443812473843  1.0000
  C   C19       1.0  0.7333324078772209  0.9948911840357652  0.26244434840563713  1.0000
  C   C20       1.0  0.26666771049990967  0.4948910046028701  0.23755600961180795  1.0000
  C   C21       1.0  0.2098162586507613  0.9333657208427939  0.7567691480802811  1.0000
  C   C22       1.0  0.7901838026639396  0.43336555075804023  0.7432309018765295  1.0000
  C   C23       1.0  0.7901827021362922  0.0666340844376165  0.24323101047220774  1.0000
  C   C24       1.0  0.20981669103176873  0.5666335349383473  0.25676903408037793  1.0000
  C   C25       1.0  0.37573621569110577  0.0054979187787509  0.7361326551297722  1.0000
  C   C26       1.0  0.6242646543923271  0.5054980932227124  0.7638672361046305  1.0000
  C   C27       1.0  0.6242635098879602  0.9945011669178925  0.26386682592473687  1.0000
  C   C28       1.0  0.37573583930338117  0.4945009924736822  0.236132699852277  1.0000
  C   C29       1.0  0.42049888660249474  0.08209263103203313  0.7137727954601091  1.0000
  C   C30       1.0  0.5795012076901856  0.5820927780096595  0.786226615575494  1.0000
  C   C31       1.0  0.5795000697517098  0.9179064546650862  0.28622585322516164  1.0000
  C   C32       1.0  0.42049851899706436  0.4179070272709424  0.2137732429457273  1.0000
  C   C33       1.0  0.5247842825491561  0.0835325206925006  0.7135466149292997  1.0000
  C   C34       1.0  0.47521581159923443  0.5835333838085006  0.7864527956306376  1.0000
  C   C35       1.0  0.4752154419217265  0.916465845420184  0.2864524886584904  1.0000
  C   C36       1.0  0.5247846809881836  0.41646714105646504  0.21354676285919544  1.0000
  C   C37       1.0  0.5899545275243058  0.008273358597414  0.7354795197395421  1.0000
  C   C38       1.0  0.4100448093724651  0.5082728061587503  0.764520593174055  1.0000
  C   C39       1.0  0.4100451991629442  0.9917264466831881  0.26452033878168635  1.0000
  C   C40       1.0  0.5899549173147848  0.49172699912185186  0.23547926534716623  1.0000
  C   C41       1.0  0.544902422968356  0.9310630563305436  0.7572122685742004  1.0000
  C   C42       1.0  0.4550976385770938  0.43106215695526373  0.7427877821432176  1.0000
  C   C43       1.0  0.45509730371886564  0.06893746853423009  0.24278758994690722  1.0000
  C   C44       1.0  0.5449020881101562  0.5689376483253312  0.25721207637800353  1.0000
  C   C45       1.0  0.44073949224094383  0.9298138563700178  0.757624773539938  1.0000
  C   C46       1.0  0.5592605705378803  0.42981296065408975  0.7423756550568756  1.0000
  C   C47       1.0  0.5592594674378902  0.0701859489106198  0.2423750075457107  1.0000
  C   C48       1.0  0.44073992426601194  0.5701868446262566  0.2576246583667513  1.0000
  C   C49       1.0  0.0161387654660672  0.3515978143124626  0.6326709086610195  1.0000
  C   C50       1.0  0.9838605381408031  0.8515985985398659  0.8673294683318178  1.0000
  C   C51       1.0  0.9838609612211828  0.6484019909681393  0.3673289498602018  1.0000
  C   C52       1.0  0.016140723671433904  0.14840264590880278  0.13267092252714016  1.0000
  C   C53       1.0  0.0095218479646135  0.27575941946521  0.5970266148815853  1.0000
  C   C54       1.0  0.9904782302489751  0.7757608818707026  0.902973864593321  1.0000
  C   C55       1.0  0.9904786479475335  0.7242396662307441  0.402974076008995  1.0000
  C   C56       1.0  0.009523030455042701  0.22424036257817906  0.09702614879879691  1.0000
  C   C57       1.0  0.9905447636289042  0.19486232547588855  0.6255410124968892  1.0000
  C   C58       1.0  0.009454555681472201  0.6948630716509854  0.8744594162598888  1.0000
  C   C59       1.0  0.009454964166565102  0.8051374798044934  0.3744592234911651  1.0000
  C   C60       1.0  0.9905451710057067  0.30513817279796746  0.125540442261098  1.0000
  C   C61       1.0  0.0194674429413553  0.27639340474193125  0.5431157446091677  1.0000
  C   C62       1.0  0.9805318682002311  0.776396243081706  0.9568846572205632  1.0000
  C   C63       1.0  0.9805322848542276  0.7236042417859212  0.45688449137924897  1.0000
  C   C64       1.0  0.0194686266035191  0.22360644053534884  0.0431156562025876  1.0000
  C   C65       1.0  0.052595869226891516  0.19304398293549951  0.5210567993586963  1.0000
  C   C66       1.0  0.9474034513737877  0.6930467945146643  0.9789440074651099  1.0000
  C   C67       1.0  0.9474038596769105  0.8069536635921254  0.4789438140965531  1.0000
  C   C68       1.0  0.05259704342999779  0.3069551695182113  0.021056305958161704  1.0000
  C   C69       1.0  0.05739869502293971  0.18956986084333485  0.4692459472243443  1.0000
  C   C70       1.0  0.9425999199276874  0.6895724758674929  0.030754356757846324  1.0000
  C   C71       1.0  0.9425994987557973  0.810427785684581  0.5307541338929341  1.0000
  C   C72       1.0  0.05740057487609821  0.31042948816538274  0.9692459566654251  1.0000
  C   C73       1.0  0.029187502017713005  0.26924223946704723  0.43667467386748643  1.0000
  C   C74       1.0  0.9708118708506535  0.7692448173313906  0.06332530377060408  1.0000
  C   C75       1.0  0.9708114587694825  0.7307546874766543  0.5633254846854784  1.0000
  C   C76       1.0  0.029188622844877405  0.23075786628588454  0.9366746321857138  1.0000
  C   C77       1.0  0.9990973108900151  0.3535206595132648  0.4591343050598767  1.0000
  C   C78       1.0  0.0009020546426584004  0.8535225144182589  0.04086602221111951  1.0000
  C   C79       1.0  0.0009008828886863  0.6464777065988301  0.5408657760572809  1.0000
  C   C80       1.0  0.9990976731526688  0.14648016919883133  0.9591342137764585  1.0000
  C   C81       1.0  0.9942825875277636  0.35719698468516003  0.5110715019820306  1.0000
  C   C82       1.0  0.0057167144098358  0.8571990362934726  0.988928495694566  1.0000
  C   C83       1.0  0.0057171391595574  0.6428013814270841  0.48892835653943223  1.0000
  C   C84       1.0  0.9942830133855269  0.1428029277394387  0.011071740293139972  1.0000
  C   C85       1.0  0.0019269301936120002  0.3346560928935247  0.3437089994415531  1.0000
  C   C86       1.0  0.9980716713289298  0.8346578434853171  0.15629163409099792  1.0000
  C   C87       1.0  0.9980720317016961  0.6653429928024863  0.6562915365778894  1.0000
  C   C88       1.0  0.0019280575746876002  0.16534340096320213  0.8437089793636547  1.0000
  C   C89       1.0  0.027341634192552502  0.2627616965519479  0.3814907225366895  1.0000
  C   C90       1.0  0.9726577393251079  0.7627642100558559  0.11850925724169768  1.0000
  C   C91       1.0  0.972657326594572  0.7372366695601116  0.6185094360160408  1.0000
  C   C92       1.0  0.027342755478677813  0.23723775397701985  0.8814910561815739  1.0000
  C   C93       1.0  0.044635176021870414  0.1812090800215671  0.35287241193608315  1.0000
  C   C94       1.0  0.9553649715668372  0.6812115595915886  0.1471272947448483  1.0000
  C   C95       1.0  0.9553637847652542  0.8187892860904925  0.6471277466166401  1.0000
  C   C96       1.0  0.0446362880289612  0.3187896848575207  0.8528723411804366  1.0000
  N   N1        1.0  0.8581352661444229  0.05672297021772721  0.727063114115957  1.0000
  N   N2        1.0  0.1418648329065206  0.5567231193563771  0.7729370602319747  1.0000
  N   N3        1.0  0.14186369575084973  0.943276835062463  0.27293742190337167  1.0000
  N   N4        1.0  0.8581348937807294  0.443276685924225  0.22706279828924647  1.0000
  N   N5        1.0  0.8667850288328794  0.9667587589043976  0.7486552813897094  1.0000
  N   N6        1.0  0.13321426212775836  0.4667578397197474  0.7513446801031736  1.0000
  N   N7        1.0  0.13321546597097722  0.03324176596012761  0.2513450320337967  1.0000
  N   N8        1.0  0.8667854634512724  0.5332419655610678  0.24865480095121484  1.0000
  N   N9        1.0  0.10128419190838402  0.0506712541846497  0.72973792967386  1.0000
  N   N10       1.0  0.8987151385240255  0.5506714295379139  0.7702614143034909  1.0000
  N   N11       1.0  0.89871476777045  0.9493285510959879  0.2702618514117958  1.0000
  N   N12       1.0  0.10128458816330271  0.44932693657433725  0.22973844421797204  1.0000
  N   N13       1.0  0.1113716118004717  0.9615655063701283  0.7520941017999832  1.0000
  N   N14       1.0  0.8886284466888272  0.46156605341591467  0.7479059388433669  1.0000
  N   N15       1.0  0.8886281159949976  0.038434298910246405  0.24790613418807797  1.0000
  N   N16       1.0  0.11137127999838731  0.5384344714488661  0.2520939196777405  1.0000
  N   N17       1.0  0.0025538957602506997  0.3177607804986593  0.6787012335864304  1.0000
  N   N18       1.0  0.9974446442284022  0.8177608992880323  0.8212990771460654  1.0000
  N   N19       1.0  0.9974450639185408  0.6822397443661502  0.3212985474991044  1.0000
  N   N20       1.0  0.0025558494672353006  0.18223962557671314  0.17870085881060765  1.0000
  N   N21       1.0  0.9859868522177494  0.2207550945162779  0.6740630332583424  1.0000
  N   N22       1.0  0.014011698598196202  0.7207558974704681  0.8259376869782643  1.0000
  N   N23       1.0  0.014012108569268402  0.7792454303483112  0.3259371252940255  1.0000
  N   N24       1.0  0.985988029197202  0.2792453469782643  0.1740625490095553  1.0000
  N   N25       1.0  0.0033079234488724006  0.29816240882776407  0.29670471867742526  1.0000
  N   N26       1.0  0.9966899136133308  0.7981648240932984  0.20329547200512374  1.0000
  N   N27       1.0  0.9966910384464712  0.701835957284075  0.7032958173421379  1.0000
  N   N28       1.0  0.0033098141821029004  0.20183570077126234  0.7967047639828099  1.0000
  N   N29       1.0  0.029892644890061604  0.20332337021343247  0.30233128573593154  1.0000
  N   N30       1.0  0.9701059675744123  0.7033250716517969  0.19766863623729594  1.0000
  N   N31       1.0  0.9701063158970272  0.7966757154828058  0.6976688728166779  1.0000
  N   N32       1.0  0.029894526121225312  0.2966754532129486  0.8023312997193772  1.0000
