data_image0
_chemical_formula_structural       Zr6H40C84Cl12O32
_chemical_formula_sum              "Zr6 H40 C84 Cl12 O32"
_cell_length_a       19.25015681035277
_cell_length_b       19.25020945271973
_cell_length_c       19.250179314033236
_cell_angle_alpha    59.99987482028488
_cell_angle_beta     60.000009227676905
_cell_angle_gamma    60.0000215504014

_space_group_name_H-M_alt    "P 1"
_space_group_IT_number       1

loop_
  _space_group_symop_operation_xyz
  'x, y, z'

loop_
  _atom_site_type_symbol
  _atom_site_label
  _atom_site_symmetry_multiplicity
  _atom_site_fract_x
  _atom_site_fract_y
  _atom_site_fract_z
  _atom_site_occupancy
  Zr  Zr1       1.0  0.9081308832754897  0.40813123037713694  0.5918680246044731  1.0000
  Zr  Zr2       1.0  0.09186511485709992  0.5918662888929234  0.4081343718994361  1.0000
  Zr  Zr3       1.0  0.09186841459439424  0.4081278978057697  0.5918721772823899  1.0000
  Zr  Zr4       1.0  0.9081273714622284  0.5918694093902062  0.4081300071466244  1.0000
  Zr  Zr5       1.0  0.9081357585376394  0.5918615877069939  0.591862910537877  1.0000
  Zr  Zr6       1.0  0.09186117574247281  0.4081368677053518  0.40813952235114936  1.0000
  H   H1        1.0  0.9277307161141192  0.42773364822488  0.7168003432256496  1.0000
  H   H2        1.0  0.9277311408636777  0.7167994727837268  0.4277357365101295  1.0000
  H   H3        1.0  0.2168004561470838  0.4277312681963394  0.4277335488695043  1.0000
  H   H4        1.0  0.9277344751022054  0.42773111707106176  0.4277335311922029  1.0000
  H   H5        1.0  0.31806064024656405  0.6128743224535783  0.1799033122115574  1.0000
  H   H6        1.0  0.6798986780457313  0.3891623279428629  0.8180632538348148  1.0000
  H   H7        1.0  0.6775152618481355  0.6115054407678218  0.8207088847398794  1.0000
  H   H8        1.0  0.5533173144188837  0.6077218116494693  0.947611902609353  1.0000
  H   H9        1.0  0.32070732470402413  0.3902666899861771  0.17751978546665007  1.0000
  H   H10       1.0  0.4476098222179699  0.39134504310016627  0.05332018272051905  1.0000
  H   H11       1.0  0.11287075955309703  0.8180641083399322  0.3891592173809002  1.0000
  H   H12       1.0  0.8891589913076243  0.1799027811564357  0.6128727991035204  1.0000
  H   H13       1.0  0.11150382937933047  0.1775156084339997  0.39026891966960164  1.0000
  H   H14       1.0  0.10772287838427269  0.053316448308969235  0.3913477295529261  1.0000
  H   H15       1.0  0.8902671238005407  0.8207078038652041  0.6115064276029898  1.0000
  H   H16       1.0  0.8913463780340009  0.9476088596059496  0.6077266383432657  1.0000
  H   H17       1.0  0.31805781488626655  0.17990168446010543  0.3891666075644125  1.0000
  H   H18       1.0  0.6799007071319351  0.8180562850124034  0.612874985859321  1.0000
  H   H19       1.0  0.677512025980384  0.8207093491215645  0.39026909539256854  1.0000
  H   H20       1.0  0.5533142870926611  0.9476125051988614  0.3913463933876854  1.0000
  H   H21       1.0  0.32070854131056586  0.1775117040258748  0.6115114024981169  1.0000
  H   H22       1.0  0.44761204375825503  0.05331430590800312  0.6077278121075053  1.0000
  H   H23       1.0  0.8891633727287883  0.6128745275783772  0.8180578016124685  1.0000
  H   H24       1.0  0.11287282970339153  0.38916630862091495  0.17990144755424353  1.0000
  H   H25       1.0  0.8902647360605511  0.6115064048008918  0.1775163394335237  1.0000
  H   H26       1.0  0.8913418460844651  0.6077258103413073  0.05331778186193509  1.0000
  H   H27       1.0  0.11150244269008874  0.3902654082677443  0.8207137420028446  1.0000
  H   H28       1.0  0.10772207773535321  0.39134483129473796  0.947614041712427  1.0000
  H   H29       1.0  0.8891599008435521  0.8180612940928923  0.17990548629611416  1.0000
  H   H30       1.0  0.11287207774317677  0.17989952533865508  0.8180648956775443  1.0000
  H   H31       1.0  0.8902665065724946  0.17751560190126978  0.8207098661350828  1.0000
  H   H32       1.0  0.891343566955655  0.05331691713324453  0.9476126905854797  1.0000
  H   H33       1.0  0.11150543772587442  0.8207077746199117  0.17751820842638466  1.0000
  H   H34       1.0  0.10772152786960698  0.9476104565906953  0.05331773233065471  1.0000
  H   H35       1.0  0.31805851650926786  0.38916133217757937  0.6128761698633056  1.0000
  H   H36       1.0  0.6799005210467328  0.6128708678557403  0.3891612403691411  1.0000
  H   H37       1.0  0.6775167256653346  0.3902646832188949  0.6115072716836991  1.0000
  H   H38       1.0  0.5533160987210762  0.3913431732000845  0.6077278359691575  1.0000
  H   H39       1.0  0.3207061646643936  0.6115056613498948  0.390271106979064  1.0000
  H   H40       1.0  0.44760819128586593  0.6077218801818133  0.39135112076391454  1.0000
  C   C1        1.0  0.7645244662270729  0.501254615495114  0.7313885451710078  1.0000
  C   C2        1.0  0.002828355675632  0.7313889042431326  0.5012550386842846  1.0000
  C   C3        1.0  0.231388713720925  0.5028293697451502  0.26452626711333227  1.0000
  C   C4        1.0  0.0012553322042592782  0.2645230332267801  0.5028312858539437  1.0000
  C   C5        1.0  0.002831128396650304  0.26451884302161227  0.731391121074651  1.0000
  C   C6        1.0  0.764519085454303  0.5028302568183775  0.5012576831825086  1.0000
  C   C7        1.0  0.0012559286260866987  0.7313871408199759  0.2645222985025483  1.0000
  C   C8        1.0  0.2313863583750547  0.5012563540287757  0.502835184158073  1.0000
  C   C9        1.0  0.0012530333888065143  0.5028296883795776  0.7313904214036171  1.0000
  C   C10       1.0  0.231386931336182  0.2645212077187295  0.5012585932286626  1.0000
  C   C11       1.0  0.00283141209677489  0.5012553992403426  0.2645245327560275  1.0000
  C   C12       1.0  0.7645219434256205  0.7313860797949729  0.5028321396905466  1.0000
  C   C13       1.0  0.3094302869027813  0.5021933246337937  0.1877863320131254  1.0000
  C   C14       1.0  0.6877846153427356  0.5005898066822353  0.8094299670723188  1.0000
  C   C15       1.0  0.34678931180292233  0.5639259879665914  0.15152120413318218  1.0000
  C   C16       1.0  0.42006059430992326  0.5649819175787271  0.07981215133884223  1.0000
  C   C17       1.0  0.6515179190747133  0.43776247679794966  0.8467898333808038  1.0000
  C   C18       1.0  0.579810244385392  0.43514290773642744  0.9200608533057063  1.0000
  C   C19       1.0  0.6505813529406126  0.5617064196833964  0.8479079029188838  1.0000
  C   C20       1.0  0.5794754801013867  0.5587712600813716  0.9206013216188608  1.0000
  C   C21       1.0  0.3479072523906764  0.4397997861320775  0.15058534357864056  1.0000
  C   C22       1.0  0.4206000779900022  0.44114685940882487  0.07947853431530656  1.0000
  C   C23       1.0  0.461348994996733  0.5024678998644916  0.03903585811790587  1.0000
  C   C24       1.0  0.5390340407193932  0.49714263732459324  0.9613507635571352  1.0000
  C   C25       1.0  0.0021920126244196346  0.8094320971191706  0.5005876501854302  1.0000
  C   C26       1.0  0.0005885113893313883  0.18778548641781603  0.5021925645214865  1.0000
  C   C27       1.0  0.06392268224155355  0.8467941178917967  0.4377585500321289  1.0000
  C   C28       1.0  0.06497787605533024  0.9200655496552415  0.4351407623949797  1.0000
  C   C29       1.0  0.937759807328092  0.15152160854024999  0.5639251474874526  1.0000
  C   C30       1.0  0.9351388549104342  0.07981374334230638  0.5649825554365292  1.0000
  C   C31       1.0  0.06170466463657929  0.15058171475293142  0.4398007806389543  1.0000
  C   C32       1.0  0.058770375934486196  0.07947478821238006  0.44114954987865224  1.0000
  C   C33       1.0  0.9398005847501454  0.8479079374863331  0.5617049067812161  1.0000
  C   C34       1.0  0.9411453017790875  0.9206013703871323  0.5587737269810091  1.0000
  C   C35       1.0  0.002464859763442481  0.9613518788576695  0.497144254186594  1.0000
  C   C36       1.0  0.9971397479705781  0.03903658130190738  0.5024692213444837  1.0000
  C   C37       1.0  0.3094305925344045  0.18778301389982488  0.5005914312046258  1.0000
  C   C38       1.0  0.6877833532583749  0.8094293419367702  0.5021959687147302  1.0000
  C   C39       1.0  0.34679157272167066  0.1515199939615286  0.43776319946700676  1.0000
  C   C40       1.0  0.4200652846010371  0.07981435770342667  0.4351416964805281  1.0000
  C   C41       1.0  0.6515194885250964  0.8467905140076797  0.5639264211615398  1.0000
  C   C42       1.0  0.5798135517238093  0.9200639220981371  0.5649800358831598  1.0000
  C   C43       1.0  0.6505811098035181  0.8479065624526213  0.4398026030120262  1.0000
  C   C44       1.0  0.5794749445092435  0.9206005318227495  0.4411489088892607  1.0000
  C   C45       1.0  0.34790625749928245  0.15058129015715593  0.5617102374964559  1.0000
  C   C46       1.0  0.4205996612904245  0.07947559494633792  0.5587764368105042  1.0000
  C   C47       1.0  0.4613496141766121  0.03903486699055476  0.49714731366576353  1.0000
  C   C48       1.0  0.5390341128059221  0.9613493413717292  0.5024693984324314  1.0000
  C   C49       1.0  0.0005841705755355865  0.5021938103001916  0.8094327873288165  1.0000
  C   C50       1.0  0.002192014141520787  0.5005871750632308  0.18778708727195692  1.0000
  C   C51       1.0  0.9377599768773238  0.5639270597017471  0.8467907644249023  1.0000
  C   C52       1.0  0.9351416157557109  0.5649811449468204  0.9200633037292505  1.0000
  C   C53       1.0  0.0639241983218709  0.4377617499949551  0.15152006977234578  1.0000
  C   C54       1.0  0.06497868321435621  0.4351417138578242  0.07981288007129447  1.0000
  C   C55       1.0  0.9397995123134207  0.5617071857346757  0.15058482442493945  1.0000
  C   C56       1.0  0.9411451562786864  0.5587746762638304  0.07947791427292122  1.0000
  C   C57       1.0  0.061702658463048024  0.4398006588610102  0.8479089275911563  1.0000
  C   C58       1.0  0.058770792512014225  0.4411469496300171  0.9206021692573287  1.0000
  C   C59       1.0  0.9971445205693144  0.5024677333484179  0.961350872197613  1.0000
  C   C60       1.0  0.002466213367547702  0.49714660042327813  0.039035694037913515  1.0000
  C   C61       1.0  0.0005864503603163594  0.8094307035424889  0.18778818354907398  1.0000
  C   C62       1.0  0.00219026585015317  0.18778413004641695  0.8094354387273057  1.0000
  C   C63       1.0  0.937758065859647  0.8467925265887926  0.15152281253126176  1.0000
  C   C64       1.0  0.9351397602936943  0.920062356047154  0.0798131758572039  1.0000
  C   C65       1.0  0.06392463749862282  0.15151719138428626  0.84679468790425  1.0000
  C   C66       1.0  0.0649789195422699  0.07981057505016748  0.9200676997668823  1.0000
  C   C67       1.0  0.9397996831982451  0.15058184416307097  0.8479110372086822  1.0000
  C   C68       1.0  0.9411463334381905  0.07947408605066636  0.9206039364378711  1.0000
  C   C69       1.0  0.06170516601586921  0.8479074181337652  0.15058546051172775  1.0000
  C   C70       1.0  0.05877114332018628  0.9205997152515546  0.07947831866903948  1.0000
  C   C71       1.0  0.9971409515872196  0.9613498410321454  0.0390387242933485  1.0000
  C   C72       1.0  0.0024655995977128095  0.039034326229327  0.9613545674708349  1.0000
  C   C73       1.0  0.3094288976686386  0.500588808976353  0.5021960083532662  1.0000
  C   C74       1.0  0.6877829945923467  0.5021912934423937  0.5005894797923675  1.0000
  C   C75       1.0  0.3467887584081312  0.4377604243859566  0.5639294555179006  1.0000
  C   C76       1.0  0.4200600681259275  0.43514137489685817  0.5649855604889851  1.0000
  C   C77       1.0  0.6515179155857215  0.563923316216062  0.43776203593053953  1.0000
  C   C78       1.0  0.5798102052382957  0.5649787284327417  0.4351421316211058  1.0000
  C   C79       1.0  0.6505812156675715  0.43979917764264786  0.5617076852824001  1.0000
  C   C80       1.0  0.5794733988947414  0.44114591366762557  0.5587748924978014  1.0000
  C   C81       1.0  0.34790536793288834  0.5617060351427979  0.43980364558780843  1.0000
  C   C82       1.0  0.4205974851879049  0.5587716881477789  0.4411530075738027  1.0000
  C   C83       1.0  0.46134895949042215  0.49714168080490134  0.5024713747560766  1.0000
  C   C84       1.0  0.5390337937932798  0.5024654597242773  0.4971459128086479  1.0000
  Cl  Cl1       1.0  0.450405600997989  0.6504679821205882  0.05069212698840179  1.0000
  Cl  Cl2       1.0  0.5506906486024974  0.34843136495825167  0.950406316785241  1.0000
  Cl  Cl3       1.0  0.15046097541600262  0.9504115071456384  0.34842798295166216  1.0000
  Cl  Cl4       1.0  0.8484263430980119  0.05069549626050929  0.6504672115437913  1.0000
  Cl  Cl5       1.0  0.4504089985734225  0.05070128571063739  0.34842731216925665  1.0000
  Cl  Cl6       1.0  0.5506979174656694  0.9504061102123058  0.6504657750250827  1.0000
  Cl  Cl7       1.0  0.8484310192191842  0.6504671959350644  0.9504044889052705  1.0000
  Cl  Cl8       1.0  0.15046301350277955  0.34843147705829847  0.05069741363534777  1.0000
  Cl  Cl9       1.0  0.8484272403326684  0.9504065998132276  0.050696867002464896  1.0000
  Cl  Cl10      1.0  0.1504625912585171  0.050693558599569116  0.95041226835896  1.0000
  Cl  Cl11      1.0  0.45040661321741027  0.348426078225252  0.6504687170715041  1.0000
  Cl  Cl12      1.0  0.5506905846415223  0.6504648740405796  0.3484332903491562  1.0000
  O   O1        1.0  0.7952254513551009  0.4418964077963847  0.7012485054838107  1.0000
  O   O2        1.0  0.06162346098892607  0.701248904087123  0.44189773440921  1.0000
  O   O3        1.0  0.20124771985330636  0.5616265388694401  0.2952272332341792  1.0000
  O   O4        1.0  0.9418975877375287  0.29522541145549047  0.5616281449931506  1.0000
  O   O5        1.0  0.061628058838643134  0.29521928422192184  0.7012510319805614  1.0000
  O   O6        1.0  0.7952202992577355  0.5616267356070992  0.44189985658542247  1.0000
  O   O7        1.0  0.941896988219348  0.7012476251664237  0.29522443022907646  1.0000
  O   O8        1.0  0.2012461603941063  0.44189778714281414  0.5616310252731935  1.0000
  O   O9        1.0  0.9419003952979209  0.561624394815752  0.7012495453802927  1.0000
  O   O10       1.0  0.2012481194473352  0.29522147795761816  0.4419041644180695  1.0000
  O   O11       1.0  0.06162434569124285  0.4419018600053448  0.29522387711872267  1.0000
  O   O12       1.0  0.7952220106864373  0.701248102713485  0.5616254429584656  1.0000
  O   O13       1.0  0.2012153077118911  0.2946178811104686  0.5604279503501955  1.0000
  O   O14       1.0  0.9437348143307319  0.5604243799284416  0.2946209745395051  1.0000
  O   O15       1.0  0.7946184480282382  0.7012153264862845  0.44373754316976033  1.0000
  O   O16       1.0  0.06042043458433006  0.4437354983654487  0.7012194518565522  1.0000
  O   O17       1.0  0.9437389398992833  0.2946154008147914  0.7012188170257189  1.0000
  O   O18       1.0  0.20121402695608026  0.5604256027833969  0.4437441011167138  1.0000
  O   O19       1.0  0.06042494171232712  0.7012145136966764  0.2946160371619159  1.0000
  O   O20       1.0  0.794616245963766  0.44373856265988837  0.5604246380262268  1.0000
  O   O21       1.0  0.0604212870731544  0.2946191009798511  0.4437416400178904  1.0000
  O   O22       1.0  0.7946213295316085  0.5604201421465902  0.7012155236855477  1.0000
  O   O23       1.0  0.9437370154137528  0.7012176735041746  0.5604220254057918  1.0000
  O   O24       1.0  0.20121743375935344  0.4437379966584274  0.29462447699282274  1.0000
  O   O25       1.0  0.9482897914372612  0.4482872900516456  0.44829196154988427  1.0000
  O   O26       1.0  0.15512985180746605  0.4482884688035612  0.4482904284832329  1.0000
  O   O27       1.0  0.9482876099152547  0.6551292609657225  0.44829250122987213  1.0000
  O   O28       1.0  0.9482868722853153  0.44828990157709103  0.6551302437416452  1.0000
  O   O29       1.0  0.038193003443161955  0.5381981847429529  0.5382005192925733  1.0000
  O   O30       1.0  0.8854057793174305  0.5381962002891569  0.5381993024638732  1.0000
  O   O31       1.0  0.03819741857313374  0.5381948075958363  0.3854075361898595  1.0000
  O   O32       1.0  0.03819525308692549  0.3854054724803221  0.5381985412049843  1.0000
