data_image0
_chemical_formula_structural       NaMo2H22C14N3O15
_chemical_formula_sum              "Na1 Mo2 H22 C14 N3 O15"
_cell_length_a       7.3236776614891745
_cell_length_b       7.724984928468118
_cell_length_c       11.079990580099057
_cell_angle_alpha    71.44445368713883
_cell_angle_beta     75.44729360629515
_cell_angle_gamma    82.87405618524791

_space_group_name_H-M_alt    "P 1"
_space_group_IT_number       1

loop_
  _space_group_symop_operation_xyz
  'x, y, z'

loop_
  _atom_site_type_symbol
  _atom_site_label
  _atom_site_symmetry_multiplicity
  _atom_site_fract_x
  _atom_site_fract_y
  _atom_site_fract_z
  _atom_site_occupancy
  Na  Na1       1.0  0.027040027624749982  0.9817507238292504  0.12713296713454272  1.0000
  Mo  Mo1       1.0  0.9056111583186848  0.6035472765963804  0.6241423512861245  1.0000
  Mo  Mo2       1.0  0.8245688538184409  0.5457956329249213  0.43058999327956826  1.0000
  H   H1        1.0  0.7701276875629117  0.41262916218509105  0.9683357296263679  1.0000
  H   H2        1.0  0.7568324765766975  0.18299627514134187  0.9704075351701318  1.0000
  H   H3        1.0  0.44727456666588244  0.4330075350223482  0.9411451963790608  1.0000
  H   H4        1.0  0.43559560850007256  0.5319521578874385  0.775083292898195  1.0000
  H   H5        1.0  0.5706788232780653  0.1320637801804665  0.8647526998140194  1.0000
  H   H6        1.0  0.7808623740767685  0.15159951397078683  0.7431883181631561  1.0000
  H   H7        1.0  0.4469764944859094  0.1288743950547655  0.7042361134923354  1.0000
  H   H8        1.0  0.41334919688857485  0.3636957287528446  0.685120513437738  1.0000
  H   H9        1.0  0.6410553276535395  0.0177437649747247  0.5244071036098958  1.0000
  H   H10       1.0  0.8264534738345757  0.0836360893815069  0.5747268491314088  1.0000
  H   H11       1.0  0.33753348811224976  0.2516501153330921  0.5190910961999933  1.0000
  H   H12       1.0  0.5116810025052912  0.2850545473099544  0.37322032565934643  1.0000
  H   H13       1.0  0.2813129296341472  0.5557128627498782  0.37399473494017593  1.0000
  H   H14       1.0  0.3511706597859714  0.5778462553115202  0.5099236601733921  1.0000
  H   H15       1.0  0.6432952186972045  0.9168145501632665  0.3035636775269238  1.0000
  H   H16       1.0  0.4663060380644594  0.8319817149355943  0.4443368309801412  1.0000
  H   H17       1.0  0.6439708760483853  0.47884086745228427  0.213666831109279  1.0000
  H   H18       1.0  0.4695533506941345  0.6544194435527332  0.16535462018855168  1.0000
  H   H19       1.0  0.9773184932016861  0.7369568314394713  0.9681716571920942  1.0000
  H   H20       1.0  0.2056658623106528  0.16379343991700784  0.26574856377978046  1.0000
  H   H21       1.0  0.2700800663816239  0.8119897626189001  0.9053534106113476  1.0000
  H   H22       1.0  0.12687350000545908  0.9854515106906377  0.8878495346435498  1.0000
  C   C1        1.0  0.013235430271414796  0.31985807313446196  0.8577146372571604  1.0000
  C   C2        1.0  0.8002514455100849  0.319675090056542  0.907524849177328  1.0000
  C   C3        1.0  0.5945154509703698  0.6841693327647319  0.8388466582486629  1.0000
  C   C4        1.0  0.5300155143694595  0.5015912132862468  0.8428157611815265  1.0000
  C   C5        1.0  0.6469867980416237  0.22484664482608707  0.7725791462554099  1.0000
  C   C6        1.0  0.5229830754347589  0.2557255517871369  0.6752681290811821  1.0000
  C   C7        1.0  0.7294299652650693  0.13183014082130742  0.5083670553111972  1.0000
  C   C8        1.0  0.8505566537841958  0.18556131674417733  0.3704475522620426  1.0000
  C   C9        1.0  0.46097744343988717  0.33195559193179486  0.4599644226014092  1.0000
  C   C10       1.0  0.3999548137475628  0.532283913956597  0.42255276537295566  1.0000
  C   C11       1.0  0.51463234908271  0.8394747738092151  0.34088874663306246  1.0000
  C   C12       1.0  0.3666168409689162  0.9481377908859658  0.27049031512564164  1.0000
  C   C13       1.0  0.5987973614468627  0.6220232246082347  0.20341888370595732  1.0000
  C   C14       1.0  0.7502112027104245  0.739311413348723  0.10235319321122198  1.0000
  N   N1        1.0  0.6961328057727909  0.38790838046436704  0.8012620628017331  1.0000
  N   N2        1.0  0.6147369526274458  0.29384515562237823  0.5332745495435063  1.0000
  N   N3        1.0  0.5595521084735892  0.6480643195088832  0.33608927054413573  1.0000
  O   O1        1.0  0.6768717561950194  0.6617481570054194  0.5573404130076938  1.0000
  O   O2        1.0  0.9783898855910135  0.40168045237314237  0.5486865575585896  1.0000
  O   O3        1.0  0.9532781145460946  0.7000829054094381  0.2994023149330402  1.0000
  O   O4        1.0  0.06050226549936607  0.7734470802606098  0.5508094744640601  1.0000
  O   O5        1.0  0.0774483644188919  0.446971782444976  0.7521622792906156  1.0000
  O   O6        1.0  0.11725713534734439  0.2054243929192765  0.9222595107197974  1.0000
  O   O7        1.0  0.7572362121657006  0.7334852840063065  0.7639136715961995  1.0000
  O   O8        1.0  0.49220107799734325  0.7780749445369751  0.9056355948578199  1.0000
  O   O9        1.0  0.8938786489015553  0.07672923247578468  0.3046204024867976  1.0000
  O   O10       1.0  0.908455211959719  0.35081518095164904  0.327238383064845  1.0000
  O   O11       1.0  0.7561404661436483  0.9044638509942189  0.08762504452499789  1.0000
  O   O12       1.0  0.8710841792897384  0.6493273342021765  0.0312295734014184  1.0000
  O   O13       1.0  0.3166338290835283  0.10578967040163431  0.3012217629786846  1.0000
  O   O14       1.0  0.30019991652694233  0.9049401871406033  0.1939411147466926  1.0000
  O   O15       1.0  0.13837658570962924  0.8547436077861336  0.8940623408567203  1.0000
