data_image0
_chemical_formula_structural       U2H8C12N2O10
_chemical_formula_sum              "U2 H8 C12 N2 O10"
_cell_length_a       6.1817120433061294
_cell_length_b       7.94305452332561
_cell_length_c       8.335337490198034
_cell_angle_alpha    79.78271644873536
_cell_angle_beta     88.07017291736882
_cell_angle_gamma    76.63736749642408

_space_group_name_H-M_alt    "P 1"
_space_group_IT_number       1

loop_
  _space_group_symop_operation_xyz
  'x, y, z'

loop_
  _atom_site_type_symbol
  _atom_site_label
  _atom_site_symmetry_multiplicity
  _atom_site_fract_x
  _atom_site_fract_y
  _atom_site_fract_z
  _atom_site_occupancy
  U   U1        1.0  0.08290599178739905  0.37316684154945534  0.18756785366947082  1.0000
  U   U2        1.0  0.9170995079614735  0.6268251774863884  0.8124328473139216  1.0000
  H   H1        1.0  0.007825255863849594  0.10146367634721541  0.5842491617546275  1.0000
  H   H2        1.0  0.9921719397998812  0.898541573488771  0.41574950224831764  1.0000
  H   H3        1.0  0.1588882415333046  0.03574794382144831  0.867538022790882  1.0000
  H   H4        1.0  0.8411050995756497  0.9642534578122125  0.13246140371730775  1.0000
  H   H5        1.0  0.5061841281120464  0.1359867127161678  0.9191645018615662  1.0000
  H   H6        1.0  0.49380598356452043  0.8640147624268694  0.08084219797115114  1.0000
  H   H7        1.0  0.7094229717392435  0.2596331679257773  0.6770420447379238  1.0000
  H   H8        1.0  0.2905745992812923  0.7403707833924571  0.32296642884715254  1.0000
  C   C1        1.0  0.16523984050494525  0.1308843986177095  0.6095301845070367  1.0000
  C   C2        1.0  0.834756424985727  0.8691182604341208  0.39047254684827953  1.0000
  C   C3        1.0  0.24945006717342721  0.09721810725842767  0.7686215331084514  1.0000
  C   C4        1.0  0.7505461900459378  0.902784547980481  0.23137879968759742  1.0000
  C   C5        1.0  0.44297180227211885  0.14903212780209424  0.7962292031560452  1.0000
  C   C6        1.0  0.5570235289098376  0.8509679385591298  0.2037763962720122  1.0000
  C   C7        1.0  0.5559804091364595  0.21871721859399432  0.6626658176988728  1.0000
  C   C8        1.0  0.44401911060052857  0.7812853783872172  0.33733683600971903  1.0000
  C   C9        1.0  0.5880701794936412  0.2923758422259369  0.3544271155445174  1.0000
  C   C10       1.0  0.4119306969226526  0.7076214939582145  0.6455728017053846  1.0000
  C   C11       1.0  0.4673410102836895  0.23778748262510158  0.5068644601674279  1.0000
  C   C12       1.0  0.5326610832921401  0.7622176817307817  0.493138884483969  1.0000
  N   N1        1.0  0.2696664609798063  0.202073084742814  0.48067175720286315  1.0000
  N   N2        1.0  0.7303386163984765  0.797926787780696  0.519328812166485  1.0000
  O   O1        1.0  0.07232516939924237  0.5625576909651073  0.28732420840228207  1.0000
  O   O2        1.0  0.9276863999290581  0.4374420497913222  0.7126714085550816  1.0000
  O   O3        1.0  0.11095822337021129  0.1582720959162671  0.1266220838131886  1.0000
  O   O4        1.0  0.8890374888257848  0.8417200978927043  0.8733716544325747  1.0000
  O   O5        1.0  0.48170539585701283  0.3196691926469554  0.2212293781580855  1.0000
  O   O6        1.0  0.5182998375836545  0.6803175985336055  0.7787698244696202  1.0000
  O   O7        1.0  0.7898321892365983  0.30046016795927244  0.367432930427711  1.0000
  O   O8        1.0  0.21016799436525696  0.6995397919508051  0.6325641575728157  1.0000
  O   O9        1.0  0.19561483083519696  0.49281504169628937  0.9585727116566647  1.0000
  O   O10       1.0  0.8043921787169307  0.5071834688643619  0.041417240717663645  1.0000
