data_image0
_chemical_formula_structural       Zn16H44C104S16Cl4O52
_chemical_formula_sum              "Zn16 H44 C104 S16 Cl4 O52"
_cell_length_a       19.6783156422737
_cell_length_b       19.664736698842415
_cell_length_c       33.40075318883063
_cell_angle_alpha    79.14508031313186
_cell_angle_beta     79.10690126608363
_cell_angle_gamma    63.89585344612877

_space_group_name_H-M_alt    "P 1"
_space_group_IT_number       1

loop_
  _space_group_symop_operation_xyz
  'x, y, z'

loop_
  _atom_site_type_symbol
  _atom_site_label
  _atom_site_symmetry_multiplicity
  _atom_site_fract_x
  _atom_site_fract_y
  _atom_site_fract_z
  _atom_site_occupancy
  Zn  Zn1       1.0  0.055943796444488186  0.3990588279994468  0.4776683546942807  1.0000
  Zn  Zn2       1.0  0.9847809461329007  0.4836444001666748  0.5601279218765073  1.0000
  Zn  Zn3       1.0  0.058827790849768705  0.5600316937773043  0.4820374061479599  1.0000
  Zn  Zn4       1.0  0.9014580381578909  0.5553105813887312  0.47963679335903464  1.0000
  Zn  Zn5       1.0  0.6937013555578774  0.34987040882772646  0.27169848900332744  1.0000
  Zn  Zn6       1.0  0.6889088942706322  0.18916548839878533  0.2664464752153252  1.0000
  Zn  Zn7       1.0  0.7685862653557508  0.26679374648018234  0.19085580099130792  1.0000
  Zn  Zn8       1.0  0.8477867030736307  0.19480167164210357  0.27230348982038083  1.0000
  Zn  Zn9       1.0  0.26712527006156256  0.7667364647852677  0.6894432140236618  1.0000
  Zn  Zn10      1.0  0.34892897882836843  0.6961835212142586  0.7718409920509759  1.0000
  Zn  Zn11      1.0  0.19278716982935856  0.8484551293258064  0.7710623880738298  1.0000
  Zn  Zn12      1.0  0.1908976695693525  0.6885442687330607  0.7667275017577283  1.0000
  Zn  Zn13      1.0  0.5601652510739399  0.060361024849676384  0.9831735160862964  1.0000
  Zn  Zn14      1.0  0.401139411045193  0.05534204415788931  0.9783820975601716  1.0000
  Zn  Zn15      1.0  0.5553961720654926  0.9009855583614975  0.9783126698411311  1.0000
  Zn  Zn16      1.0  0.48312873281075513  0.9832728412107269  0.06036951975649168  1.0000
  H   H1        1.0  0.9548793267548135  0.24832584392135001  0.35165061592153535  1.0000
  H   H2        1.0  0.7473093757648002  0.45351694098835765  0.35010152924987653  1.0000
  H   H3        1.0  0.999448046419829  0.2996883607788945  0.3996931033045926  1.0000
  H   H4        1.0  0.09679533261280682  0.596589354783397  0.6999280335209407  1.0000
  H   H5        1.0  0.20126641089716202  0.7011859427033398  0.5981487431562941  1.0000
  H   H6        1.0  0.0503611331647633  0.550287946816354  0.650280950136832  1.0000
  H   H7        1.0  0.46371741363358865  0.2391388445675843  0.34078327694844296  1.0000
  H   H8        1.0  0.4789412960283742  0.7027107836224786  0.6013739269069448  1.0000
  H   H9        1.0  0.20306324181684232  0.978585884194885  0.6012536207855846  1.0000
  H   H10       1.0  0.9492245348545439  0.9706775975184313  0.34791804296607154  1.0000
  H   H11       1.0  0.5500753837110536  0.05005127310626277  0.15329314717973833  1.0000
  H   H12       1.0  0.6517449287940807  0.152005396300943  0.04875988697379796  1.0000
  H   H13       1.0  0.5997849848677035  0.09968028779703536  0.19959656095743847  1.0000
  H   H14       1.0  0.5470021378353495  0.7716492205604409  0.14849015460494294  1.0000
  H   H15       1.0  0.16283281812774666  0.14143683068752472  0.040113387637980204  1.0000
  H   H16       1.0  0.5017009481762713  0.7948983646343561  0.8983036472577838  1.0000
  H   H17       1.0  0.29679421694981306  0.0027453775691199576  0.899720401303796  1.0000
  H   H18       1.0  0.45043113452841516  0.7503066086101169  0.8502755186459298  1.0000
  H   H19       1.0  0.3006658878467903  0.27927098429565683  0.902228404166067  1.0000
  H   H20       1.0  0.786306292442383  0.010744832844650843  0.9092064137917435  1.0000
  H   H21       1.0  0.2313736711839312  0.5755601286102277  0.39911977693982703  1.0000
  H   H22       1.0  0.3306911795171033  0.5510153993207823  0.39696981939505355  1.0000
  H   H23       1.0  0.2759981062432218  0.5358267935940971  0.44405415791250397  1.0000
  H   H24       1.0  0.821200625574683  0.47687971927253153  0.6535530341011296  1.0000
  H   H25       1.0  0.7572293770057783  0.5366614833119313  0.691025021868157  1.0000
  H   H26       1.0  0.8239162650488369  0.5641476877314697  0.6559631388687495  1.0000
  H   H27       1.0  0.06434646714825479  0.32366654139894974  0.6560721957529979  1.0000
  H   H28       1.0  0.03655148570581449  0.2570668300853852  0.6909835135099842  1.0000
  H   H29       1.0  0.9770934580588104  0.3212336751268339  0.6534900399591167  1.0000
  H   H30       1.0  0.7981782761327736  0.7218600151376646  0.38984604457195376  1.0000
  H   H31       1.0  0.7319615489710004  0.8198504620084675  0.38625208425104063  1.0000
  H   H32       1.0  0.7584775016176339  0.7667342356325616  0.43474334293766503  1.0000
  H   H33       1.0  0.7729324667243347  0.4287553755077552  0.09661762310050652  1.0000
  H   H34       1.0  0.7132190338219928  0.4927230156306521  0.05919908958545511  1.0000
  H   H35       1.0  0.6858145610841788  0.4259501657397281  0.09418134647650331  1.0000
  H   H36       1.0  0.072287432133642  0.1481652979151491  0.23986813972646817  1.0000
  H   H37       1.0  0.1579359223188916  0.06951199189707322  0.2240599074877991  1.0000
  H   H38       1.0  0.06951578679728951  0.06096433945919699  0.23736793291933375  1.0000
  H   H39       1.0  0.4915283504324394  0.4830442921451023  0.8152131964087844  1.0000
  H   H40       1.0  0.5179117782027447  0.4301625532523159  0.8637700711154183  1.0000
  H   H41       1.0  0.45159346346728313  0.5281198426793096  0.8600461419200942  1.0000
  H   H42       1.0  0.9735666661205826  0.7141463658031596  0.8060004751260197  1.0000
  H   H43       1.0  0.9193622525202515  0.6984225494592162  0.8531900483657114  1.0000
  H   H44       1.0  0.018673394819174398  0.6742655201460435  0.8507766883180922  1.0000
  C   C1        1.0  0.061488842241701  0.3156038808734109  0.5615496763561724  1.0000
  C   C2        1.0  0.06851122021455323  0.5689523008165692  0.5695590043958775  1.0000
  C   C3        1.0  0.18422105554255103  0.43833966897594207  0.43831644397564434  1.0000
  C   C4        1.0  0.9383973318776953  0.6844178678763271  0.4385536240218074  1.0000
  C   C5        1.0  0.9315039231095599  0.43008001421151903  0.4307705410260497  1.0000
  C   C6        1.0  0.8159255840469156  0.5618731262482369  0.5617291338819187  1.0000
  C   C7        1.0  0.5654501146490886  0.3111002110101282  0.31141193394971384  1.0000
  C   C8        1.0  0.6806275289665182  0.18038185648727265  0.18123392268697813  1.0000
  C   C9        1.0  0.6887951142099737  0.4346013677409529  0.18871108833867115  1.0000
  C   C10       1.0  0.9345971305169556  0.1888082749710591  0.18883084907923126  1.0000
  C   C11       1.0  0.8198439639669175  0.3190688594071387  0.31928694659604423  1.0000
  C   C12       1.0  0.8120549468139373  0.06552437922676535  0.3114690546539337  1.0000
  C   C13       1.0  0.434137108085153  0.6888251398526672  0.6881828309483426  1.0000
  C   C14       1.0  0.32003377085879237  0.8183718888509403  0.8191035009943877  1.0000
  C   C15       1.0  0.18869567014689176  0.9338522422945201  0.6879934929911828  1.0000
  C   C16       1.0  0.0653347290169251  0.8112136981811274  0.8112462031550864  1.0000
  C   C17       1.0  0.18050832440606973  0.6804178953809127  0.680690485153207  1.0000
  C   C18       1.0  0.3114459244246248  0.5656629145552682  0.811419838716944  1.0000
  C   C19       1.0  0.4379678429192069  0.1843327810656419  0.9385924738884202  1.0000
  C   C20       1.0  0.43103929654616724  0.9302274920911273  0.9306486700756127  1.0000
  C   C21       1.0  0.6841820882618563  0.9391339876592111  0.9385672314374676  1.0000
  C   C22       1.0  0.5612392290352376  0.8159608442958017  0.061688691302428815  1.0000
  C   C23       1.0  0.5690905445259701  0.06934752689923583  0.06956133144030473  1.0000
  C   C24       1.0  0.3153714135824686  0.06183468346291933  0.06122490463789631  1.0000
  C   C25       1.0  0.8995136082910521  0.4048569090702328  0.40198473561611797  1.0000
  C   C26       1.0  0.8482826003185695  0.3480646813437998  0.34793073812463154  1.0000
  C   C27       1.0  0.8275662080072479  0.4483885803055117  0.3876281280309186  1.0000
  C   C28       1.0  0.9197173638696158  0.30420114745353277  0.3618392596568541  1.0000
  C   C29       1.0  0.8027943904689111  0.4196972324657009  0.3609011650476647  1.0000
  C   C30       1.0  0.944242336222615  0.3327484723899943  0.3884143712825292  1.0000
  C   C31       1.0  0.09914057374074761  0.5991396650267121  0.5965500661528794  1.0000
  C   C32       1.0  0.15182322360780634  0.6518684785449051  0.6519319486674464  1.0000
  C   C33       1.0  0.14240973989750927  0.6422086208956869  0.5819622339008036  1.0000
  C   C34       1.0  0.10916884038127249  0.6091443980543757  0.666915830349531  1.0000
  C   C35       1.0  0.16810656784950603  0.6680439624978333  0.6096565307930322  1.0000
  C   C36       1.0  0.08359614655037009  0.5835763225252036  0.6393724574102678  1.0000
  C   C37       1.0  0.3036538068198881  0.4553004011705182  0.4013251402383276  1.0000
  C   C38       1.0  0.4462277999625143  0.2959840263023423  0.3488919368172035  1.0000
  C   C39       1.0  0.25902488672557666  0.41437566718970237  0.41372701207433965  1.0000
  C   C40       1.0  0.49075409525961083  0.3362784192262183  0.3364378647203311  1.0000
  C   C41       1.0  0.3779834494912464  0.33868077382980744  0.37254753643001953  1.0000
  C   C42       1.0  0.37165771855467256  0.41094303579929903  0.3777416902032798  1.0000
  C   C43       1.0  0.727177076299654  0.5753155848923794  0.6297251962009939  1.0000
  C   C44       1.0  0.5240273623794282  0.6736298560339757  0.6211234430451216  1.0000
  C   C45       1.0  0.7417799598431286  0.5858952204810423  0.5870179479469826  1.0000
  C   C46       1.0  0.5091912564615413  0.6634848545436468  0.6635023125952771  1.0000
  C   C47       1.0  0.6031893024680883  0.6417760206942729  0.608446248971447  1.0000
  C   C48       1.0  0.64742540569533  0.6077502959494578  0.6414606821626735  1.0000
  C   C49       1.0  0.0754713940667031  0.22699779699681233  0.6296448339413703  1.0000
  C   C50       1.0  0.17402752992248344  0.023731589201453566  0.6210084784693636  1.0000
  C   C51       1.0  0.0859233849961072  0.24148768834026405  0.5869062714636543  1.0000
  C   C52       1.0  0.16379483994117552  0.008928032364700274  0.6633841760771589  1.0000
  C   C53       1.0  0.1421254661847371  0.10290292576196686  0.6083607045816636  1.0000
  C   C54       1.0  0.10806689617968601  0.14720242672664335  0.6413957043969846  1.0000
  C   C55       1.0  0.8433583397901641  0.7998325793641498  0.39744297836548986  1.0000
  C   C56       1.0  0.9052026025472769  0.9497781983345134  0.3525343511590791  1.0000
  C   C57       1.0  0.9127158525857411  0.7587938567702602  0.41354481931657733  1.0000
  C   C58       1.0  0.8365036407642421  0.9907586621139187  0.33645226740848955  1.0000
  C   C59       1.0  0.9084547687614092  0.8801129360129706  0.3747576264338832  1.0000
  C   C60       1.0  0.8419796726082752  0.8692183270597484  0.3752798851432929  1.0000
  C   C61       1.0  0.6534173474041937  0.1535644626126356  0.150819984857776  1.0000
  C   C62       1.0  0.5979764900077952  0.09811751011849165  0.0981274018818112  1.0000
  C   C63       1.0  0.6678786421470804  0.1682369589691959  0.10766198503434052  1.0000
  C   C64       1.0  0.5830556633771877  0.08311340192367567  0.14080756348281653  1.0000
  C   C65       1.0  0.6402282971145469  0.14048181742406735  0.08189818093539002  1.0000
  C   C66       1.0  0.6106309700848414  0.11067326913860855  0.16636029124242677  1.0000
  C   C67       1.0  0.6744709013438738  0.5228916779629597  0.12050768875904085  1.0000
  C   C68       1.0  0.5760532684138583  0.7263521566301702  0.12882258645198164  1.0000
  C   C69       1.0  0.6639828991445144  0.5086169375700819  0.16326544915750674  1.0000
  C   C70       1.0  0.586334456732672  0.7409596817748108  0.08642425940772115  1.0000
  C   C71       1.0  0.6078401331690274  0.6472006722117454  0.14159689680759163  1.0000
  C   C72       1.0  0.6419044803219337  0.6026761240760763  0.1086560404187509  1.0000
  C   C73       1.0  0.08096417286494531  0.12410161833592069  0.17841729708362664  1.0000
  C   C74       1.0  0.1697923463797864  0.12515368910868568  0.0725546316787842  1.0000
  C   C75       1.0  0.0095872736047014  0.1633175885508749  0.16436683241545322  1.0000
  C   C76       1.0  0.24076047110563087  0.08647097986642645  0.08636923415414803  1.0000
  C   C77       1.0  0.1111365019343751  0.13919981380411875  0.10577457105252112  1.0000
  C   C78       1.0  0.13847614722570967  0.11082659990659487  0.14441860690502753  1.0000
  C   C79       1.0  0.34535963655032736  0.8504046384298148  0.8478475596781153  1.0000
  C   C80       1.0  0.4021808165141252  0.9017291129962925  0.9019264990062513  1.0000
  C   C81       1.0  0.3019350476736236  0.9224744743554751  0.8621722449539038  1.0000
  C   C82       1.0  0.4459559398628913  0.8301686675622405  0.8880431743286155  1.0000
  C   C83       1.0  0.3306536627909935  0.9472381810539616  0.8889001049831153  1.0000
  C   C84       1.0  0.41737916298027505  0.80563787375533  0.861472531185136  1.0000
  C   C85       1.0  0.40656861061320637  0.4500606524242981  0.8525192762693623  1.0000
  C   C86       1.0  0.3447213003526103  0.30012835123271475  0.8975525374235505  1.0000
  C   C87       1.0  0.3372522401382058  0.49112488130329984  0.8363772619733825  1.0000
  C   C88       1.0  0.4134213422331571  0.2591546316541267  0.9136412571142645  1.0000
  C   C89       1.0  0.3415323445440351  0.36973667282233424  0.8752540171227212  1.0000
  C   C90       1.0  0.40800247056136396  0.38064549434763956  0.8746990207253945  1.0000
  C   C91       1.0  0.9460999553916525  0.7943589927229621  0.8487786128070385  1.0000
  C   C92       1.0  0.8037056308259451  0.9538754281207454  0.9011460312754668  1.0000
  C   C93       1.0  0.9908434524809169  0.8351188766062447  0.8362324686891898  1.0000
  C   C94       1.0  0.7590079650980145  0.9137446030988692  0.9136276360614207  1.0000
  C   C95       1.0  0.8719667735734687  0.9110260946890631  0.8775153380288503  1.0000
  C   C96       1.0  0.8781583451699716  0.8387791390731393  0.8723835091932347  1.0000
  C   C97       1.0  0.28471525134612824  0.5335609517939658  0.4107795489723857  1.0000
  C   C98       1.0  0.7852193541419582  0.5362388820717993  0.6593049550862703  1.0000
  C   C99       1.0  0.0363442125195874  0.28507530299430067  0.6592799626716542  1.0000
  C   C100      1.0  0.7794068952049855  0.7761038640064087  0.402219613872262  1.0000
  C   C101      1.0  0.7136133886908594  0.4647448534971587  0.0909164393005568  1.0000
  C   C102      1.0  0.09636678571544621  0.09919946805560897  0.22221537937049626  1.0000
  C   C103      1.0  0.470511513574877  0.4738048881128805  0.8477358977370956  1.0000
  C   C104      1.0  0.9651217394942081  0.716124420083446  0.8392889850604491  1.0000
  S   S1        1.0  0.299285993970372  0.3244280684102421  0.39703623101317487  1.0000
  S   S2        1.0  0.4502305159039679  0.42588644459776503  0.35330898490718005  1.0000
  S   S3        1.0  0.6602035249861657  0.6340119141524522  0.5620665369423963  1.0000
  S   S4        1.0  0.5908999704842799  0.6153503242957113  0.6881317002862916  1.0000
  S   S5        1.0  0.13421105339428857  0.15982225358216334  0.5619744751414474  1.0000
  S   S6        1.0  0.11559375695657792  0.09069203920856948  0.68806203644521  1.0000
  S   S7        1.0  0.9742205157424523  0.8039111088839089  0.40182689389698834  1.0000
  S   S8        1.0  0.7756453491995784  0.9452197194343195  0.34821063898757404  1.0000
  S   S9        1.0  0.6155986635840519  0.5904928986261595  0.18806364940546424  1.0000
  S   S10       1.0  0.6344782661833862  0.6589711059726255  0.06191590714219328  1.0000
  S   S11       1.0  0.013040204652412502  0.1831238354945341  0.11107540688353625  1.0000
  S   S12       1.0  0.23673787178572075  0.0668794607871134  0.13954899752061323  1.0000
  S   S13       1.0  0.27583442647745215  0.4458828157643638  0.8480977884996579  1.0000
  S   S14       1.0  0.47431935329149155  0.3046790099537304  0.9018136810567726  1.0000
  S   S15       1.0  0.9507619678861944  0.925081152716998  0.852954824723547  1.0000
  S   S16       1.0  0.7994504106606398  0.8240586194394548  0.8968477442497261  1.0000
  Cl  Cl1       1.0  0.7646969713301955  0.5378828717366343  0.400852539403239  1.0000
  Cl  Cl2       1.0  0.16737527845733524  0.6667361895353918  0.5306417982332334  1.0000
  Cl  Cl3       1.0  0.7190732546230053  0.21975193221718575  0.08288266052727523  1.0000
  Cl  Cl4       1.0  0.21260431164481733  0.9852439091494817  0.8489586179642787  1.0000
  O   O1        1.0  0.0010157220867484003  0.49774117603527634  0.5000230829338578  1.0000
  O   O2        1.0  0.07789542560630032  0.31457449596369713  0.5225987667768096  1.0000
  O   O3        1.0  0.030287355859492503  0.5310119731897842  0.5876985532623352  1.0000
  O   O4        1.0  0.15555465426434273  0.5049035766973374  0.4498418276032227  1.0000
  O   O5        1.0  0.025960270900007708  0.37478013748700073  0.5805107262134542  1.0000
  O   O6        1.0  0.1539001739831249  0.3906709839085066  0.4460902919775976  1.0000
  O   O7        1.0  0.08246938509915222  0.5831074346990162  0.5310060932259831  1.0000
  O   O8        1.0  0.005558934961179299  0.6572798606605943  0.4493226339162818  1.0000
  O   O9        1.0  0.8908316053455608  0.49512358172970766  0.4428971712473527  1.0000
  O   O10       1.0  0.8920307105732093  0.6528068497704068  0.4476343855379029  1.0000
  O   O11       1.0  0.9974652449304388  0.3838665082233773  0.4408736619939334  1.0000
  O   O12       1.0  0.8752871893017231  0.5259412876904932  0.5803956697742053  1.0000
  O   O13       1.0  0.8147478403534335  0.5792350760809626  0.5227959636525271  1.0000
  O   O14       1.0  0.7490032297200245  0.2499410822522846  0.250935686847356  1.0000
  O   O15       1.0  0.5962591630395837  0.3582961180200426  0.30350666363800377  1.0000
  O   O16       1.0  0.6627496050034624  0.1620842716084282  0.21928089857369323  1.0000
  O   O17       1.0  0.7250627770676134  0.3752816578473242  0.16995501066307386  1.0000
  O   O18       1.0  0.5927392659188512  0.24477934900087212  0.2998518250054475  1.0000
  O   O19       1.0  0.6721304563170775  0.435648414847158  0.22769622126711658  1.0000
  O   O20       1.0  0.7191969954691403  0.21897829785125106  0.16710954280178214  1.0000
  O   O21       1.0  0.8766446572327808  0.22503491755777108  0.16887316709418346  1.0000
  O   O22       1.0  0.8639938373552951  0.25330109586448646  0.30836829853446807  1.0000
  O   O23       1.0  0.9329862281894139  0.17301814435680254  0.22784696696162854  1.0000
  O   O24       1.0  0.7541278456151801  0.3623836215286784  0.3082785185622968  1.0000
  O   O25       1.0  0.7457335359229376  0.09302998555705952  0.29982524041520264  1.0000
  O   O26       1.0  0.8592459025817191  0.09616892642425502  0.30359332979252684  1.0000
  O   O27       1.0  0.25052221064942876  0.749339541399763  0.7496045879532646  1.0000
  O   O28       1.0  0.3760208529291589  0.7242920702584  0.6685696756152951  1.0000
  O   O29       1.0  0.3661634505097382  0.7521040010442519  0.8091466230409667  1.0000
  O   O30       1.0  0.17214473500424532  0.9337663653451924  0.7269634138172664  1.0000
  O   O31       1.0  0.43400098978176527  0.6730216041581726  0.7271837888675777  1.0000
  O   O32       1.0  0.22443411856638557  0.8755791993861661  0.6684260234127211  1.0000
  O   O33       1.0  0.255235493095455  0.8588649609978346  0.8067813409702398  1.0000
  O   O34       1.0  0.0953403291492307  0.8591902101609747  0.8033193462676352  1.0000
  O   O35       1.0  0.16387759846652025  0.6641009358946945  0.7190046800321712  1.0000
  O   O36       1.0  0.09415699002510539  0.7448769232498972  0.7994322330526915  1.0000
  O   O37       1.0  0.21912489530088664  0.7185450238766078  0.6643966458832155  1.0000
  O   O38       1.0  0.3572479514740009  0.597946787913699  0.8029819493692616  1.0000
  O   O39       1.0  0.2447303498256872  0.5921096846573376  0.8001475061482283  1.0000
  O   O40       1.0  0.4999417838885519  0.999966740787869  6.786974408611977e-05  1.0000
  O   O41       1.0  0.5044061354224354  0.1569471080896463  0.9501432069311806  1.0000
  O   O42       1.0  0.387431426301994  0.9959457361900941  0.9417547839367517  1.0000
  O   O43       1.0  0.6531456693488809  0.8921342222030118  0.9465223490181247  1.0000
  O   O44       1.0  0.3910631537175107  0.15341613596253004  0.9465052176344743  1.0000
  O   O45       1.0  0.6568484304525198  0.005543033935708836  0.9500301905646115  1.0000
  O   O46       1.0  0.4967552108330438  0.8863660543086951  0.9415688195450188  1.0000
  O   O47       1.0  0.5771556069289475  0.8159072529023135  0.022682525063160597  1.0000
  O   O48       1.0  0.5307208514831743  0.03105052019245138  0.08605633943299301  1.0000
  O   O49       1.0  0.5259083637003172  0.8743318622852453  0.08119613409223093  1.0000
  O   O50       1.0  0.5852568962772438  0.0855953432818382  0.031175480217044107  1.0000
  O   O51       1.0  0.3152423345973644  0.07781253358501769  0.022329075901915  1.0000
  O   O52       1.0  0.37387157893391526  0.02651696009157688  0.08071397182803251  1.0000
