data_image0
_chemical_formula_structural       In8H96C176O40
_chemical_formula_sum              "In8 H96 C176 O40"
_cell_length_a       14.163230783865108
_cell_length_b       16.04331559569677
_cell_length_c       31.201238650993655
_cell_angle_alpha    89.96338060974223
_cell_angle_beta     89.02846301414132
_cell_angle_gamma    89.08047973011608

_space_group_name_H-M_alt    "P 1"
_space_group_IT_number       1

loop_
  _space_group_symop_operation_xyz
  'x, y, z'

loop_
  _atom_site_type_symbol
  _atom_site_label
  _atom_site_symmetry_multiplicity
  _atom_site_fract_x
  _atom_site_fract_y
  _atom_site_fract_z
  _atom_site_occupancy
  In  In1       1.0  0.8686059746468118  0.9988492637048905  0.2507369970459833  1.0000
  In  In2       1.0  0.6269745734237447  0.004631821300442602  0.7511471903330358  1.0000
  In  In3       1.0  0.8761417667415261  0.0009597421327569995  0.7502895696061884  1.0000
  In  In4       1.0  0.6186106216397818  0.9961146363059543  0.24984164720027735  1.0000
  In  In5       1.0  0.369465237669374  0.9978019823430632  0.251100222590793  1.0000
  In  In6       1.0  0.12521783421743754  0.9953940557437876  0.7492785363066756  1.0000
  In  In7       1.0  0.3759244116304785  0.9983612619572212  0.7485717397897673  1.0000
  In  In8       1.0  0.11956789353972402  0.00032744429803699995  0.24808035605236253  1.0000
  H   H1        1.0  0.7364637768226958  0.04667009720242281  0.3068138822308483  1.0000
  H   H2        1.0  0.7614666205219366  0.7131234919382479  0.04099928374790099  1.0000
  H   H3        1.0  0.7388313790699573  0.5008714266132657  0.14905960041041058  1.0000
  H   H4        1.0  0.7535920998169987  0.9557841096616075  0.6941726600880287  1.0000
  H   H5        1.0  0.7657386430900534  0.7136234588278327  0.9625470051422694  1.0000
  H   H6        1.0  0.7540015062930224  0.5028250075327989  0.8536363639170614  1.0000
  H   H7        1.0  0.730778907265105  0.2904163606829115  0.9618857457752197  1.0000
  H   H8        1.0  0.7269457329280514  0.29024849416545356  0.0403990266172727  1.0000
  H   H9        1.0  0.9991795553047854  0.04842113376468401  0.805747989440263  1.0000
  H   H10       1.0  0.0128041457271877  0.7112042715547703  0.5386751901828217  1.0000
  H   H11       1.0  0.0027511992263314013  0.49832146209632094  0.6467352457252105  1.0000
  H   H12       1.0  0.9904576141148171  0.0513786350756291  0.19303433664914138  1.0000
  H   H13       1.0  0.010811114128763703  0.7120873449872394  0.4602200834733522  1.0000
  H   H14       1.0  0.9909302536584904  0.5017566205685853  0.3514944993845076  1.0000
  H   H15       1.0  0.9767561351772899  0.2889162715863309  0.45965779365322124  1.0000
  H   H16       1.0  0.9807224503449705  0.28792983594703264  0.5380427375919155  1.0000
  H   H17       1.0  0.8701675542058354  0.7107343543873484  0.41062741465523794  1.0000
  H   H18       1.0  0.8734495023342745  0.8362544076274432  0.3631802427048568  1.0000
  H   H19       1.0  0.6255554940296834  0.6132306872093308  0.346701070082453  1.0000
  H   H20       1.0  0.6259620963728594  0.7407481109750053  0.3006498512384183  1.0000
  H   H21       1.0  0.8858805176405014  0.7476980970789737  0.19274631624314503  1.0000
  H   H22       1.0  0.6203955723933775  0.8324347634110082  0.14287106329009447  1.0000
  H   H23       1.0  0.615310111502076  0.7066389827372886  0.09555129281020668  1.0000
  H   H24       1.0  0.8789069534197438  0.6192639065633543  0.14738558151806555  1.0000
  H   H25       1.0  0.8773073755830226  0.1783564125321035  0.14303636922940643  1.0000
  H   H26       1.0  0.8774279383205937  0.30570166817677363  0.09693672124655707  1.0000
  H   H27       1.0  0.5988412723016836  0.37120991703269374  0.14441573156798165  1.0000
  H   H28       1.0  0.5977617642640283  0.2417346119031549  0.18899912568594596  1.0000
  H   H29       1.0  0.6265585120296394  0.16757447834385888  0.3596105773303932  1.0000
  H   H30       1.0  0.8618024636158454  0.3844543831188291  0.3492273692423069  1.0000
  H   H31       1.0  0.8574826711494907  0.2557175288930226  0.3043369551202985  1.0000
  H   H32       1.0  0.6299085043388715  0.294553072846739  0.40568359811776117  1.0000
  H   H33       1.0  0.6519197879827062  0.7555507696499363  0.6887724183494796  1.0000
  H   H34       1.0  0.8677058746625904  0.8254960025899082  0.6417329331817782  1.0000
  H   H35       1.0  0.6490087593715401  0.6266798168971023  0.6438926757404317  1.0000
  H   H36       1.0  0.8673367433249697  0.6999640662101144  0.5945207232752094  1.0000
  H   H37       1.0  0.8722227648086687  0.37942197993583443  0.6508151989962412  1.0000
  H   H38       1.0  0.8719499915046499  0.25082559042306224  0.6959739070543023  1.0000
  H   H39       1.0  0.6352790288523381  0.1772283926796803  0.646456969071252  1.0000
  H   H40       1.0  0.6422568112492898  0.3026344364585328  0.5988639373751212  1.0000
  H   H41       1.0  0.873938582361568  0.1676206806887777  0.864915603573486  1.0000
  H   H42       1.0  0.8743269866839257  0.2935682420889521  0.9117211048849609  1.0000
  H   H43       1.0  0.621824091590952  0.25794499049028735  0.8046753261852472  1.0000
  H   H44       1.0  0.6243978423975778  0.3865641503670076  0.8497368540960223  1.0000
  H   H45       1.0  0.6237665692246922  0.8349768629411257  0.8660822152781547  1.0000
  H   H46       1.0  0.8814340289292275  0.7502905672834147  0.8046482078120218  1.0000
  H   H47       1.0  0.8804582704803681  0.6216736373290745  0.8497916700463788  1.0000
  H   H48       1.0  0.6246636564402125  0.7088736032022638  0.9128769205278856  1.0000
  H   H49       1.0  0.240034858301982  0.9478688808859914  0.3053170579805239  1.0000
  H   H50       1.0  0.2726842900596083  0.7109810616478214  0.03649689275015789  1.0000
  H   H51       1.0  0.2558254035576013  0.501847819356307  0.14658828803755594  1.0000
  H   H52       1.0  0.24813517176394845  0.043753049516809  0.6917817849525816  1.0000
  H   H53       1.0  0.2715017345291529  0.7089962540379419  0.9580928380214214  1.0000
  H   H54       1.0  0.24869786978620576  0.49475084019182  0.8512935426518027  1.0000
  H   H55       1.0  0.23912716277819618  0.2857551416345886  0.9613338973024239  1.0000
  H   H56       1.0  0.24194924165655612  0.28765904472559367  0.039763862361255085  1.0000
  H   H57       1.0  0.5010315213291108  0.9503890368025271  0.805753712853459  1.0000
  H   H58       1.0  0.5235676798215821  0.7124580772076216  0.5369788462099548  1.0000
  H   H59       1.0  0.5121581592238655  0.5045263370154132  0.6477863341645715  1.0000
  H   H60       1.0  0.4927473254825544  0.0515691805589711  0.19510712170229275  1.0000
  H   H61       1.0  0.5181246205972911  0.709796114647368  0.4586150953274809  1.0000
  H   H62       1.0  0.49306501006573455  0.4942628381812498  0.35267771661951736  1.0000
  H   H63       1.0  0.48999306150437155  0.286251618561316  0.4632940376687741  1.0000
  H   H64       1.0  0.4946980716255496  0.28900223935380615  0.5417812163009259  1.0000
  H   H65       1.0  0.37171043462144143  0.7024832336462197  0.41057214888532195  1.0000
  H   H66       1.0  0.3700870746879162  0.8275084718814795  0.3628801478354048  1.0000
  H   H67       1.0  0.12249368070177981  0.6158860793134266  0.34756900945002656  1.0000
  H   H68       1.0  0.12823329619102714  0.7439811676779514  0.30206866950246786  1.0000
  H   H69       1.0  0.3844252966743014  0.7479643713024728  0.19388718147610717  1.0000
  H   H70       1.0  0.12707675485305714  0.8327254533988153  0.1361706033467343  1.0000
  H   H71       1.0  0.1292375442031357  0.7072698542024867  0.08868977076325989  1.0000
  H   H72       1.0  0.3843669498948543  0.6199027707105815  0.14840438424820224  1.0000
  H   H73       1.0  0.3823674332103764  0.17173763023917843  0.1407365885781076  1.0000
  H   H74       1.0  0.38736754935158774  0.2973219616397387  0.09356595138758905  1.0000
  H   H75       1.0  0.11879982952731893  0.38001991551124803  0.14613040937420146  1.0000
  H   H76       1.0  0.11215476731065623  0.2518067644784452  0.19154686817262953  1.0000
  H   H77       1.0  0.11561905885540111  0.16800127894682507  0.3602748970812541  1.0000
  H   H78       1.0  0.35822772465301966  0.3711462188896277  0.35822619684759616  1.0000
  H   H79       1.0  0.3536345199439737  0.241724268312808  0.3136980299577203  1.0000
  H   H80       1.0  0.11734271986689752  0.2939321691796408  0.40740085420597427  1.0000
  H   H81       1.0  0.1382137260219594  0.7505769181568525  0.6900509654356097  1.0000
  H   H82       1.0  0.38238365796801344  0.8319631512084201  0.6399475017795807  1.0000
  H   H83       1.0  0.1366053713215933  0.6226165827609619  0.644394149968633  1.0000
  H   H84       1.0  0.38115223791928804  0.7055171798412803  0.5931347282389863  1.0000
  H   H85       1.0  0.3651854876322674  0.3790569285787199  0.6439740307663866  1.0000
  H   H86       1.0  0.3566038167706367  0.25094832749410767  0.6894853765604549  1.0000
  H   H87       1.0  0.1288362441468465  0.16627802480452664  0.6338534191410402  1.0000
  H   H88       1.0  0.12724634494070844  0.2923856679366779  0.5870667782797199  1.0000
  H   H89       1.0  0.3728912664766852  0.16252380515673787  0.8597491339730466  1.0000
  H   H90       1.0  0.3775820971089702  0.28870227773917634  0.9065806929808102  1.0000
  H   H91       1.0  0.11032845742913373  0.2489699311907074  0.8075796204539569  1.0000
  H   H92       1.0  0.11681562509259183  0.3774272967860172  0.8524593873359904  1.0000
  H   H93       1.0  0.13112979318841414  0.8305275218047969  0.8616422885818549  1.0000
  H   H94       1.0  0.38332474643129194  0.7367277176889361  0.798894665164944  1.0000
  H   H95       1.0  0.3785617950218241  0.6090991001147898  0.844704804473501  1.0000
  H   H96       1.0  0.1293881361766935  0.7058519987949624  0.9096387901319286  1.0000
  C   C1        1.0  0.7559471218896905  0.8720350493404183  0.19840320675886858  1.0000
  C   C2        1.0  0.7552032537761522  0.654761611329036  0.02350631048027909  1.0000
  C   C3        1.0  0.7443058210240496  0.5018239112279873  0.024193397576830495  1.0000
  C   C4        1.0  0.7433473650531113  0.5774864438822574  0.09264346146154877  1.0000
  C   C5        1.0  0.7461295026787624  0.578916827041951  0.047254952285513185  1.0000
  C   C6        1.0  0.7402692331599782  0.5010571017544692  0.11407932080879848  1.0000
  C   C7        1.0  0.8266892687646745  0.7373914845761506  0.17161653188769319  1.0000
  C   C8        1.0  0.8224653514771846  0.6662492194547057  0.14632666969846744  1.0000
  C   C9        1.0  0.6745183666880408  0.7155885510447747  0.11690361252318127  1.0000
  C   C10       1.0  0.6771604958665236  0.7857396835494941  0.14301465362631657  1.0000
  C   C11       1.0  0.753112508883561  0.8750988740336112  0.8041661690406199  1.0000
  C   C12       1.0  0.7574399271339658  0.6550114479354505  0.9797497155466315  1.0000
  C   C13       1.0  0.7469598985938505  0.5019869110181218  0.9783309149632087  1.0000
  C   C14       1.0  0.7516625758253357  0.5789207519670183  0.9102040970640102  1.0000
  C   C15       1.0  0.7507939155490606  0.5795521274868636  0.9556328968101863  1.0000
  C   C16       1.0  0.7521702202445653  0.5026020214219501  0.8886074223573528  1.0000
  C   C17       1.0  0.7467074669606932  0.13018400481493592  0.8038423551266972  1.0000
  C   C18       1.0  0.7368531495823021  0.34891319222303  0.9792448271982152  1.0000
  C   C19       1.0  0.7499213124365198  0.4259891044998199  0.9099278644278141  1.0000
  C   C20       1.0  0.7458317109880569  0.4246683437383538  0.9553690545021352  1.0000
  C   C21       1.0  0.7477945195051774  0.20533870320145547  0.8319846919679604  1.0000
  C   C22       1.0  0.7492574355611055  0.34880585909712636  0.8839212500457234  1.0000
  C   C23       1.0  0.7524384420486427  0.7999770391982182  0.8324386896769055  1.0000
  C   C24       1.0  0.8250528444039987  0.7399295146193197  0.8281636099076406  1.0000
  C   C25       1.0  0.8242578301029158  0.6685434502127665  0.8534593403802048  1.0000
  C   C26       1.0  0.752591873110454  0.6564859333145067  0.8844689506049617  1.0000
  C   C27       1.0  0.6810115539495527  0.7178283131016415  0.8891341474470592  1.0000
  C   C28       1.0  0.6801945030385284  0.7882377380763687  0.8630233426962021  1.0000
  C   C29       1.0  0.7366616569030741  0.1268627537811327  0.19680633654493818  1.0000
  C   C30       1.0  0.7345174734113088  0.3487607861190866  0.0230126991832904  1.0000
  C   C31       1.0  0.7396245534910975  0.42505335963741697  0.09233441095808807  1.0000
  C   C32       1.0  0.7405259380856465  0.42440261953132113  0.0469672309199112  1.0000
  C   C33       1.0  0.7374148326323751  0.2024146431250884  0.16875611614754854  1.0000
  C   C34       1.0  0.6588221415977387  0.25667312325506236  0.16887043411934138  1.0000
  C   C35       1.0  0.6597160984430135  0.32865196328144464  0.14397466645836934  1.0000
  C   C36       1.0  0.738169347497113  0.3469647706256467  0.11772564207701917  1.0000
  C   C37       1.0  0.8161185455684149  0.29158836467808413  0.11716020271833827  1.0000
  C   C38       1.0  0.8162350828341831  0.220542353790691  0.14279319334411864  1.0000
  C   C39       1.0  0.7535206938196097  0.797131541223749  0.17032558999743225  1.0000
  C   C40       1.0  0.7467190388986611  0.6546061176001744  0.11854203268114817  1.0000
  C   C41       1.0  0.6772814379809874  0.2670241941029161  0.82793922591469  1.0000
  C   C42       1.0  0.6789695239101192  0.3383954846400315  0.85318097575049  1.0000
  C   C43       1.0  0.8189302382328308  0.28598495125253004  0.8882279429854165  1.0000
  C   C44       1.0  0.8190173291411115  0.2156131569387014  0.8621311939014189  1.0000
  C   C45       1.0  0.0036858394658452003  0.8701470631128104  0.6971960375865223  1.0000
  C   C46       1.0  0.005824657689664998  0.6528430961430942  0.521251352171717  1.0000
  C   C47       1.0  0.9967539757803011  0.4996897614910765  0.5220235651302829  1.0000
  C   C48       1.0  0.00045986525229579824  0.5752855652106206  0.5904599376431675  1.0000
  C   C49       1.0  0.9997210527340601  0.5768204784522125  0.5450576431564754  1.0000
  C   C50       1.0  0.0010730235811707007  0.4986699223769904  0.611786858362741  1.0000
  C   C51       1.0  0.0030101282594116995  0.7953917212583476  0.6687443829985538  1.0000
  C   C52       1.0  0.5927553330712458  0.7435810186803308  0.6678652215487944  1.0000
  C   C53       1.0  0.5907115453469771  0.6718694655596594  0.6428544675769885  1.0000
  C   C54       1.0  0.5147370855805846  0.6572952211443236  0.615592909477371  1.0000
  C   C55       1.0  0.9267752777583952  0.710987675385546  0.6154778583177956  1.0000
  C   C56       1.0  0.9267559948110885  0.7810782638998148  0.6417604260369527  1.0000
  C   C57       1.0  0.004026280092048798  0.8727947443894806  0.3019638158036883  1.0000
  C   C58       1.0  0.004511847669320398  0.6533595047684742  0.4775030755788946  1.0000
  C   C59       1.0  0.9948056890181081  0.5002534112335227  0.4761752976400188  1.0000
  C   C60       1.0  0.993901237571052  0.5774250304064169  0.4081028186982464  1.0000
  C   C61       1.0  0.9963814871009337  0.5779480511116192  0.4534944366468636  1.0000
  C   C62       1.0  0.9918605266931807  0.5012792429005728  0.3864530202809746  1.0000
  C   C63       1.0  0.9962860576019426  0.6548086190500585  0.3822767354467871  1.0000
  C   C64       1.0  0.9831667616859081  0.1280320374656583  0.30243005796126704  1.0000
  C   C65       1.0  0.9848463258596141  0.34719747664889405  0.4770118212273644  1.0000
  C   C66       1.0  0.9912933196304508  0.4246033942754082  0.40771155332738823  1.0000
  C   C67       1.0  0.9915675768812451  0.4231144625702966  0.4531445321144787  1.0000
  C   C68       1.0  0.00152596389389  0.7977759581904564  0.3301647000797629  1.0000
  C   C69       1.0  0.5700139450660517  0.731026566102969  0.3244566127220736  1.0000
  C   C70       1.0  0.5694737812154642  0.6602386234625115  0.35021555827648837  1.0000
  C   C71       1.0  0.9268419544324544  0.7179785482706437  0.3868639908520705  1.0000
  C   C72       1.0  0.9285115686035187  0.7881552351167685  0.3606068036165907  1.0000
  C   C73       1.0  0.9994431127374104  0.1257805434007224  0.6960715489105025  1.0000
  C   C74       1.0  0.9869722657082038  0.3466596333435206  0.5207498585350405  1.0000
  C   C75       1.0  0.9994721221417108  0.4224537470256493  0.5901091069688106  1.0000
  C   C76       1.0  0.9958123911554468  0.4220320002102866  0.5447352431177277  1.0000
  C   C77       1.0  0.4952285942610005  0.20647095318394554  0.6704364187224101  1.0000
  C   C78       1.0  0.9280660765180855  0.261257530765036  0.6723421941001104  1.0000
  C   C79       1.0  0.9284890696113095  0.3326361691692413  0.647043800590417  1.0000
  C   C80       1.0  0.9997130549028984  0.3447910525150917  0.6158377844876239  1.0000
  C   C81       1.0  0.5797391685488195  0.2914836606120232  0.6188439697956553  1.0000
  C   C82       1.0  0.5759982373431074  0.22131885292510134  0.6450900424579514  1.0000
  C   C83       1.0  0.4899234486971055  0.1972574437319992  0.3338239629175489  1.0000
  C   C84       1.0  0.9143762964580732  0.26516228083624344  0.3268339030418729  1.0000
  C   C85       1.0  0.9170675533144748  0.33669377372122267  0.3519360382678939  1.0000
  C   C86       1.0  0.9893621785347693  0.3475851421193639  0.3816448009497576  1.0000
  C   C87       1.0  0.5692924576328123  0.2830082323644377  0.3855219908077315  1.0000
  C   C88       1.0  0.5676271512942679  0.21209869018389335  0.3598738077544822  1.0000
  C   C89       1.0  0.2553960811110514  0.8728222163819552  0.19612953857824775  1.0000
  C   C90       1.0  0.265272048521048  0.6520386289900698  0.019649263267652393  1.0000
  C   C91       1.0  0.2558734920673089  0.49906438275343856  0.021819006075219194  1.0000
  C   C92       1.0  0.25678130392226706  0.5771819041188807  0.08966855224529267  1.0000
  C   C93       1.0  0.2579887071109752  0.5770118213684937  0.04421138997732039  1.0000
  C   C94       1.0  0.25631129546539466  0.5011450565498096  0.11161677433339177  1.0000
  C   C95       1.0  0.3284257438251004  0.7378253008339474  0.17101685839490696  1.0000
  C   C96       1.0  0.3281623188310476  0.6667617658276656  0.14550792703588655  1.0000
  C   C97       1.0  0.18529358180044408  0.716104155136236  0.11173039149637277  1.0000
  C   C98       1.0  0.18383912169181124  0.7862079801453419  0.1380781728005331  1.0000
  C   C99       1.0  0.2606338962460484  0.8669795035555977  0.7999124530304086  1.0000
  C   C100      1.0  0.2645641464063075  0.6509012184938356  0.9758848122340991  1.0000
  C   C101      1.0  0.25467016784972435  0.4978710960840189  0.9759384953856125  1.0000
  C   C102      1.0  0.25294020175829257  0.5725511110570521  0.9071174720762442  1.0000
  C   C103      1.0  0.2560580887992927  0.5747255340080815  0.9525158234596203  1.0000
  C   C104      1.0  0.25061555223628323  0.4955551818392721  0.8862348589101996  1.0000
  C   C105      1.0  0.23789294468922867  0.12247401252349731  0.8033040985646875  1.0000
  C   C106      1.0  0.2459405389147307  0.3447447989418252  0.9781891914764173  1.0000
  C   C107      1.0  0.25064847408143015  0.4196408533245234  0.9082100372988647  1.0000
  C   C108      1.0  0.25173020660095363  0.419870335389355  0.9536404393124723  1.0000
  C   C109      1.0  0.24086970476697195  0.19785960007197193  0.831284456741258  1.0000
  C   C110      1.0  0.24724893989562702  0.3417053921424583  0.882804937877239  1.0000
  C   C111      1.0  0.2580496120839015  0.7914832831468317  0.8278529533037611  1.0000
  C   C112      1.0  0.32769217891407015  0.7289493909844824  0.8230613968884553  1.0000
  C   C113      1.0  0.3247954638395569  0.6580435280495394  0.8487005213234438  1.0000
  C   C114      1.0  0.2542821065682688  0.6490860904355387  0.8805707193478224  1.0000
  C   C115      1.0  0.1851178966956439  0.7124937035240749  0.8853637885884706  1.0000
  C   C116      1.0  0.18595605272201252  0.7822647466681191  0.8588011395496336  1.0000
  C   C117      1.0  0.2426898372812332  0.12891411921233953  0.19696970367009914  1.0000
  C   C118      1.0  0.24743787759322802  0.3458421105856573  0.02192403756956199  1.0000
  C   C119      1.0  0.2558925051692357  0.4243407161993319  0.09057752630376828  1.0000
  C   C120      1.0  0.25450459163727857  0.4222155076392157  0.04520147094664399  1.0000
  C   C121      1.0  0.24672779640697237  0.20412835867822574  0.16884922251318094  1.0000
  C   C122      1.0  0.17236332874078644  0.2628241714794158  0.17019254888517568  1.0000
  C   C123      1.0  0.17639187361213976  0.3340752839126607  0.1448515364525278  1.0000
  C   C124      1.0  0.25332450501451126  0.3472630322962686  0.11677118593090087  1.0000
  C   C125      1.0  0.3270924724525913  0.2875483738041923  0.11513146817909359  1.0000
  C   C126      1.0  0.32447728848886476  0.21733101393042628  0.14136145067323008  1.0000
  C   C127      1.0  0.25573628414257144  0.7977639583832641  0.16776143189755993  1.0000
  C   C128      1.0  0.2570160946572315  0.6549093949917477  0.11530252672196888  1.0000
  C   C129      1.0  0.16867554369681412  0.2584984318713167  0.8292990270031593  1.0000
  C   C130      1.0  0.17266206621388855  0.33002131330066214  0.8543552616840484  1.0000
  C   C131      1.0  0.3187301080472551  0.2799670544534294  0.885012808775812  1.0000
  C   C132      1.0  0.3163630327239062  0.2094239998345628  0.8590841586308711  1.0000
  C   C133      1.0  0.5182857275803769  0.8767559598440756  0.6949691471392752  1.0000
  C   C134      1.0  0.5159481680099277  0.6533010296017352  0.5203527179625667  1.0000
  C   C135      1.0  0.506861696701776  0.500292725042968  0.5230643498082583  1.0000
  C   C136      1.0  0.5120506717086712  0.5789409093936797  0.5905342367290415  1.0000
  C   C137      1.0  0.5105040306401208  0.5784124479853006  0.5451513428669654  1.0000
  C   C138      1.0  0.5111876860688866  0.5033044747067024  0.6128374635837515  1.0000
  C   C139      1.0  0.5175235238334963  0.8013719148530144  0.6669023561797401  1.0000
  C   C140      1.0  0.07897857225233199  0.7382931493849368  0.6692485885981936  1.0000
  C   C141      1.0  0.07773031335187139  0.667260079398588  0.6437181655205961  1.0000
  C   C142      1.0  0.0018852862028850956  0.652632590791008  0.616389958652803  1.0000
  C   C143      1.0  0.4404903532411737  0.7164568355780007  0.6141506592557915  1.0000
  C   C144      1.0  0.44106911633019064  0.7871608387595687  0.6399932635743752  1.0000
  C   C145      1.0  0.49804938957671413  0.8667584003912127  0.30092128376429617  1.0000
  C   C146      1.0  0.512824396126426  0.651831570582175  0.47664700351005945  1.0000
  C   C147      1.0  0.5037193505575248  0.49870979576821367  0.47725153235749207  1.0000
  C   C148      1.0  0.4990804365238546  0.5726607373365341  0.4082855837824225  1.0000
  C   C149      1.0  0.5039725752289357  0.5753062836446791  0.45359932113267104  1.0000
  C   C150      1.0  0.49624942918067927  0.49552179089711507  0.38758533493858477  1.0000
  C   C151      1.0  0.4986354276398047  0.6491752791654195  0.3817095776025638  1.0000
  C   C152      1.0  0.4878172917489395  0.12220680573916812  0.3055811969891095  1.0000
  C   C153      1.0  0.4962061679460917  0.3454773332133527  0.47999411560603267  1.0000
  C   C154      1.0  0.4974742031388147  0.41995198265107797  0.4098700352142259  1.0000
  C   C155      1.0  0.5002583148180976  0.42050748020393763  0.4552378937011311  1.0000
  C   C156      1.0  0.49779938459258954  0.7913651532601734  0.3288981273218354  1.0000
  C   C157      1.0  0.07180200739753673  0.7357004736995024  0.3258018546477643  1.0000
  C   C158      1.0  0.06826522612312401  0.6645182936713141  0.35117954385664507  1.0000
  C   C159      1.0  0.42728010786962056  0.7106244640771493  0.3863602278664898  1.0000
  C   C160      1.0  0.4261036410525776  0.7803910921083387  0.35983924992530086  1.0000
  C   C161      1.0  0.49098538240046724  0.13120096609821993  0.6984991653199086  1.0000
  C   C162      1.0  0.4987222811752546  0.34701398192224525  0.5237107573386267  1.0000
  C   C163      1.0  0.5081231772872741  0.4263354816792528  0.5920427414769945  1.0000
  C   C164      1.0  0.5057619913052351  0.42372894837153313  0.5467110201297627  1.0000
  C   C165      1.0  0.0005347899136225007  0.20113890220870448  0.6678672933897329  1.0000
  C   C166      1.0  0.41902968552938813  0.26324447040852317  0.6697004253842349  1.0000
  C   C167      1.0  0.42415137464326597  0.3344954524605441  0.6443400196502009  1.0000
  C   C168      1.0  0.5041869405508737  0.34936258046964513  0.6184029955658302  1.0000
  C   C169      1.0  0.07125947672413699  0.28349519360032366  0.6110077784186669  1.0000
  C   C170      1.0  0.07243367616440821  0.21300657349408433  0.6371233159303669  1.0000
  C   C171      1.0  0.9858696088006982  0.20411552032183525  0.3299115576592087  1.0000
  C   C172      1.0  0.41404453524983614  0.2544725515719435  0.3337215881309702  1.0000
  C   C173      1.0  0.41690064910859104  0.3262654925606654  0.3586108531563354  1.0000
  C   C174      1.0  0.4943732213099353  0.3415523184530969  0.3848766587114482  1.0000
  C   C175      1.0  0.0603158629028542  0.2855953610209668  0.3847970813011868  1.0000
  C   C176      1.0  0.059555377813524005  0.21523509074582853  0.3587121151930645  1.0000
  O   O1        1.0  0.7415168265443413  0.9982539833837981  0.2880363283458748  1.0000
  O   O2        1.0  0.8310455214370692  0.8832452485807636  0.21965947169500305  1.0000
  O   O3        1.0  0.7523631712249641  0.0046875039595164  0.7127057163643327  1.0000
  O   O4        1.0  0.6782786958433109  0.9206484286366959  0.8030415664557535  1.0000
  O   O5        1.0  0.8218248513575049  0.08520690565357822  0.8013557707479817  1.0000
  O   O6        1.0  0.8293364868083588  0.8877633586871883  0.7829500360026669  1.0000
  O   O7        1.0  0.6581957656116303  0.11073440200630813  0.21566575037400773  1.0000
  O   O8        1.0  0.6829944992674515  0.9195977755315923  0.19919760743722745  1.0000
  O   O9        1.0  0.8133386537816636  0.08473035303939719  0.20008650106842643  1.0000
  O   O10       1.0  0.670226600873349  0.1168542226463458  0.7840940339382526  1.0000
  O   O11       1.0  0.9999770454988165  0.9985331948596256  0.787909241126634  1.0000
  O   O12       1.0  0.5953504679394828  0.8912789358086287  0.714327050917319  1.0000
  O   O13       1.0  0.9939182734206042  0.0029771074317324  0.21182016744921126  1.0000
  O   O14       1.0  0.9301748768514102  0.9188027366119159  0.3006480173045034  1.0000
  O   O15       1.0  0.5628544286869968  0.07711560432494483  0.3025587423125841  1.0000
  O   O16       1.0  0.5732517877128558  0.8797711058442206  0.2789585118474278  1.0000
  O   O17       1.0  0.9231680542036714  0.11387983111528399  0.7174332581500165  1.0000
  O   O18       1.0  0.928764713833225  0.9154169705740787  0.6994932071892135  1.0000
  O   O19       1.0  0.5672093609181488  0.0895729300676891  0.7032677090700685  1.0000
  O   O20       1.0  0.9038422405335853  0.1127533256687911  0.285128387034426  1.0000
  O   O21       1.0  0.2410839198528691  0.9977105726899399  0.2874532804558213  1.0000
  O   O22       1.0  0.3302757545014715  0.884414358493821  0.21750843198935135  1.0000
  O   O23       1.0  0.25136238808697453  0.9965494126010057  0.7113863846101438  1.0000
  O   O24       1.0  0.1854034305507852  0.9109921491632844  0.7975572007046805  1.0000
  O   O25       1.0  0.31219462702992473  0.07709365620527818  0.8002673919567795  1.0000
  O   O26       1.0  0.3390065367028542  0.881766338210795  0.780467129985716  1.0000
  O   O27       1.0  0.1627921513564203  0.11351051923898578  0.21473316279209334  1.0000
  O   O28       1.0  0.181563071840138  0.9193891635679705  0.19696330231494835  1.0000
  O   O29       1.0  0.3183137060716774  0.0859181411932113  0.2013990790364275  1.0000
  O   O30       1.0  0.15992744632759331  0.10937846232675241  0.7843436776188992  1.0000
  O   O31       1.0  0.4985625890751209  0.9990755497871361  0.7871016885309244  1.0000
  O   O32       1.0  0.07970023725591353  0.8830289989999758  0.717356348236798  1.0000
  O   O33       1.0  0.4946851352794825  0.0011864197862507992  0.21252700328822263  1.0000
  O   O34       1.0  0.42361470850739386  0.9128050286048222  0.300890564319225  1.0000
  O   O35       1.0  0.05860247785059161  0.0844979711434704  0.29837391073467495  1.0000
  O   O36       1.0  0.0811084523487509  0.885338061715018  0.2810169439127677  1.0000
  O   O37       1.0  0.4106882747409771  0.1142188784140998  0.7156021821906078  1.0000
  O   O38       1.0  0.4427903551992003  0.9207095925196996  0.6976019209242564  1.0000
  O   O39       1.0  0.07352506647338689  0.0793312776077357  0.6969874221856073  1.0000
  O   O40       1.0  0.4106824495572994  0.10920688840523242  0.2863142155874029  1.0000
