data_image0
_chemical_formula_structural       Zn4H20C64Cl8O16F8
_chemical_formula_sum              "Zn4 H20 C64 Cl8 O16 F8"
_cell_length_a       8.830377568773388
_cell_length_b       17.74509243253959
_cell_length_c       34.870304980871914
_cell_angle_alpha    89.16362550992748
_cell_angle_beta     90.1900721703503
_cell_angle_gamma    90.03416584835794

_space_group_name_H-M_alt    "P 1"
_space_group_IT_number       1

loop_
  _space_group_symop_operation_xyz
  'x, y, z'

loop_
  _atom_site_type_symbol
  _atom_site_label
  _atom_site_symmetry_multiplicity
  _atom_site_fract_x
  _atom_site_fract_y
  _atom_site_fract_z
  _atom_site_occupancy
  Zn  Zn1       1.0  0.6577036394043461  0.9996958072404496  0.5002387997385753  1.0000
  Zn  Zn2       1.0  0.3556673255236333  0.9996437327096285  0.4998895897606559  1.0000
  Zn  Zn3       1.0  0.24749384607856229  0.9973739641244419  0.9998894400235657  1.0000
  Zn  Zn4       1.0  0.5511039024740967  0.9975890367251593  0.00013398308227860128  1.0000
  H   H1        1.0  0.5947434004172366  0.9995635218391637  0.8852136743316878  1.0000
  H   H2        1.0  0.6235191745836133  0.9999958955802978  0.8149303588638547  1.0000
  H   H3        1.0  0.7682877265512218  0.00014229132118259542  0.6963888007189142  1.0000
  H   H4        1.0  0.2776029105421429  0.9997169489588771  0.6871958450132709  1.0000
  H   H5        1.0  0.2790756219625549  6.852421461899732e-05  0.7468904664233733  1.0000
  H   H6        1.0  0.6270882208195159  0.9999167712316819  0.7540785132986657  1.0000
  H   H7        1.0  0.5951873705057693  0.997583837033211  0.1150442802234082  1.0000
  H   H8        1.0  0.6241156893069544  0.9988932512297239  0.1853678437876241  1.0000
  H   H9        1.0  0.7692649440670536  0.9992636205762583  0.304226851495784  1.0000
  H   H10       1.0  0.2785762815228097  4.9853343703899385e-05  0.312572188514288  1.0000
  H   H11       1.0  0.279958683476444  0.9985488778655096  0.2529141275725095  1.0000
  H   H12       1.0  0.6279567771244389  0.9991570112383528  0.2462620195261636  1.0000
  H   H13       1.0  0.7133257451006684  0.7703084230791646  0.5018219848657567  1.0000
  H   H14       1.0  0.2261926012873303  0.7574251887072163  0.5000273214780008  1.0000
  H   H15       1.0  0.7134623480216716  0.22908349652227858  0.5004502170604468  1.0000
  H   H16       1.0  0.22639630316957948  0.24172365886388283  0.4976435466665166  1.0000
  H   H17       1.0  0.20383068598992787  0.7680393669291233  0.999018528170879  1.0000
  H   H18       1.0  0.6911264861629577  0.7560030417929013  4.1485339962994366e-06  1.0000
  H   H19       1.0  0.20306192004711926  0.22712932199679867  0.9992027422917077  1.0000
  H   H20       1.0  0.6903735173286591  0.23910810701642765  0.9995499448325162  1.0000
  C   C1        1.0  0.46182695531254575  0.8562169495009399  0.5008237237964721  1.0000
  C   C2        1.0  0.5537161496465969  0.9997339170770869  0.5730269409998954  1.0000
  C   C3        1.0  0.4620006208530467  0.14310272140139796  0.4991780960641705  1.0000
  C   C4        1.0  0.5545476393696518  0.9997546388395405  0.4272195658298231  1.0000
  C   C5        1.0  0.4533549850882039  0.8545422171528966  0.9999040310653484  1.0000
  C   C6        1.0  0.34563008272357365  0.9989963045130285  0.9273734707672149  1.0000
  C   C7        1.0  0.4525074032727616  0.1405796051262342  0.9997697828385982  1.0000
  C   C8        1.0  0.34583235856779027  0.9962133021060349  0.0725450874962092  1.0000
  C   C9        1.0  0.3520214525068965  0.9993960829520245  0.8846727204433122  1.0000
  C   C10       1.0  0.49514317932163004  0.9995999216661742  0.8667433328781372  1.0000
  C   C11       1.0  0.5104269362413235  0.999822683177811  0.8273206453702997  1.0000
  C   C12       1.0  0.3824401668731098  0.999856772068021  0.8028954443818039  1.0000
  C   C13       1.0  0.24058109809141107  0.9996794052822792  0.8209846771490349  1.0000
  C   C14       1.0  0.2242637100853884  0.9994761357789411  0.8607859781359011  1.0000
  C   C15       1.0  0.38888928400423584  1.2705289705698177e-05  0.761295351320513  1.0000
  C   C16       1.0  0.5165060033966213  0.9999774340920737  0.7398981289236488  1.0000
  C   C17       1.0  0.663353114459106  5.334602565909714e-05  0.6798807365277143  1.0000
  C   C18       1.0  0.5217925822548396  0.9999646609297841  0.6981750278956582  1.0000
  C   C19       1.0  0.3910490741894251  0.9998100138749703  0.6750753595734267  1.0000
  C   C20       1.0  0.40364464877904277  0.9997699037238804  0.6355644522464631  1.0000
  C   C21       1.0  0.5440803055188965  0.9998368328170457  0.6158207007494809  1.0000
  C   C22       1.0  0.6719489213671322  0.9999839984089364  0.6401618538822618  1.0000
  C   C23       1.0  0.35247869906230994  0.9966028454302888  0.11525528364789751  1.0000
  C   C24       1.0  0.49567137164870445  0.9974588044955368  0.1333748447351866  1.0000
  C   C25       1.0  0.5110012373775277  0.9981662031786199  0.172814662682292  1.0000
  C   C26       1.0  0.3831139720910598  0.9980165707005922  0.19706582465956762  1.0000
  C   C27       1.0  0.2411851061582198  0.9971021210172992  0.17878473042978982  1.0000
  C   C28       1.0  0.2248380126685632  0.9964073069543531  0.13896416614862522  1.0000
  C   C29       1.0  0.3897429407609109  0.9986255535790529  0.2386746235877908  1.0000
  C   C30       1.0  0.5174055286099701  0.9991701729837599  0.26027194530576747  1.0000
  C   C31       1.0  0.6643057349793793  0.9995311734961446  0.3205513632206874  1.0000
  C   C32       1.0  0.5227554856126561  0.999594001750331  0.3020078297167359  1.0000
  C   C33       1.0  0.39201135780230345  0.9999123737880705  0.3248880109910531  1.0000
  C   C34       1.0  0.4045734366899866  0.999959875052113  0.36441949234610865  1.0000
  C   C35       1.0  0.5450019703661156  0.9997983673942769  0.384406967191083  1.0000
  C   C36       1.0  0.672870510929755  0.9995999684501479  0.36028759564365503  1.0000
  C   C37       1.0  0.46867032861430147  0.7721110806997729  0.5009241824018318  1.0000
  C   C38       1.0  0.6104781728002848  0.7365589531363596  0.5014153670005969  1.0000
  C   C39       1.0  0.618716073407576  0.658453024786567  0.5013391269590387  1.0000
  C   C40       1.0  0.4863156228605447  0.6131166801701436  0.5006438689847457  1.0000
  C   C41       1.0  0.3448630722760555  0.6512633226527528  0.5002154715911686  1.0000
  C   C42       1.0  0.3356722640266199  0.7293749818764182  0.5003830659567896  1.0000
  C   C43       1.0  0.4931408209762722  0.5340431778437135  0.5003004884641484  1.0000
  C   C44       1.0  0.4931675992359104  0.4652634580798675  0.4998502481374488  1.0000
  C   C45       1.0  0.4863802901812804  0.3861889955667976  0.4994494000541253  1.0000
  C   C46       1.0  0.6188028175725576  0.34091335409840445  0.5001566495519327  1.0000
  C   C47       1.0  0.6106235243138939  0.2628075533620872  0.4999148208425268  1.0000
  C   C48       1.0  0.46885317800713017  0.22720113791151414  0.4990801156674679  1.0000
  C   C49       1.0  0.335829462108208  0.2698486333777338  0.4982926392860278  1.0000
  C   C50       1.0  0.3450020300103133  0.34796177798828853  0.49838141200537933  1.0000
  C   C51       1.0  0.4483421193956829  0.7704399822602497  0.999584079572763  1.0000
  C   C52       1.0  0.3068855347782886  0.7344927590163836  0.9991491217676653  1.0000
  C   C53       1.0  0.2990503487368201  0.6563770685926326  0.9988851101803675  1.0000
  C   C54       1.0  0.43164834845249805  0.6111934347941244  0.9990643301024634  1.0000
  C   C55       1.0  0.5728039538454368  0.6497327103147016  0.9994760703957154  1.0000
  C   C56       1.0  0.581624280813088  0.7279157665186771  0.9997155119155325  1.0000
  C   C57       1.0  0.4252462797377349  0.5320191453084108  0.9988777506371916  1.0000
  C   C58       1.0  0.42509914373856356  0.4631926014992302  0.9988434880035657  1.0000
  C   C59       1.0  0.43126468490326897  0.3840060794726056  0.9989382729726302  1.0000
  C   C60       1.0  0.29853939674624996  0.338830275335738  0.9989183760885539  1.0000
  C   C61       1.0  0.3061747708475123  0.2606862979614418  0.9991758786139259  1.0000
  C   C62       1.0  0.4475321341234419  0.22470617756946606  0.9994311034847955  1.0000
  C   C63       1.0  0.5809325779778546  0.26721651335883917  0.9993863793677136  1.0000
  C   C64       1.0  0.57231101996625  0.3454171706462503  0.9991477144443408  1.0000
  Cl  Cl1       1.0  0.18075130844950849  0.599149391561177  0.4993393659351498  1.0000
  Cl  Cl2       1.0  0.7935492564839209  0.6155559260603025  0.5020453276329917  1.0000
  Cl  Cl3       1.0  0.18082914974900183  0.3999834914272212  0.4971905502796687  1.0000
  Cl  Cl4       1.0  0.7935484972507894  0.3838945827600782  0.5014470062033923  1.0000
  Cl  Cl5       1.0  0.7372141289834957  0.5978830957769291  0.999721005484929  1.0000
  Cl  Cl6       1.0  0.12438051338447309  0.613323026208974  0.9982750787901367  1.0000
  Cl  Cl7       1.0  0.7368943333133232  0.3972134833222468  0.9991287055069621  1.0000
  Cl  Cl8       1.0  0.1239560737432583  0.3819014668217591  0.9986293187384021  1.0000
  O   O1        1.0  0.5886481735071385  0.8902740747295822  0.5009485046928432  1.0000
  O   O2        1.0  0.3311670587781776  0.8882200553141287  0.5005481281462778  1.0000
  O   O3        1.0  0.42823369153811797  0.999657704097551  0.5550853999828789  1.0000
  O   O4        1.0  0.6844829045204791  0.9997536924127175  0.5569964329061394  1.0000
  O   O5        1.0  0.33131010645067965  0.11105938801460977  0.49912650757458016  1.0000
  O   O6        1.0  0.5887951981055937  0.10909393363325388  0.49938791124679244  1.0000
  O   O7        1.0  0.6851943841168265  0.9997507908653275  0.4435320839799602  1.0000
  O   O8        1.0  0.4289491152120206  0.9996916650844052  0.44489650522835694  1.0000
  O   O9        1.0  0.32636616309019206  0.8882107011303119  0.9999948135485611  1.0000
  O   O10       1.0  0.5834855542290711  0.8874929861902741  5.256923223130006e-05  1.0000
  O   O11       1.0  0.4729976081443256  0.9990931522810625  0.9445680473395227  1.0000
  O   O12       1.0  0.21599690990870363  0.9985452504152762  0.9441428795970239  1.0000
  O   O13       1.0  0.5827152669560643  0.10775501203034567  0.999975838922829  1.0000
  O   O14       1.0  0.3255813634472915  0.10679021989496819  0.9998461968434003  1.0000
  O   O15       1.0  0.21614731896603698  0.9962563347841995  0.055590104365506904  1.0000
  O   O16       1.0  0.4731519371377928  0.9960452962746871  0.055535820314169405  1.0000
  F   F1        1.0  0.0818644594549767  0.9993844088431486  0.8746517343072784  1.0000
  F   F2        1.0  0.11184817664906889  0.9997191274375792  0.7994418761115725  1.0000
  F   F3        1.0  0.2712193643360976  0.999621730122179  0.6159886152648113  1.0000
  F   F4        1.0  0.8125403825126867  5.754984815099884e-05  0.6249475594347302  1.0000
  F   F5        1.0  0.08241873358765868  0.9955252623886252  0.12487948769253879  1.0000
  F   F6        1.0  0.11249105952198589  0.9968000144351661  0.2001260013053638  1.0000
  F   F7        1.0  0.2721097764438483  0.0002158845563470996  0.3837574935379067  1.0000
  F   F8        1.0  0.8134497823341889  0.9994056839662094  0.37575101273451145  1.0000
