data_image0
_chemical_formula_structural       Mn2H28C24O8
_chemical_formula_sum              "Mn2 H28 C24 O8"
_cell_length_a       7.011368520857127
_cell_length_b       7.753093452041895
_cell_length_c       10.795409192827556
_cell_angle_alpha    68.91854567493412
_cell_angle_beta     89.66295082076614
_cell_angle_gamma    88.9805889429649

_space_group_name_H-M_alt    "P 1"
_space_group_IT_number       1

loop_
  _space_group_symop_operation_xyz
  'x, y, z'

loop_
  _atom_site_type_symbol
  _atom_site_label
  _atom_site_symmetry_multiplicity
  _atom_site_fract_x
  _atom_site_fract_y
  _atom_site_fract_z
  _atom_site_occupancy
  Mn  Mn1       1.0  0.08447933012504191  0.042362382409514496  0.07104813875786682  1.0000
  Mn  Mn2       1.0  0.5844023921301583  0.11328967922396771  0.9289345819608743  1.0000
  H   H1        1.0  0.439671789714005  0.45968624341324477  0.11980350103910103  1.0000
  H   H2        1.0  0.9396687719001449  0.5798611716242802  0.8800665069490706  1.0000
  H   H3        1.0  0.6342157976704288  0.6083598831175365  0.0560239648675989  1.0000
  H   H4        1.0  0.13424744490968277  0.6646173363961413  0.943984452921214  1.0000
  H   H5        1.0  0.9589525828224199  0.5314227349361218  0.1717520796521939  1.0000
  H   H6        1.0  0.45865200355715535  0.7037690066453026  0.828590537206445  1.0000
  H   H7        1.0  0.9859566111689874  0.32963560818922116  0.31593828848954797  1.0000
  H   H8        1.0  0.48609115531046143  0.6462990397481863  0.6844709958147704  1.0000
  H   H9        1.0  0.9599540537638376  0.6148726005062457  0.3716533381663894  1.0000
  H   H10       1.0  0.459902441937274  0.9872994461249222  0.6286652767737524  1.0000
  H   H11       1.0  0.7594340232281028  0.8044855548886716  0.18075593354735278  1.0000
  H   H12       1.0  0.25935394803238415  0.9856243474167812  0.8194288715820692  1.0000
  H   H13       1.0  0.6529723284651396  0.7958081590204384  0.332269953825076  1.0000
  H   H14       1.0  0.15283192763678954  0.12878703871432862  0.6678683027619315  1.0000
  H   H15       1.0  0.3723405174731767  0.5835166672694286  0.42442657419622526  1.0000
  H   H16       1.0  0.8723058208617047  0.009062447936727778  0.5754377772159176  1.0000
  H   H17       1.0  0.2844477300633841  0.4449808062918309  0.33909213719739034  1.0000
  H   H18       1.0  0.7843781991371656  0.7850739449078006  0.6605965289062041  1.0000
  H   H19       1.0  0.4857818862612646  0.2568810581239306  0.5317225640561817  1.0000
  H   H20       1.0  0.9857531058312718  0.7899541288343954  0.4680692235917406  1.0000
  H   H21       1.0  0.4801466367649851  0.17394168446914898  0.32782300980634466  1.0000
  H   H22       1.0  0.9803296294538343  0.5026295462628028  0.6718150804839385  1.0000
  H   H23       1.0  0.7061037934248449  0.11835682417611075  0.40668672499528935  1.0000
  H   H24       1.0  0.2063405476398188  0.5263323313334568  0.5931868814719082  1.0000
  H   H25       1.0  0.6945707858649187  0.5076029935184039  0.5399700277723839  1.0000
  H   H26       1.0  0.19452022464673044  0.04892481842112769  0.4601681724084373  1.0000
  H   H27       1.0  0.8330350684583723  0.31759835476363935  0.5343278433513562  1.0000
  H   H28       1.0  0.3329046685567577  0.8532588130845721  0.4657268978217601  1.0000
  C   C1        1.0  0.509924279141984  0.6301262004542921  0.23533821562177346  1.0000
  C   C2        1.0  0.009827876904566301  0.8660219350734691  0.764619567489227  1.0000
  C   C3        1.0  0.5674157116410968  0.5172907666791247  0.148100272592373  1.0000
  C   C4        1.0  0.06742410367284893  0.6657511348928652  0.8518578699186748  1.0000
  C   C5        1.0  0.7067005051982207  0.36017407309255844  0.22462573460666144  1.0000
  C   C6        1.0  0.20673690076545628  0.5854184756409068  0.7753409290746874  1.0000
  C   C7        1.0  0.8862117760027532  0.4426029306347772  0.26233125945674374  1.0000
  C   C8        1.0  0.3861936749098618  0.7056605669669126  0.737870145423834  1.0000
  C   C9        1.0  0.830208377569612  0.5549266272158633  0.34866285498355154  1.0000
  C   C10       1.0  0.3301307515188939  0.9044250958640988  0.6515072440104747  1.0000
  C   C11       1.0  0.6919781523097157  0.712134412084481  0.27199862041216966  1.0000
  C   C12       1.0  0.19185332854802797  0.984710288527907  0.7281323201895875  1.0000
  C   C13       1.0  0.4152460974401961  0.5025505422635207  0.36346138040967463  1.0000
  C   C14       1.0  0.915188062616721  0.8669765004018543  0.636387664014322  1.0000
  C   C15       1.0  0.5548019576022798  0.34661779116140684  0.44015705766075547  1.0000
  C   C16       1.0  0.0547520857899073  0.787983826250681  0.5596956612632911  1.0000
  C   C17       1.0  0.6086264373841886  0.23354374784703685  0.3536488717388553  1.0000
  C   C18       1.0  0.10871019978917935  0.5882302334228839  0.6461928460689634  1.0000
  C   C19       1.0  0.7342204519556077  0.42894423817347166  0.4762965251187482  1.0000
  C   C20       1.0  0.23415130405693677  0.9064371853291319  0.5237621203071471  1.0000
  C   C21       1.0  0.37956627800655  0.7901556377139799  0.158163696410206  1.0000
  C   C22       1.0  0.879337552934061  0.9485811023856314  0.8417770550694502  1.0000
  C   C23       1.0  0.7622862695042443  0.24037795086697866  0.14479235895591103  1.0000
  C   C24       1.0  0.2624858433866565  0.3856412106875451  0.8551402157239638  1.0000
  O   O1        1.0  0.42665984461509515  0.8952494394722023  0.04004526891952758  1.0000
  O   O2        1.0  0.9266626511919897  0.9357198109045652  0.9598019915064884  1.0000
  O   O3        1.0  0.2251769906393548  0.8210960809236026  0.2101471630384069  1.0000
  O   O4        1.0  0.7245654515407978  0.0310722434081043  0.7899128971104264  1.0000
  O   O5        1.0  0.9022743310571714  0.1275368828782319  0.18688397765417625  1.0000
  O   O6        1.0  0.4025686579040483  0.3150892325424622  0.8131069599319931  1.0000
  O   O7        1.0  0.663307636476894  0.255610887294445  0.04234874627177732  1.0000
  O   O8        1.0  0.16363776986661094  0.29811939166891926  0.9575886329344104  1.0000
