data_image0
_chemical_formula_structural       Cu12Si3H24C60N72
_chemical_formula_sum              "Cu12 Si3 H24 C60 N72"
_cell_length_a       25.421292976377384
_cell_length_b       25.49672855596949
_cell_length_c       25.52207574102615
_cell_angle_alpha    88.58042979066933
_cell_angle_beta     89.81124964924742
_cell_angle_gamma    89.9435085469372

_space_group_name_H-M_alt    "P 1"
_space_group_IT_number       1

loop_
  _space_group_symop_operation_xyz
  'x, y, z'

loop_
  _atom_site_type_symbol
  _atom_site_label
  _atom_site_symmetry_multiplicity
  _atom_site_fract_x
  _atom_site_fract_y
  _atom_site_fract_z
  _atom_site_occupancy
  Cu  Cu1       1.0  0.2326776953757914  0.8573784356798767  0.773826646864869  1.0000
  Cu  Cu2       1.0  0.14394676693361666  0.7701999019055068  0.7760727400159624  1.0000
  Cu  Cu3       1.0  0.22366181542259503  0.7746821094835  0.8711129213837694  1.0000
  Cu  Cu4       1.0  0.2310594719336549  0.1385837360579671  0.2264036468361894  1.0000
  Cu  Cu5       1.0  0.1433109176435039  0.22701043924451625  0.2265248037779344  1.0000
  Cu  Cu6       1.0  0.22162054886722157  0.22106681067856465  0.1295843681451245  1.0000
  Cu  Cu7       1.0  0.7719402960232032  0.14471101068511422  0.7665607688367048  1.0000
  Cu  Cu8       1.0  0.863922688338235  0.2298714574477572  0.7683913369590343  1.0000
  Cu  Cu9       1.0  0.7654918068346034  0.2354984497906329  0.8476541990361214  1.0000
  Cu  Cu10      1.0  0.7760334851657049  0.861315338879173  0.23062302810478744  1.0000
  Cu  Cu11      1.0  0.8651217256755074  0.7720152654701453  0.23253722120639958  1.0000
  Cu  Cu12      1.0  0.7692061178606763  0.7684094082314064  0.1517513904349244  1.0000
  Si  Si1       1.0  0.9880160418491569  0.4990035775838991  0.0015708918958808056  1.0000
  Si  Si2       1.0  0.0022951055891056  0.9990357845724278  0.5016977775716782  1.0000
  Si  Si3       1.0  0.5022304668677008  0.9993515587072538  0.998778362692562  1.0000
  H   H1        1.0  0.1963327166611961  0.9268342408346086  0.6737881164658718  1.0000
  H   H2        1.0  0.0757460260981304  0.8066162072903326  0.6776844599066864  1.0000
  H   H3        1.0  0.3143627164169658  0.8174193309299155  0.9438704528397395  1.0000
  H   H4        1.0  0.33353862294078607  0.9213002579653633  0.8080476374979497  1.0000
  H   H5        1.0  0.073817276234152  0.6724766467656379  0.8114787785502031  1.0000
  H   H6        1.0  0.1804514330404317  0.6789113366420522  0.943407995195841  1.0000
  H   H7        1.0  0.19463072937613654  0.0685818827843008  0.3260676005587372  1.0000
  H   H8        1.0  0.07780853618976379  0.19252985165920222  0.32808183707098243  1.0000
  H   H9        1.0  0.3121872586011278  0.17847092564485928  0.055660371310871405  1.0000
  H   H10       1.0  0.3325499718615248  0.0751064243148889  0.191593416490889  1.0000
  H   H11       1.0  0.0731920984087537  0.32491444248866935  0.19148989700224212  1.0000
  H   H12       1.0  0.1780039120582657  0.316226338426958  0.05760140408447259  1.0000
  H   H13       1.0  0.8089215910663653  0.07645821466687151  0.6712757377757583  1.0000
  H   H14       1.0  0.9379202008797235  0.18734829710131615  0.6769137166153101  1.0000
  H   H15       1.0  0.6640429849574685  0.1995518104907177  0.9147106750155772  1.0000
  H   H16       1.0  0.6796281973017031  0.0700334337103072  0.8088321314650457  1.0000
  H   H17       1.0  0.9342902936513722  0.32283368983586064  0.8119101310098742  1.0000
  H   H18       1.0  0.7977196535872721  0.3337443715440074  0.91332893200412  1.0000
  H   H19       1.0  0.8144059830780463  0.9307171524883346  0.32436161653110673  1.0000
  H   H20       1.0  0.9357496748000641  0.8110354619402217  0.327040957351862  1.0000
  H   H21       1.0  0.668699340128306  0.8034032444588849  0.08424079783589629  1.0000
  H   H22       1.0  0.6840682076523878  0.9358812305013089  0.1863228068937985  1.0000
  H   H23       1.0  0.9348350786825818  0.6767147385726702  0.19104390331325052  1.0000
  H   H24       1.0  0.8007627562066872  0.6691695655279163  0.08691276612022142  1.0000
  C   C1        1.0  0.1716060109618027  0.8930390945826617  0.6823990909495237  1.0000
  C   C2        1.0  0.1251775094433683  0.8774510432369808  0.6573530801114629  1.0000
  C   C3        1.0  0.10970098857256969  0.8312612980832768  0.6843621490165788  1.0000
  C   C4        1.0  0.31137845157208227  0.8383595800228462  0.9064771674346658  1.0000
  C   C5        1.0  0.34229580793506625  0.8799828457321726  0.8864907089894558  1.0000
  C   C6        1.0  0.3212913622118165  0.8915635691967267  0.8366520801467631  1.0000
  C   C7        1.0  0.10457166299813277  0.6816941702447895  0.8391123650301181  1.0000
  C   C8        1.0  0.1157111433567621  0.6574853487170318  0.887899400098796  1.0000
  C   C9        1.0  0.15935436019852742  0.6849553227550301  0.9068715695585965  1.0000
  C   C10       1.0  0.17073510739718498  0.103241826448901  0.3187394312152065  1.0000
  C   C11       1.0  0.12574988590514377  0.12006529365893212  0.3458141038667932  1.0000
  C   C12       1.0  0.11078733550566258  0.16696636372380175  0.319835290149733  1.0000
  C   C13       1.0  0.309459729310106  0.1576409480888046  0.0931418849665988  1.0000
  C   C14       1.0  0.34084117568514927  0.11635128128695271  0.113001658771914  1.0000
  C   C15       1.0  0.3200359940970968  0.10473023164067292  0.1630361897231012  1.0000
  C   C16       1.0  0.10348618270983677  0.31514598248993064  0.16334307163784698  1.0000
  C   C17       1.0  0.11419354153439795  0.33882723246572505  0.11415060383949083  1.0000
  C   C18       1.0  0.15737420910905084  0.31077431686279067  0.0946010297690876  1.0000
  C   C19       1.0  0.835685405773333  0.10818161165026652  0.6798496377820343  1.0000
  C   C20       1.0  0.8843632631224735  0.1206198141058223  0.6564495689676663  1.0000
  C   C21       1.0  0.9019300792536669  0.16511847858189546  0.6827738663142496  1.0000
  C   C22       1.0  0.6751719590076704  0.17293231638129922  0.8840751091694727  1.0000
  C   C23       1.0  0.6539570474725949  0.12356217596266818  0.8728906360493269  1.0000
  C   C24       1.0  0.6833209424088978  0.1063048610074802  0.8298197076818995  1.0000
  C   C25       1.0  0.8967829592634827  0.3180849984180015  0.8318608367134034  1.0000
  C   C26       1.0  0.8761409690502402  0.3463103734134734  0.8738941046583264  1.0000
  C   C27       1.0  0.8266281576884679  0.3236569590772405  0.8838916837194192  1.0000
  C   C28       1.0  0.8394159074350398  0.8970579521019602  0.3176087054536794  1.0000
  C   C29       1.0  0.8858784655517623  0.8818241500220199  0.3435297367666053  1.0000
  C   C30       1.0  0.9017017471849441  0.8355845846241367  0.3190054570902845  1.0000
  C   C31       1.0  0.6797680319261302  0.8308815607602968  0.11403277296465571  1.0000
  C   C32       1.0  0.6585740431790724  0.8806305153796217  0.12391259146612302  1.0000
  C   C33       1.0  0.6878232200363712  0.8990039114668776  0.1663638021971394  1.0000
  C   C34       1.0  0.8980037457312945  0.682440892102882  0.17032024742569257  1.0000
  C   C35       1.0  0.8777408507863242  0.6545721232756988  0.1280265582436471  1.0000
  C   C36       1.0  0.8291442061675907  0.6786087015729336  0.11686115269160523  1.0000
  C   C37       1.0  0.09780600842886857  0.9042565834946572  0.6150706303243112  1.0000
  C   C38       1.0  0.044711768489158  0.9562736345433721  0.5456202237787053  1.0000
  C   C39       1.0  0.0989421902519325  0.0936244529920032  0.38879714782193286  1.0000
  C   C40       1.0  0.045297840607425095  0.041887490133120805  0.4582566191948061  1.0000
  C   C41       1.0  0.9113161961748161  0.09238849584404818  0.6160503663897288  1.0000
  C   C42       1.0  0.9609149127289528  0.040037257448695095  0.5464719310568853  1.0000
  C   C43       1.0  0.9123821925885098  0.9087387663514904  0.38488466779559616  1.0000
  C   C44       1.0  0.9616005525001866  0.9586541158505713  0.45612609515855956  1.0000
  C   C45       1.0  0.38543589786866056  0.9058280474077022  0.9117614232864071  1.0000
  C   C46       1.0  0.45740401643096373  0.9571656666068264  0.959009200533032  1.0000
  C   C47       1.0  0.6174895925613342  0.9078977166832374  0.09534383173596693  1.0000
  C   C48       1.0  0.5478132577854281  0.9582722513994073  0.041075981155337615  1.0000
  C   C49       1.0  0.38405419155094483  0.0907202680538148  0.0872662085164606  1.0000
  C   C50       1.0  0.45659834849473663  0.04022943206116031  0.03937930678900871  1.0000
  C   C51       1.0  0.6129007782535182  0.0954184442224815  0.9008311417208575  1.0000
  C   C52       1.0  0.5452556090154629  0.0423775460474758  0.955462627230986  1.0000
  C   C53       1.0  0.08703832989093027  0.6151259638182438  0.9133340705630317  1.0000
  C   C54       1.0  0.031533373452795395  0.5446219499711661  0.9615186457087931  1.0000
  C   C55       1.0  0.9007329899473077  0.38793349763159324  0.9021878204677803  1.0000
  C   C56       1.0  0.9474015065436845  0.45665351030786633  0.9576519868610803  1.0000
  C   C57       1.0  0.9017584503846405  0.6119822721012087  0.10044931661281713  1.0000
  C   C58       1.0  0.9478538265877673  0.5420724966718213  0.045540007876361706  1.0000
  C   C59       1.0  0.08562969033273757  0.3812746214238416  0.08884277659924322  1.0000
  C   C60       1.0  0.0308553488978376  0.4525724054906919  0.04122398147645609  1.0000
  N   N1        1.0  0.1442892128081894  0.8202918339769598  0.7227087822041014  1.0000
  N   N2        1.0  0.18278057788036514  0.858657319841136  0.7214943789604149  1.0000
  N   N3        1.0  0.2807937535869698  0.8592831806256385  0.8277178025283973  1.0000
  N   N4        1.0  0.27478068744582634  0.8260460254860221  0.8710372364329331  1.0000
  N   N5        1.0  0.1729967096062524  0.7228378343828225  0.8719415148531909  1.0000
  N   N6        1.0  0.1389954646620239  0.720707297958583  0.8297979302715107  1.0000
  N   N7        1.0  0.14430242063361476  0.17716845807862572  0.2801469410423891  1.0000
  N   N8        1.0  0.1816456702164331  0.13763851889694934  0.2795369746348015  1.0000
  N   N9        1.0  0.2791719518776432  0.13664774665466692  0.1721717357715988  1.0000
  N   N10       1.0  0.27278553623357027  0.16973393139785742  0.1288298944522452  1.0000
  N   N11       1.0  0.1711645183257673  0.27309107912402203  0.1295962810368749  1.0000
  N   N12       1.0  0.1377509172911786  0.2759141553171105  0.17235624002533714  1.0000
  N   N13       1.0  0.8662947584644555  0.17807692536329264  0.7191777281942962  1.0000
  N   N14       1.0  0.8251814785760345  0.142620513465566  0.7174067252268514  1.0000
  N   N15       1.0  0.7192472740504456  0.14277376411100562  0.8163757174411899  1.0000
  N   N16       1.0  0.7144057114321215  0.18407929684004642  0.8502550503315192  1.0000
  N   N17       1.0  0.8184500877508468  0.28479294928155247  0.8503693696695649  1.0000
  N   N18       1.0  0.8620647339447628  0.2813019974753815  0.8180083308227922  1.0000
  N   N19       1.0  0.867203343237527  0.8242794659030537  0.2812139526828688  1.0000
  N   N20       1.0  0.8284725253804908  0.8624901054042626  0.2803751234330534  1.0000
  N   N21       1.0  0.7237264771647532  0.862826261985866  0.18066104148944362  1.0000
  N   N22       1.0  0.7188814670022552  0.8205677271475053  0.1479935894491362  1.0000
  N   N23       1.0  0.8210909193521373  0.7178502046534447  0.15001805215784  1.0000
  N   N24       1.0  0.863879036922455  0.7202636642385869  0.1832710337322467  1.0000
  N   N25       1.0  0.11907876132812589  0.9496719806661745  0.5956355791046732  1.0000
  N   N26       1.0  0.0525903145028579  0.882313171411461  0.5976058306444045  1.0000
  N   N27       1.0  0.025320552087372095  0.9093699418884642  0.5622361669144738  1.0000
  N   N28       1.0  0.09156213482478393  0.9762703289402881  0.5602015548301509  1.0000
  N   N29       1.0  0.1184567273600834  0.046557087306133796  0.4058346608947971  1.0000
  N   N30       1.0  0.05626005217228419  0.11768594263457288  0.409685020720481  1.0000
  N   N31       1.0  0.028678490036377003  0.0908088720230822  0.4451071901648973  1.0000
  N   N32       1.0  0.09057008628373352  0.020071847114785202  0.44118412386718125  1.0000
  N   N33       1.0  0.8866520177378304  0.05003594159451551  0.5960713827680664  1.0000
  N   N34       1.0  0.9601402142080387  0.10938469943659611  0.6017941945825315  1.0000
  N   N35       1.0  0.9853587309352321  0.08230434098609153  0.5662351580433693  1.0000
  N   N36       1.0  0.9123794712183722  0.023183042135762798  0.5605395903433319  1.0000
  N   N37       1.0  0.9577798576318556  0.8872739214110509  0.4036430840378031  1.0000
  N   N38       1.0  0.8906424204151193  0.9542116728314199  0.401460852215223  1.0000
  N   N39       1.0  0.9162252871663836  0.9797736921534151  0.4377904158813237  1.0000
  N   N40       1.0  0.982878020475404  0.9130974500733803  0.4400732112359691  1.0000
  N   N41       1.0  0.412793130233247  0.9423896192568152  0.8832108211512875  1.0000
  N   N42       1.0  0.3962394666152917  0.8912748258603644  0.9622378788910595  1.0000
  N   N43       1.0  0.4329106823185923  0.918037206468078  0.9863154145138323  1.0000
  N   N44       1.0  0.4495630660604063  0.968803199228546  0.9077195254915438  1.0000
  N   N45       1.0  0.6079257362031213  0.9586450293297376  0.1077285462123854  1.0000
  N   N46       1.0  0.591860771556405  0.8814061724302606  0.05754967239893459  1.0000
  N   N47       1.0  0.5561712250270928  0.9074499203390047  0.029784097834145498  1.0000
  N   N48       1.0  0.5724532976325064  0.9842841088251434  0.0795344551700552  1.0000
  N   N49       1.0  0.39363966703861303  0.10452998054657314  0.0362878536956117  1.0000
  N   N50       1.0  0.41251981425466505  0.0550591041245738  0.115749033479176  1.0000
  N   N51       1.0  0.449652665593156  0.0290938970637171  0.0909159746605894  1.0000
  N   N52       1.0  0.430591577763593  0.07818716862934141  0.011915662947920702  1.0000
  N   N53       1.0  0.5864141432778068  0.12080981727688572  0.938994664970231  1.0000
  N   N54       1.0  0.6036171294356478  0.045081057242036614  0.8869172754683774  1.0000
  N   N55       1.0  0.5692782769166485  0.018011457739191907  0.9153632026476616  1.0000
  N   N56       1.0  0.5517841265553115  0.09337016455566534  0.9669777495960615  1.0000
  N   N57       1.0  0.10496125895269158  0.5965700153093252  0.9603995058142091  1.0000
  N   N58       1.0  0.04395520130625389  0.5966561055529311  0.8882834934685135  1.0000
  N   N59       1.0  0.015393354911609002  0.5607752744771946  0.9133626098806076  1.0000
  N   N60       1.0  0.0762300650266567  0.5605204725334049  0.9849406181196443  1.0000
  N   N61       1.0  0.9493713167180858  0.4039598081592503  0.8862551907657803  1.0000
  N   N62       1.0  0.8734146612771525  0.4084297299406218  0.9427638607103007  1.0000
  N   N63       1.0  0.8977598082098268  0.44322979892803  0.9715010467606932  1.0000
  N   N64       1.0  0.973047075620549  0.43919050415041044  0.9148658725613146  1.0000
  N   N65       1.0  0.9493701686256342  0.5942067817402049  0.1173564485463316  1.0000
  N   N66       1.0  0.8746865207654649  0.5920880354271035  0.05959031273171429  1.0000
  N   N67       1.0  0.8987393720327147  0.5566987988831118  0.031156455351300797  1.0000
  N   N68       1.0  0.9727781324802364  0.5583759636589107  0.0890132431000055  1.0000
  N   N69       1.0  0.04251321177523689  0.39988341366375835  0.11406102076349361  1.0000
  N   N70       1.0  0.10357226191668899  0.39952610902786745  0.0415624475989915  1.0000
  N   N71       1.0  0.07525003615997859  0.4360382626870774  0.017349563810256503  1.0000
  N   N72       1.0  0.014319033141958901  0.4361732165730317  0.08927017841916302  1.0000
