data_image0
_chemical_formula_structural       Mn3H52C54N10O16
_chemical_formula_sum              "Mn3 H52 C54 N10 O16"
_cell_length_a       11.174095763814696
_cell_length_b       12.194904649932063
_cell_length_c       12.44
_cell_angle_alpha    102.75839070552328
_cell_angle_beta     91.25663862001625
_cell_angle_gamma    111.08844373941366

_space_group_name_H-M_alt    "P 1"
_space_group_IT_number       1

loop_
  _space_group_symop_operation_xyz
  'x, y, z'

loop_
  _atom_site_type_symbol
  _atom_site_label
  _atom_site_symmetry_multiplicity
  _atom_site_fract_x
  _atom_site_fract_y
  _atom_site_fract_z
  _atom_site_occupancy
  Mn  Mn1       1.0  0.9218747854721059  0.22267483874924207  0.20705726247668818  1.0000
  Mn  Mn2       1.0  0.07812580168887003  0.777327630338938  0.7929402289584289  1.0000
  Mn  Mn3       1.0  0.9999975118573304  0.9999924970034542  0.9999928604301119  1.0000
  H   H1        1.0  0.8340620648873339  0.0352313753249263  0.8062005181894206  1.0000
  H   H2        1.0  0.16593941741593443  0.9647710937632465  0.19379216772801297  1.0000
  H   H3        1.0  0.7894190662165101  0.0097826151128686  0.4296059239388441  1.0000
  H   H4        1.0  0.2105748650716706  0.9902098818905856  0.5703868659575164  1.0000
  H   H5        1.0  0.2963966555164674  0.3677768304414144  0.37551713207987086  1.0000
  H   H6        1.0  0.7036048267868011  0.6322256386467657  0.6244739461205171  1.0000
  H   H7        1.0  0.5358656605828713  0.1126075003470177  0.9835099101526836  1.0000
  H   H8        1.0  0.4641392290465233  0.887396781847471  0.016489666271944214  1.0000
  H   H9        1.0  0.7355063258899861  0.1653861185710852  0.387857386990369  1.0000
  H   H10       1.0  0.2644983760328046  0.8346154439639335  0.6121375776670347  1.0000
  H   H11       1.0  0.39862553747207835  0.18920761586705476  0.07556153773314378  1.0000
  H   H12       1.0  0.6013681916459177  0.8107776287111504  0.9244345012598316  1.0000
  H   H13       1.0  0.9809143793715762  0.7973524830150609  0.24076765734113073  1.0000
  H   H14       1.0  0.019090495794245  0.2026472664136421  0.7592349567962131  1.0000
  H   H15       1.0  0.4762965636502514  0.9843073142879674  0.6266007195177608  1.0000
  H   H16       1.0  0.5237018867400991  0.0156987810128371  0.3733983187195307  1.0000
  H   H17       1.0  0.6316369840866044  0.2812218547087539  0.15444230879877097  1.0000
  H   H18       1.0  0.3683567450313916  0.7187633898694443  0.8455545340527308  1.0000
  H   H19       1.0  0.6952780517166558  0.4237410764577731  0.343016894575392  1.0000
  H   H20       1.0  0.30471873824141227  0.5762496074393653  0.6569755591160131  1.0000
  H   H21       1.0  0.3912686021480738  0.046043834823692  0.8049826822565436  1.0000
  H   H22       1.0  0.6087350458529741  0.9539640735834212  0.1950184586036982  1.0000
  H   H23       1.0  0.9925118447260886  0.5972789210130074  0.18442591431296046  1.0000
  H   H24       1.0  0.007486244714627319  0.4027262677346428  0.8155793514231462  1.0000
  H   H25       1.0  0.06113529287858913  0.6858772675606417  0.08728018266946688  1.0000
  H   H26       1.0  0.938868513901909  0.3141242949743841  0.9127211952226659  1.0000
  H   H27       1.0  0.15063082836668681  0.7144119347177664  0.21672221417804846  1.0000
  H   H28       1.0  0.8493708416431858  0.2855932540298767  0.7832823182332972  1.0000
  H   H29       1.0  0.9070008890436938  0.4619006184785235  0.6318209465358605  1.0000
  H   H30       1.0  0.0929919883227441  0.5380982243970323  0.36818043113889587  1.0000
  H   H31       1.0  0.7665477265309875  0.4880564901527293  0.592025300865906  1.0000
  H   H32       1.0  0.2334431728442752  0.5119396330633492  0.4079714297747471  1.0000
  H   H33       1.0  0.8870954385464671  0.4901243379029339  0.49937818789611294  1.0000
  H   H34       1.0  0.1129021022380172  0.5098772246320848  0.5006222627034234  1.0000
  H   H35       1.0  0.5811013708769792  0.2872821625606221  0.5640288937998292  1.0000
  H   H36       1.0  0.418895606787693  0.7127112409959863  0.43596736780028067  1.0000
  H   H37       1.0  0.6925572871824883  0.2675202102999066  0.6561640637019224  1.0000
  H   H38       1.0  0.3074398781887878  0.7324759129161719  0.343830378797243  1.0000
  H   H39       1.0  0.6239470305855547  0.1564529437659559  0.5297652294340693  1.0000
  H   H40       1.0  0.37605245926295083  0.8435422728969684  0.4702306703131072  1.0000
  H   H41       1.0  0.13030634219057188  0.3784732511361355  0.0731823556214692  1.0000
  H   H42       1.0  0.8696989083884504  0.6215319376115147  0.9268318936258808  1.0000
  H   H43       1.0  0.3306502922597687  0.6606324818088112  0.1009247870758685  1.0000
  H   H44       1.0  0.669352980328071  0.33936998727936896  0.8990856189958976  1.0000
  H   H45       1.0  0.22822139034667538  0.6313707590200934  0.9774049861567136  1.0000
  H   H46       1.0  0.7717807993922818  0.3686289904086166  0.022602398231434482  1.0000
  H   H47       1.0  0.2735153959641679  0.5135433255973751  0.006979378711108088  1.0000
  H   H48       1.0  0.7264860718755201  0.48645461072501917  0.9930308143724247  1.0000
  H   H49       1.0  0.9812984197103984  0.6950787821001255  0.3958575406481302  1.0000
  H   H50       1.0  0.018713111328217714  0.3049309394133033  0.6041505788864967  1.0000
  H   H51       1.0  0.890241041314404  0.7591195101886328  0.571202041689439  1.0000
  H   H52       1.0  0.10976493116388039  0.24088749166532608  0.42880216413585265  1.0000
  C   C1        1.0  0.7802249155204278  0.12649408159980877  0.0117124836736622  1.0000
  C   C2        1.0  0.2197772742185222  0.8735056678289012  0.9882852544122401  1.0000
  C   C3        1.0  0.6933598800578195  0.0792309327804901  0.9054711321417059  1.0000
  C   C4        1.0  0.3066398119608705  0.9207715363076899  0.09452634165997141  1.0000
  C   C5        1.0  0.8948366676703187  0.9763514037856496  0.23681450523346112  1.0000
  C   C6        1.0  0.1051685829087106  0.0236537849619936  0.7631852745605202  1.0000
  C   C7        1.0  0.1953703579925659  0.2198246356248958  0.17330724438023992  1.0000
  C   C8        1.0  0.8046217974746099  0.7801723941443441  0.8266872956876482  1.0000
  C   C9        1.0  0.737398593285441  0.0375566841716051  0.8064050508273723  1.0000
  C   C10       1.0  0.2626037986236939  0.9624503176823538  0.19359184973747293  1.0000
  C   C11       1.0  0.8288265987918138  0.9391129197720075  0.42073137879159356  1.0000
  C   C12       1.0  0.1711705665794625  0.0608832034440709  0.5792670830001754  1.0000
  C   C13       1.0  0.36985461276035636  0.3519783285813531  0.3256541061192593  1.0000
  C   C14       1.0  0.6301434477532126  0.6480177946347254  0.6743387462963071  1.0000
  C   C15       1.0  0.3345032920506909  0.2757852554286302  0.2196878199797609  1.0000
  C   C16       1.0  0.6654924295220609  0.724207241574824  0.7803074167590367  1.0000
  C   C17       1.0  0.568440101744784  0.0815915972002728  0.9048156036474921  1.0000
  C   C18       1.0  0.4315583486455665  0.9184144981005317  0.09518182687276071  1.0000
  C   C19       1.0  0.6572380652577935  0.0017052264875659  0.7064969872274389  1.0000
  C   C20       1.0  0.3427621609535549  0.9982963360474599  0.29350030083832473  1.0000
  C   C21       1.0  0.8848765970726121  0.9086309764345089  0.3255419635380505  1.0000
  C   C22       1.0  0.11511949991334798  0.09136695988788548  0.6744560658670267  1.0000
  C   C23       1.0  0.7953286029969888  0.2625921873406369  0.41791590781832605  1.0000
  C   C24       1.0  0.2046723306500411  0.7374066555349188  0.5820856285573868  1.0000
  C   C25       1.0  0.4294135880630137  0.2513137595193768  0.15751286142731397  1.0000
  C   C26       1.0  0.5705815848534996  0.7486751112714529  0.8424831871845554  1.0000
  C   C27       1.0  0.9378301782800733  0.8190317952019868  0.3162055252937108  1.0000
  C   C28       1.0  0.0621752455419795  0.1809715804393477  0.6837954731120419  1.0000
  C   C29       1.0  0.499872082828027  0.40556649877427015  0.3697386121951353  1.0000
  C   C30       1.0  0.5001270605344246  0.5944323441012855  0.6302564580455366  1.0000
  C   C31       1.0  0.534760971653391  0.0091779441574147  0.7059440309249467  1.0000
  C   C32       1.0  0.4652441201461883  0.99083359046233  0.2940539041200977  1.0000
  C   C33       1.0  0.5589446715914406  0.30373428924659146  0.2013205351208214  1.0000
  C   C34       1.0  0.4410519306600236  0.6962536749910768  0.7986737376715283  1.0000
  C   C35       1.0  0.5945370375354955  0.3810723390361019  0.3073794768817706  1.0000
  C   C36       1.0  0.4054615427071511  0.6189183448610365  0.6926178352276435  1.0000
  C   C37       1.0  0.4889031725724138  0.0461462753303863  0.8053630538386898  1.0000
  C   C38       1.0  0.511099219336714  0.9538607265235726  0.19463465058466758  1.0000
  C   C39       1.0  0.08144026683695671  0.6426519065008165  0.15040996658978398  1.0000
  C   C40       1.0  0.9185601470810028  0.3573523756936723  0.8495967563943337  1.0000
  C   C41       1.0  0.836054165766825  0.4470657826239233  0.5621434543843264  1.0000
  C   C42       1.0  0.1639405018841913  0.5529330602516254  0.43785474312322487  1.0000
  C   C43       1.0  0.6598313701897993  0.2538140331252805  0.5685609974298842  1.0000
  C   C44       1.0  0.340166329374135  0.7461811835376437  0.43143406319188665  1.0000
  C   C45       1.0  0.08156169799154613  0.438834279962002  0.1127526682089979  1.0000
  C   C46       1.0  0.9184324354668119  0.5611654694667081  0.8872593806293237  1.0000
  C   C47       1.0  0.24834739971155528  0.5917561991830026  0.04356615965149757  1.0000
  C   C48       1.0  0.7516540681281327  0.4082417371393916  0.9564416218564701  1.0000
  C   C49       1.0  0.8289680453177581  0.8832357028586839  0.507710500708228  1.0000
  C   C50       1.0  0.1710273297689398  0.11676042035740147  0.4922879258166617  1.0000
  C   C51       1.0  0.938324312467074  0.7634356097672068  0.4029485765840731  1.0000
  C   C52       1.0  0.061680216212692984  0.23656776587412756  0.5970532080467663  1.0000
  C   C53       1.0  0.8866505239682141  0.7970714515365174  0.5001360836649766  1.0000
  C   C54       1.0  0.11335472661080809  0.2029337372111257  0.4998669115630888  1.0000
  N   N1        1.0  0.5421743003939667  0.48202065923609166  0.47724400605170547  1.0000
  N   N2        1.0  0.45782501621151533  0.5179763705331482  0.5227490673666536  1.0000
  N   N3        1.0  0.6954574356244337  0.9605628740103143  0.6024230601267105  1.0000
  N   N4        1.0  0.3045401051600507  0.0394386885247116  0.3975725673216957  1.0000
  N   N5        1.0  0.7804010122561422  0.9152678520939688  0.608609614139702  1.0000
  N   N6        1.0  0.2195943772941362  0.0847328038878956  0.391386578530998  1.0000
  N   N7        1.0  0.7663823856423235  0.3181929055412027  0.5129429412238338  1.0000
  N   N8        1.0  0.23361657001353106  0.6818032176748829  0.4870507326836914  1.0000
  N   N9        1.0  0.1349659583956182  0.5528641622117263  0.10210989289559787  1.0000
  N   N10       1.0  0.8650367799995635  0.4471392134296082  0.8979015027706082  1.0000
  O   O1        1.0  0.8946992549832655  0.1250798586755124  0.013859102902294789  1.0000
  O   O2        1.0  0.1053051004534709  0.8749253300721307  0.9861430708338049  1.0000
  O   O3        1.0  0.7414536966783913  0.1733674125617881  0.09921768194663369  1.0000
  O   O4        1.0  0.25855190038668496  0.8266341499732304  0.9007845350708975  1.0000
  O   O5        1.0  0.9840483867130558  0.4013918214881258  0.16231235627743956  1.0000
  O   O6        1.0  0.015959534829249795  0.5986088344937386  0.8377001604318224  1.0000
  O   O7        1.0  0.8836771481595989  0.3147616018434718  0.3645645531306839  1.0000
  O   O8        1.0  0.1163322027176577  0.6852381475852383  0.6354349337397736  1.0000
  O   O9        1.0  0.8456059776821192  0.0578915780272951  0.2524236440862708  1.0000
  O   O10       1.0  0.15440933609583143  0.9421253959113898  0.7475893354707068  1.0000
  O   O11       1.0  0.9522392618453281  0.949639815026444  0.15436186664258136  1.0000
  O   O12       1.0  0.04774698857546159  0.0503581212959503  0.8456343610776215  1.0000
  O   O13       1.0  0.16731922208344943  0.1480455697916483  0.0776212180448255  1.0000
  O   O14       1.0  0.8326736552829885  0.8519532730839003  0.9223817673469766  1.0000
  O   O15       1.0  0.11552436443460577  0.2512385156073833  0.23273367501885636  1.0000
  O   O16       1.0  0.884470851872642  0.7487639534807968  0.767262906757111  1.0000
