data_image0
_chemical_formula_structural       K2H52PtC44S4N4O12
_chemical_formula_sum              "K2 H52 Pt1 C44 S4 N4 O12"
_cell_length_a       8.983000746875403
_cell_length_b       12.519702321947223
_cell_length_c       12.94763260889762
_cell_angle_alpha    115.39494848804112
_cell_angle_beta     104.09395582781457
_cell_angle_gamma    96.10021386278862

_space_group_name_H-M_alt    "P 1"
_space_group_IT_number       1

loop_
  _space_group_symop_operation_xyz
  'x, y, z'

loop_
  _atom_site_type_symbol
  _atom_site_label
  _atom_site_symmetry_multiplicity
  _atom_site_fract_x
  _atom_site_fract_y
  _atom_site_fract_z
  _atom_site_occupancy
  K   K1        1.0  0.5081044786226485  0.32135730263820517  0.8827474999571834  1.0000
  K   K2        1.0  0.49188722861255485  0.6786437642202472  0.11724973581550557  1.0000
  H   H1        1.0  0.9112863318313346  0.05540185958811611  0.6612393189461939  1.0000
  H   H2        1.0  0.08871769337825702  0.9445945951917734  0.3387574450052424  1.0000
  H   H3        1.0  0.6403081395341914  0.027570306602093805  0.5359497364689503  1.0000
  H   H4        1.0  0.35969525444752304  0.9724279742568173  0.4640507564062446  1.0000
  H   H5        1.0  0.4564042846044174  0.0741996931177269  0.3917277719396636  1.0000
  H   H6        1.0  0.5435988170249288  0.9258049733611741  0.6082768431255869  1.0000
  H   H7        1.0  0.5596560749955942  0.20974741280126347  0.31853041154891326  1.0000
  H   H8        1.0  0.44034848062216986  0.7902545116330157  0.6814717891801222  1.0000
  H   H9        1.0  0.8519018163262331  0.28571151447346216  0.37456825288953155  1.0000
  H   H10       1.0  0.14810359695420772  0.7142821977415181  0.625429174424248  1.0000
  H   H11       1.0  0.12356677847808582  0.2900586561565959  0.47707385264509844  1.0000
  H   H12       1.0  0.8764366494340835  0.7099359767055377  0.5229228268040558  1.0000
  H   H13       1.0  0.35394652606629523  0.40334207019192536  0.6029169847399556  1.0000
  H   H14       1.0  0.6460500076247797  0.5966562396667713  0.3970815225002511  1.0000
  H   H15       1.0  0.38671442513196314  0.2700633361424707  0.4938977775166719  1.0000
  H   H16       1.0  0.6132855799029074  0.7299349595415021  0.5060997989794271  1.0000
  H   H17       1.0  0.6387608300906608  0.2963390391146916  0.6537110707754507  1.0000
  H   H18       1.0  0.36124124173776556  0.7036619848293953  0.34628568103882873  1.0000
  H   H19       1.0  0.6388429846825688  0.41716834435561617  0.6142562499446099  1.0000
  H   H20       1.0  0.36115593916985506  0.5828336049171767  0.38574032072796166  1.0000
  H   H21       1.0  0.839441094654916  0.5376305906572155  0.8067705794082368  1.0000
  H   H22       1.0  0.16055721542069534  0.46236953656774926  0.193226676186697  1.0000
  H   H23       1.0  0.8194323194875821  0.4242085765699741  0.8552363680562464  1.0000
  H   H24       1.0  0.18056457053006622  0.5757906447028418  0.14475948844886227  1.0000
  H   H25       1.0  0.9185519825668323  0.6497572856109459  0.022616126705656815  1.0000
  H   H26       1.0  0.08144427719461328  0.35024011348397716  0.9773811841464521  1.0000
  H   H27       1.0  0.727728893272932  0.6688012364903384  0.9664775550429778  1.0000
  H   H28       1.0  0.2722702725220074  0.33119797502916976  0.03351947629021618  1.0000
  H   H29       1.0  0.9446844747649905  0.6118050448690582  0.1844304928208515  1.0000
  H   H30       1.0  0.055308345639765784  0.3881960169176394  0.8155684845028471  1.0000
  H   H31       1.0  0.9011492921545783  0.4602650401114374  0.06147602943658371  1.0000
  H   H32       1.0  0.09884433453132868  0.5397351055795881  0.9385250318993028  1.0000
  H   H33       1.0  0.8750164708167745  0.4703390078701234  0.2541307280297787  1.0000
  H   H34       1.0  0.12497633213691739  0.529665702043417  0.7458712932953162  1.0000
  H   H35       1.0  0.7135231916988973  0.5405094872536155  0.23833896432039137  1.0000
  H   H36       1.0  0.28646677211055055  0.45948976249869833  0.761657984248302  1.0000
  H   H37       1.0  0.5258392299890318  0.35270400036899463  0.20314576771183107  1.0000
  H   H38       1.0  0.4741555922633864  0.6472961409006145  0.7968531880518555  1.0000
  H   H39       1.0  0.7015344388949034  0.29898979001277576  0.23077698229095484  1.0000
  H   H40       1.0  0.2984614800476848  0.701010346055007  0.7692244844483794  1.0000
  H   H41       1.0  0.6045418608285118  0.12740344508934243  0.022693469133741876  1.0000
  H   H42       1.0  0.39545489735400013  0.8725957751429119  0.9773085427684903  1.0000
  H   H43       1.0  0.47383779813797144  0.12391527802613209  0.1070242041428244  1.0000
  H   H44       1.0  0.5261584276930192  0.8760857690655681  0.892976920135325  1.0000
  H   H45       1.0  0.2695607127940391  0.00017257074659230015  0.9113360611492638  1.0000
  H   H46       1.0  0.7304348827807489  0.999826654167215  0.08866651747588594  1.0000
  H   H47       1.0  0.3959663905157029  0.0192074967881624  0.8291445432781686  1.0000
  H   H48       1.0  0.6040337740647246  0.9807880604921806  0.17085734100175642  1.0000
  H   H49       1.0  0.10322940830000246  0.9791695239878135  0.726145035890937  1.0000
  H   H50       1.0  0.8967693691812431  0.020825127600517104  0.2738539104498798  1.0000
  H   H51       1.0  0.10084661744738814  0.12048904549876482  0.8456160609784433  1.0000
  H   H52       1.0  0.8991516935999047  0.8795074334692858  0.15437892003972564  1.0000
  Pt  Pt1       1.0  2.5652146220999998e-06  4.549397452499998e-06  3.876368303699999e-06  1.0000
  C   C1        1.0  0.11940716190129314  0.150883334082728  0.6550598176171789  1.0000
  C   C2        1.0  0.8805968478005824  0.8491094723101751  0.34493544118213737  1.0000
  C   C3        1.0  0.9585935776098252  0.10777416291820431  0.6226764685382519  1.0000
  C   C4        1.0  0.04141096347189698  0.8922204648721676  0.37732195246190503  1.0000
  C   C5        1.0  0.8512564397880027  0.1304047390476555  0.5381605308463477  1.0000
  C   C6        1.0  0.14874984471948247  0.8695917058488547  0.4618381773578122  1.0000
  C   C7        1.0  0.6856721589825695  0.08422721434492789  0.5005545313484632  1.0000
  C   C8        1.0  0.31433096106952263  0.9157701557502093  0.4994447651386266  1.0000
  C   C9        1.0  0.58370390221733  0.11047214633506293  0.42085633316716536  1.0000
  C   C10       1.0  0.4163017830493845  0.889529773157527  0.579146839688228  1.0000
  C   C11       1.0  0.6428556971370014  0.18607251137949277  0.3772618236178856  1.0000
  C   C12       1.0  0.3571465671957625  0.8139257744211078  0.6227376971309438  1.0000
  C   C13       1.0  0.8040868269945138  0.2293704768471656  0.40956776502517295  1.0000
  C   C14       1.0  0.1959183113846309  0.7706259728609623  0.5904307404772594  1.0000
  C   C15       1.0  0.9119650299550417  0.201189201957348  0.4885283755027601  1.0000
  C   C16       1.0  0.08803785009788358  0.7988036093772377  0.511465911170191  1.0000
  C   C17       1.0  0.0783335575761299  0.24115406209679688  0.5196001733555065  1.0000
  C   C18       1.0  0.921668417319296  0.7588396645530435  0.4803966458530977  1.0000
  C   C19       1.0  0.1804451654597443  0.2174759158460446  0.6011974074352793  1.0000
  C   C20       1.0  0.8195585528614375  0.7825196279099275  0.398799698977328  1.0000
  C   C21       1.0  0.4093853837412809  0.326384362736853  0.5911282329511279  1.0000
  C   C22       1.0  0.5906163811987354  0.6736157501833304  0.4088688613243362  1.0000
  C   C23       1.0  0.5842220642368545  0.37238371343586607  0.6577388028995941  1.0000
  C   C24       1.0  0.4157788449838408  0.6276173151897808  0.342258515637603  1.0000
  C   C25       1.0  0.7731282898574605  0.5010130535587008  0.8507388619822648  1.0000
  C   C26       1.0  0.22686972980913825  0.49898616277242525  0.14925796664920915  1.0000
  C   C27       1.0  0.7927456863513457  0.602011621567577  0.9749890155837871  1.0000
  C   C28       1.0  0.20725089677790012  0.3979866886813284  0.025007183382506088  1.0000
  C   C29       1.0  0.849987544211011  0.529101700967601  0.11971617295769482  1.0000
  C   C30       1.0  0.15000981126893015  0.4708993411824097  0.8802859234468201  1.0000
  C   C31       1.0  0.7784518300723563  0.47851171687769056  0.18813656481560057  1.0000
  C   C32       1.0  0.22154326610969122  0.5214893351556994  0.8118635873361837  1.0000
  C   C33       1.0  0.6070097047725157  0.3028193569821482  0.16066443545990686  1.0000
  C   C34       1.0  0.39298852290613706  0.6971807695924782  0.8393366672582303  1.0000
  C   C35       1.0  0.5214754288287933  0.17431390817790765  0.06532623536782717  1.0000
  C   C36       1.0  0.47852163624212823  0.8256862230782646  0.9346754340732274  1.0000
  C   C37       1.0  0.31477993055727893  0.060254935097624696  0.8778515965618537  1.0000
  C   C38       1.0  0.6852185555432797  0.9397424538537817  0.12214919739226089  1.0000
  C   C39       1.0  0.17472995130886915  0.07090870895643062  0.7945750806708884  1.0000
  C   C40       1.0  0.8252702956685168  0.9290868489742647  0.205422956485833  1.0000
  C   C41       1.0  0.7785550804077774  0.11405687237753169  0.8497272810105867  1.0000
  C   C42       1.0  0.22144918285762571  0.8859514376767448  0.15027904190850444  1.0000
  C   C43       1.0  0.14248061529256262  0.2705472856862201  0.23671957344222957  1.0000
  C   C44       1.0  0.8575179667693221  0.7294610488163543  0.7632834276943256  1.0000
  S   S1        1.0  0.7917216383162115  0.9779602600340666  0.8375862566588806  1.0000
  S   S2        1.0  0.20828055621228717  0.022052618273924896  0.16242544009554644  1.0000
  S   S3        1.0  0.986205091469465  0.2011121974289765  0.11182436205088206  1.0000
  S   S4        1.0  0.013797618931171433  0.7988988538895042  0.8881889917522725  1.0000
  N   N1        1.0  0.761088639842825  0.20590429209017458  0.8490054139473601  1.0000
  N   N2        1.0  0.23890860261470706  0.7941104336244253  0.15099689012967604  1.0000
  N   N3        1.0  0.25090451557840515  0.32665281374481475  0.3264432549082841  1.0000
  N   N4        1.0  0.749106249707701  0.6733618524093927  0.6735722535344094  1.0000
  O   O1        1.0  0.23121559893213844  0.1354778044132274  0.7369909262937924  1.0000
  O   O2        1.0  0.7687880874019442  0.8645140908256932  0.2630054443913463  1.0000
  O   O3        1.0  0.3418629707068419  0.25560024053351776  0.6395019606621231  1.0000
  O   O4        1.0  0.658140182304031  0.7443971298217563  0.36049579697569095  1.0000
  O   O5        1.0  0.6085054645016259  0.45841932118800344  0.7810649355084678  1.0000
  O   O6        1.0  0.39149198985466444  0.5415817217424248  0.21893254434819906  1.0000
  O   O7        1.0  0.7309385524889294  0.5590198526264629  0.04718847027522341  1.0000
  O   O8        1.0  0.2690574488506173  0.44098028409166545  0.9528091493409009  1.0000
  O   O9        1.0  0.6749461243036878  0.36233339907426654  0.10456681070692042  1.0000
  O   O10       1.0  0.3250506833170022  0.6376658215482037  0.8954328929213913  1.0000
  O   O11       1.0  0.3952435445320504  0.178546534732952  0.9763763671486956  1.0000
  O   O12       1.0  0.6047544256963705  0.8214526812079656  0.02362276975669898  1.0000
