data_image0
_chemical_formula_structural       Mn6H36C24O36
_chemical_formula_sum              "Mn6 H36 C24 O36"
_cell_length_a       9.588124494692295
_cell_length_b       9.790939250044124
_cell_length_c       13.544477819263406
_cell_angle_alpha    70.99361994008815
_cell_angle_beta     69.33368644217474
_cell_angle_gamma    60.694616399082705

_space_group_name_H-M_alt    "P 1"
_space_group_IT_number       1

loop_
  _space_group_symop_operation_xyz
  'x, y, z'

loop_
  _atom_site_type_symbol
  _atom_site_label
  _atom_site_symmetry_multiplicity
  _atom_site_fract_x
  _atom_site_fract_y
  _atom_site_fract_z
  _atom_site_occupancy
  Mn  Mn1       1.0  0.0044445277546430505  0.750004980945242  0.24994683202410775  1.0000
  Mn  Mn2       1.0  0.9955475575714487  0.24999371113668903  0.7500528543049539  1.0000
  Mn  Mn3       1.0  0.03942313616612117  0.6604074065761056  0.8000610943769004  1.0000
  Mn  Mn4       1.0  0.4999466807276818  0.8395608221278368  0.6998755869135281  1.0000
  Mn  Mn5       1.0  0.9605853039796769  0.33959963214313404  0.1999521171051909  1.0000
  Mn  Mn6       1.0  0.5000312019220203  0.1604414470843665  0.3001351721763257  1.0000
  H   H1        1.0  0.786227528813072  0.8939177014066146  0.7309724150090843  1.0000
  H   H2        1.0  0.41111637872899115  0.6061888430012843  0.768961846220634  1.0000
  H   H3        1.0  0.21377335681756185  0.1060869525591102  0.2690273840709025  1.0000
  H   H4        1.0  0.588895152508286  0.393796732936309  0.2310391663317475  1.0000
  H   H5        1.0  0.9028869839587517  0.9912227991411414  0.6898531087882206  1.0000
  H   H6        1.0  0.5840446375234335  0.5087728542282406  0.8101122833428249  1.0000
  H   H7        1.0  0.09710405962995597  0.0087842395780982  0.3101473809325483  1.0000
  H   H8        1.0  0.4159559014644501  0.4912198759699038  0.18989011514791798  1.0000
  H   H9        1.0  0.9965574407064681  0.8861064412632587  0.8994544166579246  1.0000
  H   H10       1.0  0.782180438960886  0.6139345224229373  0.6005625179917827  1.0000
  H   H11       1.0  0.003455164366151614  0.1138934431954368  0.10054527282270699  1.0000
  H   H12       1.0  0.21781432523605568  0.386065362035751  0.39942824052593545  1.0000
  H   H13       1.0  0.005521810923269537  0.7441265635270256  0.9942339298378401  1.0000
  H   H14       1.0  0.7439416089723069  0.7559465943316468  0.5057859607057082  1.0000
  H   H15       1.0  0.9944915978564666  0.2558685514246335  0.005769872818682209  1.0000
  H   H16       1.0  0.25604462735584116  0.2440640215178647  0.4942139753734622  1.0000
  H   H17       1.0  0.17529134460110643  0.3478377631659555  0.8759033166168281  1.0000
  H   H18       1.0  0.39902838456592366  0.152185430410178  0.6240391129223467  1.0000
  H   H19       1.0  0.8247128279710413  0.6521633136694973  0.12408963247760604  1.0000
  H   H20       1.0  0.6009600012420433  0.8478096845414811  0.37596517185388467  1.0000
  H   H21       1.0  0.19166457839958898  0.4211045454539644  0.9577196143733528  1.0000
  H   H22       1.0  0.5703760163435093  0.078949649917881  0.5423201727916194  1.0000
  H   H23       1.0  0.8083419500830757  0.5788965313814813  0.042281018250029855  1.0000
  H   H24       1.0  0.42962736533850415  0.921045465033778  0.4576802710433227  1.0000
  H   H25       1.0  0.14837138637445002  0.9198328178706277  0.4789573637214913  1.0000
  H   H26       1.0  0.5472745269517104  0.5801628354987542  0.021007864322861305  1.0000
  H   H27       1.0  0.8516296183069232  0.0801730284718545  0.5210405293403753  1.0000
  H   H28       1.0  0.45273774220121527  0.4198346642064195  0.9789946195189713  1.0000
  H   H29       1.0  0.36266855484466737  0.4296479249268971  0.48581914604023513  1.0000
  H   H30       1.0  0.2783564132472307  0.0703228040718713  0.014238186303799737  1.0000
  H   H31       1.0  0.6373182660853087  0.5703650756761363  0.5141721695292389  1.0000
  H   H32       1.0  0.7216463284797495  0.9296723108797877  0.9857640129794447  1.0000
  H   H33       1.0  0.3763502248480747  0.48935261396646723  0.5917384650809723  1.0000
  H   H34       1.0  0.4574492512798899  0.0105894979901038  0.908369703595703  1.0000
  H   H35       1.0  0.6236481198162522  0.5106496552457429  0.40824960100769664  1.0000
  H   H36       1.0  0.5425540220032375  0.98940800171507  0.09163173667644742  1.0000
  C   C1        1.0  0.20345460393768625  0.799270411466253  0.5238569599866167  1.0000
  C   C2        1.0  0.526638249760218  0.700766975089671  0.9761976016765032  1.0000
  C   C3        1.0  0.7965483099569185  0.20073185774595712  0.47613657631124795  1.0000
  C   C4        1.0  0.47337076426436636  0.29923290936901753  0.02380679434544673  1.0000
  C   C5        1.0  0.20946983655689888  0.6754862030610553  0.4964337475527715  1.0000
  C   C6        1.0  0.38149809367931203  0.8244784485126146  0.0036315795192578956  1.0000
  C   C7        1.0  0.7905294415883193  0.3245220280349487  0.5035567206440987  1.0000
  C   C8        1.0  0.6185062108317397  0.1755190511925591  0.9963721760047973  1.0000
  C   C9        1.0  0.29170241566026084  0.5036015162276684  0.5478331103231113  1.0000
  C   C10       1.0  0.3432515935426607  0.9963500192016568  0.9522291783129759  1.0000
  C   C11       1.0  0.7082914151981825  0.4964043301148138  0.45215745514911276  1.0000
  C   C12       1.0  0.6567522006447603  0.0036462881267596  0.04777241252899243  1.0000
  C   C13       1.0  0.17305653286294387  0.4363228500196357  0.6299304976140832  1.0000
  C   C14       1.0  0.23931175483487982  0.063656225616441  0.8700899860293987  1.0000
  C   C15       1.0  0.8269368325155994  0.5636877658298829  0.3700678868810741  1.0000
  C   C16       1.0  0.7606916056146177  0.9363376969584607  0.1299133814987173  1.0000
  C   C17       1.0  0.27761813761193116  0.7809423883150401  0.6095353733981027  1.0000
  C   C18       1.0  0.6679671801768235  0.7190556498078564  0.8905376426266826  1.0000
  C   C19       1.0  0.7223867514297594  0.2190515342598545  0.3904586570848991  1.0000
  C   C20       1.0  0.3320377537085974  0.280944234650832  0.1094663715613322  1.0000
  C   C21       1.0  0.13225670190527694  0.7056700283196378  0.40843024868844685  1.0000
  C   C22       1.0  0.246582309857807  0.7942993927610686  0.09159225913870017  1.0000
  C   C23       1.0  0.8677363805992543  0.2943382027763661  0.5915630686692879  1.0000
  C   C24       1.0  0.7534182292012731  0.2056992993208695  0.9084112438833927  1.0000
  O   O1        1.0  0.13801225105468265  0.5874494498684797  0.3836396963279327  1.0000
  O   O2        1.0  0.10941671772090443  0.912514009328433  0.1162561294193836  1.0000
  O   O3        1.0  0.8619778803568324  0.4125587812275242  0.6163565721228182  1.0000
  O   O4        1.0  0.890584352823126  0.0874811056232261  0.8837455100602652  1.0000
  O   O5        1.0  0.058433943273748006  0.8469392495079475  0.35820062689990806  1.0000
  O   O6        1.0  0.2638844930900888  0.6530719047592939  0.14187387954296332  1.0000
  O   O7        1.0  0.9415537579490518  0.1530677892112919  0.6417987432136698  1.0000
  O   O8        1.0  0.736114049518193  0.3469279796994016  0.8581309484558162  1.0000
  O   O9        1.0  0.2604725247183951  0.6838721888018924  0.6975285985899476  1.0000
  O   O10       1.0  0.6416239095917294  0.81619023766595  0.8025418853049259  1.0000
  O   O11       1.0  0.7395368674773268  0.3161145795124582  0.30246384209041116  1.0000
  O   O12       1.0  0.35837747563948597  0.1838060696624666  0.1974598835067027  1.0000
  O   O13       1.0  0.3595082735787189  0.8619524652711945  0.5897529338613623  1.0000
  O   O14       1.0  0.8111502088175655  0.6378846019893416  0.910248898058505  1.0000
  O   O15       1.0  0.6404943915625553  0.1380438420572219  0.4102453240536548  1.0000
  O   O16       1.0  0.1888572530748006  0.3621164748461113  0.0897530321417292  1.0000
  O   O17       1.0  0.20113933252546454  0.2931672887997507  0.6294994720234541  1.0000
  O   O18       1.0  0.12377528761393101  0.2067724384032985  0.8705934777835865  1.0000
  O   O19       1.0  0.7988631158180439  0.706833788035695  0.3705007787659866  1.0000
  O   O20       1.0  0.8762259679146921  0.7932190994180817  0.12941110662707433  1.0000
  O   O21       1.0  0.054933069510688805  0.5152033420855346  0.6975158975355242  1.0000
  O   O22       1.0  0.26753083776812064  0.9848972404385777  0.8024024981416957  1.0000
  O   O23       1.0  0.9450643653551506  0.4848036966337048  0.3024837783744799  1.0000
  O   O24       1.0  0.7324793370445873  0.0150954897595668  0.19759918847042005  1.0000
  O   O25       1.0  0.8990714545114857  0.8852288519691811  0.7143491865352944  1.0000
  O   O26       1.0  0.4988565648837952  0.6147978031959198  0.785464397273202  1.0000
  O   O27       1.0  0.10092953951802737  0.11477341724302902  0.2856496161074773  1.0000
  O   O28       1.0  0.5011420648908569  0.3851985041324966  0.21454235798153576  1.0000
  O   O29       1.0  0.047422478622330407  0.7675245726543523  0.9159379331549786  1.0000
  O   O30       1.0  0.7309160104867731  0.7325175834086082  0.5841055828754094  1.0000
  O   O31       1.0  0.952587381574382  0.2324729270508286  0.0840647286565073  1.0000
  O   O32       1.0  0.26907733358805774  0.2674858781803593  0.41589462078156464  1.0000
  O   O33       1.0  0.19504368314893114  0.4360068701786943  0.8803775005202966  1.0000
  O   O34       1.0  0.5113487953885424  0.06397339783413972  0.6195974493925007  1.0000
  O   O35       1.0  0.8049454723878567  0.5639989761637878  0.1196233177399505  1.0000
  O   O36       1.0  0.4886418249717082  0.9360229094942767  0.3804016983707967  1.0000
