data_image0
_chemical_formula_structural       H28Pb2C28N16O16
_chemical_formula_sum              "H28 Pb2 C28 N16 O16"
_cell_length_a       6.8681998412978675
_cell_length_b       9.21973446613264
_cell_length_c       13.527634554214771
_cell_angle_alpha    90.00102549377753
_cell_angle_beta     93.225504703408
_cell_angle_gamma    90.00278212273962

_space_group_name_H-M_alt    "P 1"
_space_group_IT_number       1

loop_
  _space_group_symop_operation_xyz
  'x, y, z'

loop_
  _atom_site_type_symbol
  _atom_site_label
  _atom_site_symmetry_multiplicity
  _atom_site_fract_x
  _atom_site_fract_y
  _atom_site_fract_z
  _atom_site_occupancy
  H   H1        1.0  0.1500214200874552  0.19171670763109463  0.261457218859185  1.0000
  H   H2        1.0  0.3499605284774319  0.6916813228411416  0.23853571662863254  1.0000
  H   H3        1.0  0.8499697509054798  0.8083013052152951  0.738527584881453  1.0000
  H   H4        1.0  0.6500264762618925  0.30831716684210875  0.7614681998356188  1.0000
  H   H5        1.0  0.9806416707721582  0.046844803527555705  0.25469720626729486  1.0000
  H   H6        1.0  0.5193561261397193  0.5468658119831531  0.2453130351395813  1.0000
  H   H7        1.0  0.0193158958056756  0.9531808010231729  0.7452808176217829  1.0000
  H   H8        1.0  0.4806589151348745  0.4531153245441288  0.7547219125115632  1.0000
  H   H9        1.0  0.4205437494591351  0.9724181735465648  0.7097360529211867  1.0000
  H   H10       1.0  0.07947447726584038  0.4724560702203038  0.7902547275682464  1.0000
  H   H11       1.0  0.5793918690595632  0.027560791419517696  0.2902347519282812  1.0000
  H   H12       1.0  0.9205691365012354  0.5275999055844454  0.20972625318866273  1.0000
  H   H13       1.0  0.2866592768719016  0.24631810215748123  0.40352389968370517  1.0000
  H   H14       1.0  0.21340223695754193  0.7463227724925262  0.09648432672690888  1.0000
  H   H15       1.0  0.7133320231158818  0.7537075032568554  0.5964727352486178  1.0000
  H   H16       1.0  0.7867134025205261  0.2537028357105413  0.9035509959044317  1.0000
  H   H17       1.0  0.29426073886148163  0.7100233035228316  0.7122831382208259  1.0000
  H   H18       1.0  0.20578807712132627  0.21009830042218886  0.7876822791539908  1.0000
  H   H19       1.0  0.7057810197074303  0.2899524091543243  0.2876615715318636  1.0000
  H   H20       1.0  0.794263021881143  0.7899804529848995  0.21231663636937267  1.0000
  H   H21       1.0  0.3109198089504304  0.29159782487436564  0.5920387412861814  1.0000
  H   H22       1.0  0.18911478432894308  0.7916293449497617  0.9080027174399486  1.0000
  H   H23       1.0  0.6891918222755037  0.708319320708732  0.4080304823680406  1.0000
  H   H24       1.0  0.8108606664088285  0.2083550444651507  0.09201125053308346  1.0000
  H   H25       1.0  0.4217396117711374  0.4408124485682593  0.5960294871848146  1.0000
  H   H26       1.0  0.0782635124731073  0.9408332929226191  0.9039701244254131  1.0000
  H   H27       1.0  0.5783164051804305  0.5591437424107824  0.4040198225567479  1.0000
  H   H28       1.0  0.9216677566862967  0.05918580329915814  0.09600278630455958  1.0000
  Pb  Pb1       1.0  0.0002152256451352973  0.4999776135363376  0.5000319656007333  1.0000
  Pb  Pb2       1.0  0.4997847944619237  0.9999980003785824  0.9999949080931427  1.0000
  C   C1        1.0  0.1482265122620987  0.890211517563657  0.40106487034014987  1.0000
  C   C2        1.0  0.3517043666756052  0.3902445850667534  0.09893067534432727  1.0000
  C   C3        1.0  0.8517424695253267  0.10976744781066838  0.5988905310295535  1.0000
  C   C4        1.0  0.6481866578637747  0.6097636648161711  0.9010951626440896  1.0000
  C   C5        1.0  0.2030890952371465  0.8677620324749427  0.5033735509592957  1.0000
  C   C6        1.0  0.2969410262065111  0.3678144264434025  0.9966007217625329  1.0000
  C   C7        1.0  0.7968842289705406  0.13221042516182285  0.4965790053195746  1.0000
  C   C8        1.0  0.7030955767499946  0.6322090106736199  0.0034059514824633956  1.0000
  C   C9        1.0  0.13451037821636902  0.07381291877714351  0.2696422907571686  1.0000
  C   C10       1.0  0.36549313057905414  0.5738039182786423  0.23036453156928619  1.0000
  C   C11       1.0  0.8654632129921608  0.9262040090136952  0.7303346675566329  1.0000
  C   C12       1.0  0.634550819249597  0.4261945725552181  0.7696475055228544  1.0000
  C   C13       1.0  0.28807611320362975  0.9802751732881775  0.5603131299141423  1.0000
  C   C14       1.0  0.21193101313279775  0.4803110195833185  0.9396818968114429  1.0000
  C   C15       1.0  0.7119074990274825  0.0196864383387378  0.43964708380884326  1.0000
  C   C16       1.0  0.7880809601749306  0.519714586528842  0.06033892651507949  1.0000
  C   C17       1.0  0.2678576515973816  0.138361699183946  0.4348392893909008  1.0000
  C   C18       1.0  0.23216358054384761  0.6383727400966137  0.0652005729206593  1.0000
  C   C19       1.0  0.7321598800074299  0.8616270292826728  0.5651565428270188  1.0000
  C   C20       1.0  0.7678137792885947  0.36161815767948724  0.9348548416623642  1.0000
  C   C21       1.0  0.2740973765574282  0.7809276069864381  0.6485997055164034  1.0000
  C   C22       1.0  0.2259388191876823  0.28097031443466863  0.851385480866426  1.0000
  C   C23       1.0  0.7258643218371006  0.2190491890018222  0.3513562473851976  1.0000
  C   C24       1.0  0.7741532235556505  0.7190910857941404  0.14862483901598716  1.0000
  C   C25       1.0  0.25135155392359826  0.0007772069775100001  0.19060768877533715  1.0000
  C   C26       1.0  0.2486020263439244  0.5007909544774236  0.30940507815430596  1.0000
  C   C27       1.0  0.7486615891966578  0.9992852762233541  0.8093865523281492  1.0000
  C   C28       1.0  0.7514607755432506  0.4991804208331701  0.6905978344851745  1.0000
  N   N1        1.0  0.31869960811636133  0.11776132680875409  0.52898518828178  1.0000
  N   N2        1.0  0.1813453107979726  0.6177855478369809  0.9710455222888822  1.0000
  N   N3        1.0  0.6812828438492389  0.8822089621967066  0.4710023474299021  1.0000
  N   N4        1.0  0.8186974302000819  0.38221294327654226  0.028989400054179288  1.0000
  N   N5        1.0  0.1914763067914151  0.03507449654154731  0.3716997686932756  1.0000
  N   N6        1.0  0.3085654906181574  0.5350910867666485  0.12830830210000949  1.0000
  N   N7        1.0  0.808514719363643  0.9649435161266595  0.6282717250166099  1.0000
  N   N8        1.0  0.6914828994397197  0.4649388584962253  0.8717097635213873  1.0000
  N   N9        1.0  0.19326305369573044  0.7442753171773618  0.5604135353144101  1.0000
  N   N10       1.0  0.3066790164790874  0.24429511122666275  0.9395835581721311  1.0000
  N   N11       1.0  0.8066476299412386  0.2557220858567462  0.4395433207768987  1.0000
  N   N12       1.0  0.6932441705092458  0.7557120547241283  0.06045050102598279  1.0000
  N   N13       1.0  0.3328413565110253  0.922907875013216  0.6522619057718727  1.0000
  N   N14       1.0  0.1671386823555423  0.42294073959905637  0.8477339332890492  1.0000
  N   N15       1.0  0.6670970978393173  0.07706349749874875  0.3477015797224395  1.0000
  N   N16       1.0  0.8328325475890779  0.5770783580802571  0.15229397166488917  1.0000
  O   O1        1.0  0.07225792631504652  0.8028532344146272  0.3407074908976213  1.0000
  O   O2        1.0  0.4276613499355051  0.30292647067197015  0.15928520046079336  1.0000
  O   O3        1.0  0.9276864823280775  0.19713332317381577  0.6592672367147185  1.0000
  O   O4        1.0  0.5722704107064017  0.6971121494925117  0.8407328166214183  1.0000
  O   O5        1.0  0.1669453626666808  0.9952988289793155  0.10452323586265777  1.0000
  O   O6        1.0  0.33309716576705733  0.49522840142351043  0.3954520872047951  1.0000
  O   O7        1.0  0.8330719616570548  0.0047484692465147  0.8954533711660843  1.0000
  O   O8        1.0  0.6669875413385354  0.5047104354368629  0.6045543466882036  1.0000
  O   O9        1.0  0.42278787168823573  0.953574863041503  0.21052223683179244  1.0000
  O   O10       1.0  0.0771749525341718  0.4535953017996805  0.289480827163004  1.0000
  O   O11       1.0  0.5771510971410408  0.0463813252848979  0.7894885731097927  1.0000
  O   O12       1.0  0.9228876830191836  0.5464563359183572  0.7105065576702074  1.0000
  O   O13       1.0  0.294356092978731  0.39538382569536173  0.6098613818727684  1.0000
  O   O14       1.0  0.20565588986340091  0.8954046357037626  0.8901549003986629  1.0000
  O   O15       1.0  0.7057189611377055  0.6045463346180284  0.390195810685249  1.0000
  O   O16       1.0  0.7942755308585704  0.10457432939844581  0.10983205952674517  1.0000
