data_image0
_chemical_formula_structural       Cd2H36C48N4O10
_chemical_formula_sum              "Cd2 H36 C48 N4 O10"
_cell_length_a       8.753322941537244
_cell_length_b       10.15731715654435
_cell_length_c       13.294230122202498
_cell_angle_alpha    112.53617043948105
_cell_angle_beta     89.02304757537567
_cell_angle_gamma    92.51147988212483

_space_group_name_H-M_alt    "P 1"
_space_group_IT_number       1

loop_
  _space_group_symop_operation_xyz
  'x, y, z'

loop_
  _atom_site_type_symbol
  _atom_site_label
  _atom_site_symmetry_multiplicity
  _atom_site_fract_x
  _atom_site_fract_y
  _atom_site_fract_z
  _atom_site_occupancy
  Cd  Cd1       1.0  0.4762448377552885  0.1853182636117054  0.326288431266434  1.0000
  Cd  Cd2       1.0  0.5237632340018975  0.8146894477746824  0.6737114013546446  1.0000
  H   H1        1.0  0.542632471241525  0.20241221694613637  0.550454500141747  1.0000
  H   H2        1.0  0.45736800322443116  0.797603159269201  0.4495423850984254  1.0000
  H   H3        1.0  0.5357943021669413  0.36208047014154954  0.551908296122619  1.0000
  H   H4        1.0  0.464193601516591  0.6379365711999866  0.4480927562154592  1.0000
  H   H5        1.0  0.8690739469196203  0.8670300323642837  0.22695102596622263  1.0000
  H   H6        1.0  0.1309090836326448  0.1329778737329264  0.7730443681955634  1.0000
  H   H7        1.0  0.4861996113716812  0.6362994720670868  0.29321243841936717  1.0000
  H   H8        1.0  0.5138115933651335  0.36370070925739356  0.7067850763236905  1.0000
  H   H9        1.0  0.9167395949977786  0.43632957125229405  0.20853010880551895  1.0000
  H   H10       1.0  0.08326342991870919  0.5636647695126484  0.7914631935299995  1.0000
  H   H11       1.0  0.112900619148391  0.8791550735714891  0.24444107491022757  1.0000
  H   H12       1.0  0.8870794012707321  0.12083968826126323  0.7555614721859103  1.0000
  H   H13       1.0  0.27324780855109043  0.15327119435446687  0.5189665167175904  1.0000
  H   H14       1.0  0.7267592194433091  0.8467128125813802  0.4810322245963904  1.0000
  H   H15       1.0  0.9383716551598407  0.17780829920101837  0.13225095730008013  1.0000
  H   H16       1.0  0.061634622525481596  0.8221835256406179  0.8677456072521041  1.0000
  H   H17       1.0  0.4598939774281304  0.6546982198580337  0.018672466103389178  1.0000
  H   H18       1.0  0.5401090369505608  0.3453202313532771  0.9813182245862112  1.0000
  H   H19       1.0  0.03682187408563209  0.14695479601484607  0.9492184444456698  1.0000
  H   H20       1.0  0.963195515730078  0.8530314933280466  0.05078149651948392  1.0000
  H   H21       1.0  0.0008874874054569988  0.16736774710975064  0.583149618386571  1.0000
  H   H22       1.0  0.9991177000324569  0.8326250029020412  0.41684638186955425  1.0000
  H   H23       1.0  0.49199984639962213  0.1364344587361686  0.06603996273340582  1.0000
  H   H24       1.0  0.5080060209598897  0.8635498039062951  0.9339603502498977  1.0000
  H   H25       1.0  0.3587785440891195  0.8811406379669929  0.1520949830646359  1.0000
  H   H26       1.0  0.6411988135707885  0.1188717231961505  0.8479089235257363  1.0000
  H   H27       1.0  0.7961324201022106  0.1907689959251684  0.4603870941996959  1.0000
  H   H28       1.0  0.20387862739241308  0.8092283982472138  0.5396121204541231  1.0000
  H   H29       1.0  0.06442308229727439  0.42381709623368374  0.07162573917477738  1.0000
  H   H30       1.0  0.9355749750574842  0.5761968034999114  0.9283746380136579  1.0000
  H   H31       1.0  0.31862404244215975  0.1143341550732657  0.9096831813426933  1.0000
  H   H32       1.0  0.6813876160927491  0.8856523744540608  0.09031834065520881  1.0000
  H   H33       1.0  0.3126062495781737  0.42538296296054057  0.9820327741770285  1.0000
  H   H34       1.0  0.6873848499919147  0.5746256397640082  0.01796046763337959  1.0000
  H   H35       1.0  0.8688524423868599  0.19053584681496719  0.2802943142618233  1.0000
  H   H36       1.0  0.13115638866611326  0.8094639168720547  0.7197069104568143  1.0000
  C   C1        1.0  0.8222326283202007  0.769377355574136  0.23336243749930227  1.0000
  C   C2        1.0  0.17774985113130978  0.23062164939683064  0.7666409770243946  1.0000
  C   C3        1.0  0.6706513427311122  0.7665706720356269  0.26739263753884773  1.0000
  C   C4        1.0  0.32932300479564697  0.23342854486306655  0.7326184219858762  1.0000
  C   C5        1.0  0.6962979141124279  0.5250862214695501  0.25571577183587385  1.0000
  C   C6        1.0  0.3036905466911718  0.4749207339884334  0.7442922958317055  1.0000
  C   C7        1.0  0.5773493779950414  0.8971227564972535  0.30508518035934173  1.0000
  C   C8        1.0  0.42265168803163516  0.1028837224723915  0.6949197229018865  1.0000
  C   C9        1.0  0.627078067437388  0.40266803430417747  0.2793694009331062  1.0000
  C   C10       1.0  0.3729431067683392  0.5973266076410014  0.7206314925637757  1.0000
  C   C11       1.0  0.6066768198236404  0.6420475392953264  0.2737372034492154  1.0000
  C   C12       1.0  0.39330924184217503  0.35795768009374734  0.726272786838152  1.0000
  C   C13       1.0  0.1118342141756159  0.174162405195176  0.30416676954157407  1.0000
  C   C14       1.0  0.8881696628657493  0.8258293913897461  0.6958358589788959  1.0000
  C   C15       1.0  0.8481930549276411  0.5286267815849969  0.22217695952598865  1.0000
  C   C16       1.0  0.15179986571936863  0.4713750454629632  0.7778247340192551  1.0000
  C   C17       1.0  0.9125049629855437  0.6496473659087698  0.20790678720950953  1.0000
  C   C18       1.0  0.08749951757064878  0.3503542608530949  0.7920872543121292  1.0000
  C   C19       1.0  0.1544538930869379  0.7792639851911004  0.18560570830840112  1.0000
  C   C20       1.0  0.8455266589533679  0.22074164516724443  0.8143945291027991  1.0000
  C   C21       1.0  0.06838355174545542  0.6511396906577716  0.16365047746735686  1.0000
  C   C22       1.0  0.931622159833097  0.3488623498610082  0.8363398564195635  1.0000
  C   C23       1.0  0.1634876628887696  0.16755509420861614  0.19519801696052505  1.0000
  C   C24       1.0  0.8365230970815816  0.8324363362788317  0.8048022435221043  1.0000
  C   C25       1.0  0.1801807144946465  0.16274716561468236  0.46908567703864185  1.0000
  C   C26       1.0  0.8198254943093629  0.8372422819512266  0.530908882130433  1.0000
  C   C27       1.0  0.0604606377008139  0.16664198170988698  0.11523010268371078  1.0000
  C   C28       1.0  0.9395398832497579  0.8333487648847464  0.8847662555454364  1.0000
  C   C29       1.0  0.3520397508607688  0.6536151454114715  0.0605506920282082  1.0000
  C   C30       1.0  0.6479399699901193  0.3463994709949104  0.9394544305993265  1.0000
  C   C31       1.0  0.11616019694685777  0.14908626997664948  0.012255703301526899  1.0000
  C   C32       1.0  0.8838472144132368  0.8509056885391147  0.9877416435740402  1.0000
  C   C33       1.0  0.028621726272710594  0.16976921708222648  0.5038288416848858  1.0000
  C   C34       1.0  0.9713789069865297  0.8302249656324108  0.49616973995468083  1.0000
  C   C35       1.0  0.36799123309820186  0.14193825926759726  0.0757932140152562  1.0000
  C   C36       1.0  0.6320172759898454  0.858054352096623  0.9242080538406373  1.0000
  C   C37       1.0  0.29418632731682237  0.7805907778481184  0.13404809280491037  1.0000
  C   C38       1.0  0.7057891163867964  0.2194330725518228  0.865963491389991  1.0000
  C   C39       1.0  0.9157596684680697  0.1813011735255898  0.43540259494794514  1.0000
  C   C40       1.0  0.08424451256481548  0.8186980349693014  0.5646015597637444  1.0000
  C   C41       1.0  0.13009051254714168  0.523967004135457  0.0914956647092069  1.0000
  C   C42       1.0  0.8698958396552711  0.47604076331418094  0.9085049970523471  1.0000
  C   C43       1.0  0.2723362496673757  0.1340350835631696  0.9906944369900901  1.0000
  C   C44       1.0  0.7276778604193908  0.8659541110837663  0.009304595751103739  1.0000
  C   C45       1.0  0.270048822432102  0.525021757443916  0.040458143135928985  1.0000
  C   C46       1.0  0.7299280140994994  0.47497789758786274  0.9595431471266525  1.0000
  C   C47       1.0  0.9572877462308965  0.182128306113988  0.33394360395939066  1.0000
  C   C48       1.0  0.042714029689825794  0.817865880481193  0.6660549753393142  1.0000
  N   N1        1.0  0.22057046352290396  0.1668320645897765  0.3726755836737539  1.0000
  N   N2        1.0  0.7794411530908149  0.8331516982810784  0.6273215789483332  1.0000
  N   N3        1.0  0.3149856868382272  0.15737048384647778  0.17461811110875664  1.0000
  N   N4        1.0  0.6850205369268635  0.8426221197566548  0.825383161428846  1.0000
  O   O1        1.0  0.4753659913785241  0.9100093621647289  0.37602061630104805  1.0000
  O   O2        1.0  0.5246343677664312  0.0900059935549891  0.6239823282256937  1.0000
  O   O3        1.0  0.6112437533737136  0.9892847132877449  0.2625419776016998  1.0000
  O   O4        1.0  0.38875021409334914  0.010715129745776205  0.7374600622122929  1.0000
  O   O5        1.0  0.5610339144477905  0.2631001169660578  0.5066527563113183  1.0000
  O   O6        1.0  0.4389619010113676  0.7369148338507256  0.493347843586136  1.0000
  O   O7        1.0  0.5174470558786622  0.43046116844540444  0.34909283922849  1.0000
  O   O8        1.0  0.4825609276128586  0.5695137431444548  0.6508941729183491  1.0000
  O   O9        1.0  0.6773298300723879  0.27835102865423517  0.23154982556832954  1.0000
  O   O10       1.0  0.3227134799883018  0.7216544052576805  0.768453988389709  1.0000
