data_image0
_chemical_formula_structural       Mn2H24C32N4Cl4O8
_chemical_formula_sum              "Mn2 H24 C32 N4 Cl4 O8"
_cell_length_a       7.400622634154254
_cell_length_b       11.264581851070352
_cell_length_c       11.263472559183072
_cell_angle_alpha    60.421773208221495
_cell_angle_beta     87.28934232751801
_cell_angle_gamma    87.29121640120592

_space_group_name_H-M_alt    "P 1"
_space_group_IT_number       1

loop_
  _space_group_symop_operation_xyz
  'x, y, z'

loop_
  _atom_site_type_symbol
  _atom_site_label
  _atom_site_symmetry_multiplicity
  _atom_site_fract_x
  _atom_site_fract_y
  _atom_site_fract_z
  _atom_site_occupancy
  Mn  Mn1       1.0  0.24999652768252642  0.6144360157301136  0.3855565366572902  1.0000
  Mn  Mn2       1.0  0.7500035913584996  0.3855722892149772  0.6144395985288966  1.0000
  H   H1        1.0  0.1037670984606365  0.41038440333301907  0.23408822087652936  1.0000
  H   H2        1.0  0.3962639047433996  0.7658933625435438  0.5896255699251041  1.0000
  H   H3        1.0  0.8962256770826256  0.5896065399488678  0.7659221250799177  1.0000
  H   H4        1.0  0.6037534058233687  0.23409460908638383  0.4103915980467221  1.0000
  H   H5        1.0  0.004481749554848589  0.5727880862449483  0.11959975935103971  1.0000
  H   H6        1.0  0.49554495460562714  0.8803649507779172  0.42720681993517196  1.0000
  H   H7        1.0  0.9955342098408124  0.42719573270344585  0.8804026499735041  1.0000
  H   H8        1.0  0.5044504963370642  0.1196291007316432  0.5728116537511311  1.0000
  H   H9        1.0  0.0323874949620233  0.8310152240122547  0.45674934476948426  1.0000
  H   H10       1.0  0.4675978005259863  0.5432727512641762  0.16896424923793754  1.0000
  H   H11       1.0  0.9675998893467224  0.16897156202207242  0.5432481635953792  1.0000
  H   H12       1.0  0.5324171684866741  0.45673454702917143  0.8310247572103576  1.0000
  H   H13       1.0  0.9308819320438104  0.07877493815666979  0.33480025587737566  1.0000
  H   H14       1.0  0.5691191010665122  0.6652374813499975  0.9211780566942164  1.0000
  H   H15       1.0  0.06910404530862017  0.9212159726749367  0.6652067955701492  1.0000
  H   H16       1.0  0.4308849557936938  0.33477286365777564  0.0788133743208873  1.0000
  H   H17       1.0  0.013309713117813296  0.22271589895267854  0.08774791497957314  1.0000
  H   H18       1.0  0.48669370849806626  0.9122592027511163  0.777239928316497  1.0000
  H   H19       1.0  0.9866816833617448  0.7772750303870878  0.9122598231945602  1.0000
  H   H20       1.0  0.5132944135164051  0.0877439489446843  0.22275564000344159  1.0000
  H   H21       1.0  0.1606754585624017  0.23739611203033212  0.8718816481077808  1.0000
  H   H22       1.0  0.33935753209788533  0.1280961750996283  0.762576151167785  1.0000
  H   H23       1.0  0.8393100428880516  0.7626049898337828  0.12811503118204115  1.0000
  H   H24       1.0  0.6606331347257635  0.8719110720864335  0.23741818063125192  1.0000
  C   C1        1.0  0.9173216968140565  0.48682275437511907  0.33236567540900785  1.0000
  C   C2        1.0  0.5827202535774276  0.6676153671823287  0.5132057826945482  1.0000
  C   C3        1.0  0.08268958487349207  0.5131794878709145  0.6676419542860614  1.0000
  C   C4        1.0  0.41730481829381455  0.33238182751147605  0.48680919282328006  1.0000
  C   C5        1.0  0.9779732822962542  0.47283969251274277  0.2082622636873948  1.0000
  C   C6        1.0  0.5220349571585031  0.7917256173997984  0.5271619141775616  1.0000
  C   C7        1.0  0.022030243203324997  0.5271512539124006  0.79174059717441  1.0000
  C   C8        1.0  0.4779711856452381  0.20827048968619272  0.47285072057265126  1.0000
  C   C9        1.0  0.0645339707858099  0.8972137794469647  0.3485472778401967  1.0000
  C   C10       1.0  0.43542947045169456  0.6515037440499614  0.102748405880689  1.0000
  C   C11       1.0  0.9354493771728088  0.10277507816564932  0.6514599987224301  1.0000
  C   C12       1.0  0.5645729782236089  0.34851168591924164  0.8972361171280452  1.0000
  C   C13       1.0  0.0090244745645336  0.03567006997161571  0.27992896993617217  1.0000
  C   C14       1.0  0.49097587575063534  0.7200683796010952  0.9642941606198289  1.0000
  C   C15       1.0  0.990966228981506  0.9643330418623463  0.7200540968526777  1.0000
  C   C16       1.0  0.5090234456327565  0.2799245740435411  0.03570163719880522  1.0000
  C   C17       1.0  0.0542043810652899  0.11498196574896723  0.14284682932166953  1.0000
  C   C18       1.0  0.4457675402392027  0.8571908491565311  0.8849683292020526  1.0000
  C   C19       1.0  0.9457788823086875  0.8850089341349161  0.8571594358351572  1.0000
  C   C20       1.0  0.5542144418220332  0.1428286052647252  0.11501403187097027  1.0000
  C   C21       1.0  0.15182901618932476  0.055565740369459604  0.07375676501378339  1.0000
  C   C22       1.0  0.34816417361318486  0.926235396508972  0.9443902765272081  1.0000
  C   C23       1.0  0.8481482517679595  0.9444384056075921  0.9262395817144047  1.0000
  C   C24       1.0  0.6518253553576087  0.07376363038954992  0.055595748710061295  1.0000
  C   C25       1.0  0.20101491602840574  0.9147057794765847  0.15152079283623696  1.0000
  C   C26       1.0  0.2989581143867354  0.8484817902298831  0.08527349736313257  1.0000
  C   C27       1.0  0.7989705538161617  0.0852973849826242  0.8484801901765094  1.0000
  C   C28       1.0  0.7010352468991387  0.1515244230571398  0.9147159254460036  1.0000
  C   C29       1.0  0.201801247236773  0.1301419416852951  0.9316270186414002  1.0000
  C   C30       1.0  0.29821841322635817  0.06833924780114131  0.8698326516157522  1.0000
  C   C31       1.0  0.7981790149422777  0.8698560985875975  0.06837580615923111  1.0000
  C   C32       1.0  0.7017656933574443  0.9316628714183962  0.1301635717532221  1.0000
  N   N1        1.0  0.1587192548302312  0.8387464625559601  0.28654255624006436  1.0000
  N   N2        1.0  0.3412724745869368  0.7134560177120691  0.16122856918910577  1.0000
  N   N3        1.0  0.8412869121528245  0.16124342964631216  0.7134500805031221  1.0000
  N   N4        1.0  0.6587405082465381  0.2865339137150898  0.8387691337725655  1.0000
  Cl  Cl1       1.0  0.8179075366402699  0.3917061315920592  0.15850527692977306  1.0000
  Cl  Cl2       1.0  0.6821234961682235  0.8414746441949674  0.6082981749399252  1.0000
  Cl  Cl3       1.0  0.18208641904817577  0.6082920108417369  0.8415138812913268  1.0000
  Cl  Cl4       1.0  0.317890617544954  0.15852454220458873  0.3917108722997468  1.0000
  O   O1        1.0  0.9807165374802906  0.587029958679736  0.33677097842731024  1.0000
  O   O2        1.0  0.5193111643322936  0.6632089404607768  0.4129653883908801  1.0000
  O   O3        1.0  0.01931937326844489  0.41299580424951904  0.6632143298395903  1.0000
  O   O4        1.0  0.48070289640212854  0.3367902256149549  0.5870383437200813  1.0000
  O   O5        1.0  0.8155772451657767  0.39695722303650177  0.4224402311035006  1.0000
  O   O6        1.0  0.6844360652814814  0.577567395305046  0.6030555668131966  1.0000
  O   O7        1.0  0.1844549113327858  0.6030655328913211  0.577564460713944  1.0000
  O   O8        1.0  0.3155817394700975  0.422438923286137  0.3969427043217663  1.0000
