data_image0
_chemical_formula_structural       Zn6H20C24N8O28
_chemical_formula_sum              "Zn6 H20 C24 N8 O28"
_cell_length_a       7.026128281179841
_cell_length_b       11.16551159101166
_cell_length_c       11.723680085952427
_cell_angle_alpha    89.99996033297819
_cell_angle_beta     103.9856661918945
_cell_angle_gamma    89.99985442272505

_space_group_name_H-M_alt    "P 1"
_space_group_IT_number       1

loop_
  _space_group_symop_operation_xyz
  'x, y, z'

loop_
  _atom_site_type_symbol
  _atom_site_label
  _atom_site_symmetry_multiplicity
  _atom_site_fract_x
  _atom_site_fract_y
  _atom_site_fract_z
  _atom_site_occupancy
  Zn  Zn1       1.0  2.747320053200713e-06  0.9999994952295596  0.9999989574971833  1.0000
  Zn  Zn2       1.0  0.5000003418847712  0.4999997978597647  0.4999990276942796  1.0000
  Zn  Zn3       1.0  0.2222280576116091  0.26061388356620097  0.17041418764275557  1.0000
  Zn  Zn4       1.0  0.2777696126346854  0.7606159495305322  0.3295868381546967  1.0000
  Zn  Zn5       1.0  0.7777711519260819  0.7393848165386314  0.8295862116833844  1.0000
  Zn  Zn6       1.0  0.722231058633021  0.23938633303256304  0.670415480288433  1.0000
  H   H1        1.0  0.6958020118413089  0.9311872836075568  0.34960636686988517  1.0000
  H   H2        1.0  0.8041986631083446  0.4311859974100046  0.15039950172681665  1.0000
  H   H3        1.0  0.30419718019422964  0.06881499895524712  0.6504000007327732  1.0000
  H   H4        1.0  0.19580494164266332  0.5688118070754485  0.8496032445129558  1.0000
  H   H5        1.0  0.036044194270431304  0.0223542373870629  0.786983044877843  1.0000
  H   H6        1.0  0.463958153522249  0.5223534048839297  0.7130159989629803  1.0000
  H   H7        1.0  0.9639550202614091  0.9776462539484356  0.21301564922455896  1.0000
  H   H8        1.0  0.5360395942771988  0.4776452952227571  0.28698248124377557  1.0000
  H   H9        1.0  0.2634057663793001  0.0173376877377933  0.8672647979130517  1.0000
  H   H10       1.0  0.2365966019537566  0.5173408574254594  0.632735105193305  1.0000
  H   H11       1.0  0.7365934481607681  0.9826592211375883  0.13273389619173054  1.0000
  H   H12       1.0  0.7634026125780835  0.4826596339100391  0.3672635889091039  1.0000
  H   H13       1.0  0.0216260113254876  0.19874311400388928  0.31272246875896303  1.0000
  H   H14       1.0  0.4783690172130477  0.6987449640729865  0.18727565351311878  1.0000
  H   H15       1.0  0.9783717389730954  0.8012555861031033  0.6872751588365276  1.0000
  H   H16       1.0  0.5216287255799088  0.3012573184932066  0.8127245319138081  1.0000
  H   H17       1.0  0.912972449622913  0.16028832413936567  0.18629184435170024  1.0000
  H   H18       1.0  0.5870236280201551  0.6602898093276863  0.3137050020236244  1.0000
  H   H19       1.0  0.0870267699113043  0.8397103759666891  0.8137051445293508  1.0000
  H   H20       1.0  0.4129741172760504  0.3397106820087501  0.6862943307932241  1.0000
  C   C1        1.0  0.4223270385576399  0.0325086411718729  0.1584099783513011  1.0000
  C   C2        1.0  0.07767167723022789  0.5325092254154241  0.3415922027520324  1.0000
  C   C3        1.0  0.577673632716234  0.9674909545461289  0.8415923400936122  1.0000
  C   C4        1.0  0.9223275323033491  0.4674912659194631  0.6584081965729212  1.0000
  C   C5        1.0  0.5087909542735218  0.08288418672560031  0.280681974770161  1.0000
  C   C6        1.0  0.9912083949859039  0.5828850975483205  0.21932137039271277  1.0000
  C   C7        1.0  0.49120825026590614  0.917114513378614  0.7193201297785164  1.0000
  C   C8        1.0  0.008796678994571  0.4171153937812874  0.7806807371308437  1.0000
  C   C9        1.0  0.4879309585821971  0.237127870861066  0.4147096603050855  1.0000
  C   C10       1.0  0.012069755556552798  0.7371242670579361  0.08529097184425179  1.0000
  C   C11       1.0  0.5120741203862522  0.7628770985443085  0.5852907419929494  1.0000
  C   C12       1.0  0.9879265255146169  0.26287085058987714  0.9147072944680514  1.0000
  C   C13       1.0  0.6957795480313679  0.07225122525455419  0.47708912486975663  1.0000
  C   C14       1.0  0.8042213168211703  0.5722507845125904  0.0229144483006891  1.0000
  C   C15       1.0  0.3042196490044944  0.9277501616938295  0.5229155375109542  1.0000
  C   C16       1.0  0.1957808236904057  0.4277479155894426  0.9770872314303887  1.0000
  C   C17       1.0  0.8307284743186188  0.010103457645712398  0.5812954732532845  1.0000
  C   C18       1.0  0.6692718612093459  0.5101038403503253  0.9187043899573978  1.0000
  C   C19       1.0  0.1692692659772632  0.9898979293051438  0.41870556478551174  1.0000
  C   C20       1.0  0.3307258840889205  0.4898957553710872  0.08129494286004049  1.0000
  C   C21       1.0  0.6425219623515446  0.0192120900129282  0.36636917543767566  1.0000
  C   C22       1.0  0.8574762102172786  0.5192123799724513  0.13363489293235636  1.0000
  C   C23       1.0  0.3574757729501812  0.9807875057072549  0.6336335678248516  1.0000
  C   C24       1.0  0.14252592779310896  0.48078721574430733  0.8663676394093969  1.0000
  N   N1        1.0  0.43689784455462194  0.1888032515456645  0.30350292812758534  1.0000
  N   N2        1.0  0.0631030891021354  0.6888048597014629  0.1964986207559036  1.0000
  N   N3        1.0  0.5631028292204476  0.8111954485576122  0.6964985377066526  1.0000
  N   N4        1.0  0.9368990613997923  0.3111965272468852  0.8034996485283018  1.0000
  N   N5        1.0  0.6243659156398778  0.17830373610821235  0.5005301705700376  1.0000
  N   N6        1.0  0.8756336420888006  0.6783037321253004  0.9994711746631709  1.0000
  N   N7        1.0  0.3756318271551322  0.8216976508429497  0.4994700148574864  1.0000
  N   N8        1.0  0.12436557244303971  0.321696759210198  0.0005275194392310966  1.0000
  O   O1        1.0  0.25784805781978554  0.08170044662983858  0.1055598499252568  1.0000
  O   O2        1.0  0.24215336792131842  0.5817034178604459  0.3944418410818002  1.0000
  O   O3        1.0  0.7421555594268839  0.9182973578571489  0.8944386332581543  1.0000
  O   O4        1.0  0.757844372372503  0.4182988647054415  0.6055591969563991  1.0000
  O   O5        1.0  0.5086183664069921  0.9506295268369344  0.1196147041340225  1.0000
  O   O6        1.0  0.9913836959466593  0.4506286719438819  0.38038794211445287  1.0000
  O   O7        1.0  0.4913823048627677  0.0493718601111226  0.880387614309704  1.0000
  O   O8        1.0  0.0086169828246128  0.5493709237750438  0.6196118184966508  1.0000
  O   O9        1.0  0.4041396471217952  0.3310609296329475  0.4363175025012395  1.0000
  O   O10       1.0  0.0958621096683814  0.8310589994664854  0.06368066106167448  1.0000
  O   O11       1.0  0.5958566414261952  0.6689431441660858  0.563678205971307  1.0000
  O   O12       1.0  0.9041415100794765  0.168937909405777  0.9363169695110612  1.0000
  O   O13       1.0  0.8695264859964951  0.071645578720883  0.6775505477631114  1.0000
  O   O14       1.0  0.6304779669874279  0.57164430163251  0.8224498754733245  1.0000
  O   O15       1.0  0.1304756520056571  0.9283575994559998  0.32245198457626145  1.0000
  O   O16       1.0  0.3695212475485262  0.42835439847293333  0.17754881863027086  1.0000
  O   O17       1.0  0.8883322700825005  0.9064089658903497  0.5682450108511218  1.0000
  O   O18       1.0  0.6116691780829271  0.40640778200532424  0.9317547542603817  1.0000
  O   O19       1.0  0.11166547020926032  0.09359421229056863  0.43175602718648065  1.0000
  O   O20       1.0  0.3883314956941959  0.5935900224829211  0.06824671157445289  1.0000
  O   O21       1.0  0.1272091971774643  0.9831403885274809  0.8570959052128799  1.0000
  O   O22       1.0  0.37279103351061577  0.4831425811396529  0.642902527166818  1.0000
  O   O23       1.0  0.8727914890973808  0.0168565203472753  0.1429012975661905  1.0000
  O   O24       1.0  0.6272081810212243  0.5168579101958458  0.35709616693558394  1.0000
  O   O25       1.0  0.978181570870362  0.23175923094408546  0.2314651527797408  1.0000
  O   O26       1.0  0.5218156426342588  0.7317608525606617  0.2685326652623345  1.0000
  O   O27       1.0  0.021817648663862602  0.7682394691619693  0.7685318361013103  1.0000
  O   O28       1.0  0.47818650536854085  0.2682405343873882  0.7314664566331358  1.0000
