data_image0
_chemical_formula_structural       Zn8H52C58S4O30
_chemical_formula_sum              "Zn8 H52 C58 S4 O30"
_cell_length_a       17.846782871440535
_cell_length_b       18.643269351663154
_cell_length_c       19.3047940348015
_cell_angle_alpha    118.84188087543515
_cell_angle_beta     115.92796963671732
_cell_angle_gamma    89.93043332372565

_space_group_name_H-M_alt    "P 1"
_space_group_IT_number       1

loop_
  _space_group_symop_operation_xyz
  'x, y, z'

loop_
  _atom_site_type_symbol
  _atom_site_label
  _atom_site_symmetry_multiplicity
  _atom_site_fract_x
  _atom_site_fract_y
  _atom_site_fract_z
  _atom_site_occupancy
  Zn  Zn1       1.0  0.8685868064286238  0.4574057960360919  0.9209534391709087  1.0000
  Zn  Zn2       1.0  0.034692919791631  0.44757038718195474  0.0665358741556403  1.0000
  Zn  Zn3       1.0  0.030374381564847407  0.6189088687840681  0.06337811375441052  1.0000
  Zn  Zn4       1.0  0.04769684943835273  0.45672111894896983  0.9100083706043238  1.0000
  Zn  Zn5       1.0  0.6223718946295802  0.02985121132602591  0.06646395060504771  1.0000
  Zn  Zn6       1.0  0.4582053968736163  0.8710867698663877  0.9131206190562725  1.0000
  Zn  Zn7       1.0  0.4636515288715017  0.042157074383148106  0.9140839166822802  1.0000
  Zn  Zn8       1.0  0.439320552154534  0.03477069178918411  0.06612940709769792  1.0000
  H   H1        1.0  0.7900599911360473  0.17289173787843032  0.3602804696991627  1.0000
  H   H2        1.0  0.3194272930852478  0.6932903129056812  0.6109167938765838  1.0000
  H   H3        1.0  0.7838357091680307  0.6806708000317699  0.8778862916648225  1.0000
  H   H4        1.0  0.8696055144530348  0.766058329097838  0.9818450945745385  1.0000
  H   H5        1.0  0.7803614713659429  0.8572434535073371  0.9780553780567306  1.0000
  H   H6        1.0  0.694751366213822  0.771203067090106  0.87457601673799  1.0000
  H   H7        1.0  0.8012542138783018  0.8906415651397737  0.12837292967569885  1.0000
  H   H8        1.0  0.7296771235394743  0.8308444551549528  0.13372265030869815  1.0000
  H   H9        1.0  0.8891534351716429  0.7978029914224224  0.13300000839083742  1.0000
  H   H10       1.0  0.8152923214462574  0.7369417277921428  0.13474733430297903  1.0000
  H   H11       1.0  0.6797860013237766  0.5914236013036459  0.881028201167048  1.0000
  H   H12       1.0  0.6930418785039621  0.6135004544902857  0.9857969248725029  1.0000
  H   H13       1.0  0.6051552211876512  0.7061786743747691  0.9849804659568095  1.0000
  H   H14       1.0  0.5908361733046661  0.6829469643418451  0.8795892025470028  1.0000
  H   H15       1.0  0.09342871142121817  0.18537410323693132  0.8727960521109568  1.0000
  H   H16       1.0  0.11223809357046129  0.21246721874871352  0.9815761536380239  1.0000
  H   H17       1.0  0.20059869495870694  0.1200350961722664  0.9822166578082662  1.0000
  H   H18       1.0  0.18161798935060605  0.09385203743708098  0.8736477347340144  1.0000
  H   H19       1.0  0.32426427861135204  0.2419105007798024  0.12485649704365193  1.0000
  H   H20       1.0  0.39503603241504237  0.3022339767651944  0.11907838813711893  1.0000
  H   H21       1.0  0.23729823756112006  0.33580074635953144  0.12442978525950821  1.0000
  H   H22       1.0  0.30748338114906193  0.39428010579361944  0.11645600596897054  1.0000
  H   H23       1.0  0.19241411261928937  0.27048224609573884  0.8608442800607821  1.0000
  H   H24       1.0  0.279381040713382  0.3565761568894816  0.9599844718792457  1.0000
  H   H25       1.0  0.36889806690469135  0.26559423983683694  0.9631637836779564  1.0000
  H   H26       1.0  0.28253483058686857  0.1799066135162305  0.8631777304754635  1.0000
  H   H27       1.0  0.82460347910191  0.19363186311355213  0.9139361226656251  1.0000
  H   H28       1.0  0.7329250386390669  0.2227574738662454  0.8587455583348246  1.0000
  H   H29       1.0  0.6454874148979357  0.12671753306084807  0.8554129592992794  1.0000
  H   H30       1.0  0.7378442448783742  0.09908614150936763  0.9119024769078692  1.0000
  H   H31       1.0  0.598138505360474  0.24757874441619518  0.9462746672744304  1.0000
  H   H32       1.0  0.6555243038869277  0.3045040358988589  0.06669573195190993  1.0000
  H   H33       1.0  0.6870227082517673  0.343952258427052  0.9508997593703798  1.0000
  H   H34       1.0  0.7445483906498112  0.39947271312208704  0.0712166369564002  1.0000
  H   H35       1.0  0.9086088291502962  0.27405125982357964  0.08729417248220273  1.0000
  H   H36       1.0  0.8765076268997446  0.35859697281679814  0.15171331648853237  1.0000
  H   H37       1.0  0.7872682068464127  0.2641414114190397  0.1484397229252536  1.0000
  H   H38       1.0  0.820329709733045  0.17980831602526592  0.08509269896332942  1.0000
  H   H39       1.0  0.08890995100195209  0.7187780685072839  0.9025499363887877  1.0000
  H   H40       1.0  0.1250935159590228  0.6352255673369741  0.8409405969635559  1.0000
  H   H41       1.0  0.21266118152281874  0.7323325473953944  0.8457828494840173  1.0000
  H   H42       1.0  0.17776752226399853  0.8157630348237889  0.9094032281064702  1.0000
  H   H43       1.0  0.3429270383908118  0.6915771966128262  0.9274379084049119  1.0000
  H   H44       1.0  0.40022997445604586  0.747229214290094  0.04771720779540091  1.0000
  H   H45       1.0  0.25387463992535686  0.5958365943529741  0.9233597045464279  1.0000
  H   H46       1.0  0.31153834553208526  0.6522779305969523  0.04363032874172031  1.0000
  H   H47       1.0  0.17104471925967601  0.8016865827821889  0.07584515555370072  1.0000
  H   H48       1.0  0.2612348141382697  0.7745440028052643  0.13438023759713502  1.0000
  H   H49       1.0  0.3518170734829411  0.8687675020750875  0.13874892921089102  1.0000
  H   H50       1.0  0.2616108740534457  0.8973715840312766  0.08216985960304875  1.0000
  H   H51       1.0  0.6210289361860929  0.2156772276041822  0.5757108163441844  1.0000
  H   H52       1.0  0.28669151946352395  0.868398780863032  0.41974169512753434  1.0000
  C   C1        1.0  0.8579614934795927  0.3628457908061762  0.0034247867009539992  1.0000
  C   C2        1.0  0.11901355626782364  0.6193599173713196  0.2333844079829107  1.0000
  C   C3        1.0  0.853250416170816  0.634006957349449  0.9991831869574457  1.0000
  C   C4        1.0  0.13585076627150977  0.629665893050209  0.98281717598384  1.0000
  C   C5        1.0  0.8721685755180957  0.37349360798058484  0.7472642855429827  1.0000
  C   C6        1.0  0.1384519062971635  0.3565059416064786  0.9858832656901416  1.0000
  C   C7        1.0  0.637378069419512  0.8553042444418966  0.993718251561724  1.0000
  C   C8        1.0  0.3802185272850167  0.8722013090710022  0.7441892788766253  1.0000
  C   C9        1.0  0.6426697250257547  0.13472473594635667  0.9966980377080435  1.0000
  C   C10       1.0  0.35486426516448694  0.13437320327233965  0.9886695458762634  1.0000
  C   C11       1.0  0.6096636584230525  0.11767997948784632  0.23553542713299447  1.0000
  C   C12       1.0  0.3527612862770368  0.8578286713999645  0.990519438085464  1.0000
  C   C13       1.0  0.73008622459664  0.30532195897802694  0.593738635548654  1.0000
  C   C14       1.0  0.7481024658954708  0.1920152577038294  0.3895374348758267  1.0000
  C   C15       1.0  0.8195512100453614  0.32691318774697464  0.6468980566039806  1.0000
  C   C16       1.0  0.6591841464933523  0.16945333761430698  0.3360994973324551  1.0000
  C   C17       1.0  0.7739756658054658  0.24118447748574576  0.4830952529991778  1.0000
  C   C18       1.0  0.7039800465935926  0.25541564248396753  0.4995440029141634  1.0000
  C   C19       1.0  0.19143270073897162  0.7581949660272685  0.3919534413105482  1.0000
  C   C20       1.0  0.30264428872850146  0.7356756101500254  0.5861468711739379  1.0000
  C   C21       1.0  0.16670134953480437  0.6703737620565919  0.333850746541728  1.0000
  C   C22       1.0  0.32844735960831173  0.8230297864993902  0.6440436588479203  1.0000
  C   C23       1.0  0.2534277350805141  0.7119032705413845  0.4943243538716119  1.0000
  C   C24       1.0  0.24217446979250207  0.7819270204586176  0.484117252677848  1.0000
  C   C25       1.0  0.8016745408368351  0.7318854026336865  0.9475733362797102  1.0000
  C   C26       1.0  0.7424008812241495  0.7925158191523565  0.9453914369553902  1.0000
  C   C27       1.0  0.6943538416861443  0.7947888520995647  0.9963064778848435  1.0000
  C   C28       1.0  0.7627130960678841  0.8262447283353895  0.0957273697303478  1.0000
  C   C29       1.0  0.8207849310794302  0.7645706588905768  0.09752232117595135  1.0000
  C   C30       1.0  0.7934848354492061  0.6921849475216959  0.9992331821041776  1.0000
  C   C31       1.0  0.6988264181717839  0.6433757402996393  0.9506317042965124  1.0000
  C   C32       1.0  0.6402498527064749  0.7043989661659041  0.9496913927219169  1.0000
  C   C33       1.0  0.14435445081353043  0.2083457331132195  0.9430075425770996  1.0000
  C   C34       1.0  0.20319091412749665  0.147103337779214  0.9435927810915248  1.0000
  C   C35       1.0  0.2978175128603127  0.1952493214212438  0.9874920688581525  1.0000
  C   C36       1.0  0.32707124362403306  0.2686208040092097  0.08602399470022702  1.0000
  C   C37       1.0  0.2688171071584549  0.3301338027650901  0.0850046104753801  1.0000
  C   C38       1.0  0.1986582132981596  0.2984043757697775  0.9860879664466468  1.0000
  C   C39       1.0  0.24224319677951917  0.2926519776699622  0.931065271662604  1.0000
  C   C40       1.0  0.3015691369264245  0.2322025170269199  0.9326596428930217  1.0000
  C   C41       1.0  0.7685785113044546  0.21610761110458312  0.9173993023028688  1.0000
  C   C42       1.0  0.7104163551533348  0.15284438239611128  0.9155043720331054  1.0000
  C   C43       1.0  0.7024581162846387  0.1981374245988832  0.0025661903903895006  1.0000
  C   C44       1.0  0.6631347247913552  0.2728669511556134  0.006008711970856999  1.0000
  C   C45       1.0  0.7221107815918016  0.3362679483117646  0.0087836778987835  1.0000
  C   C46       1.0  0.8012708516719157  0.30457633455227295  0.006323500672856101  1.0000
  C   C47       1.0  0.8517472986876414  0.2956518640606802  0.08854256673618723  1.0000
  C   C48       1.0  0.7929568921353862  0.23296783082718525  0.08663381798245243  1.0000
  C   C49       1.0  0.14689834437476898  0.6983014008088162  0.9032520484073958  1.0000
  C   C50       1.0  0.20581170407662341  0.7625500662835947  0.9068248810421125  1.0000
  C   C51       1.0  0.2966593410156051  0.7979657773750831  0.9923410227950387  1.0000
  C   C52       1.0  0.3351533772431026  0.7225602297532633  0.987837348723808  1.0000
  C   C53       1.0  0.2760568127743142  0.6592620007489246  0.9851295279137917  1.0000
  C   C54       1.0  0.19699290599538702  0.6910540685100415  0.9874707995649461  1.0000
  C   C55       1.0  0.22767998549664267  0.7797484766267929  0.07442643840710872  1.0000
  C   C56       1.0  0.28743320721590476  0.8428118116946807  0.0778165859415978  1.0000
  C   C57       1.0  0.6684790499804832  0.33427090628332223  0.628696927697071  1.0000
  C   C58       1.0  0.1647372485180796  0.8208320427757059  0.3644945656386653  1.0000
  S   S1        1.0  0.8713752303857447  0.28876306157565773  0.5834274096907208  1.0000
  S   S2        1.0  0.606275260329774  0.20832454698110334  0.3987265405776128  1.0000
  S   S3        1.0  0.20247705407857808  0.6172568885913492  0.3903465560900515  1.0000
  S   S4        1.0  0.29257303087429426  0.877055204663968  0.5882462389716709  1.0000
  O   O1        1.0  0.9957125380750965  0.4941112787652174  0.988757173748816  1.0000
  O   O2        1.0  0.8194553464395539  0.3885211967005374  0.9497820939150401  1.0000
  O   O3        1.0  0.0948104876691218  0.5392221317310304  0.1968712249202511  1.0000
  O   O4        1.0  0.9341449843564362  0.6701138892991951  0.052287688643986016  1.0000
  O   O5        1.0  0.9395647439628475  0.37938440078579566  0.05233395988998522  1.0000
  O   O6        1.0  0.8187616295499325  0.5541974848090021  0.9449503333073397  1.0000
  O   O7        1.0  0.10789018043450938  0.6591035245142934  0.19300466983532524  1.0000
  O   O8        1.0  0.09801395678705659  0.6630022081797338  0.02882834694793251  1.0000
  O   O9        1.0  0.9538716083565999  0.39658029966646785  0.780978397501457  1.0000
  O   O10       1.0  0.12523120372165414  0.5500173153620836  0.9322177573740549  1.0000
  O   O11       1.0  0.8311480706412196  0.38479224199273443  0.7899553068646697  1.0000
  O   O12       1.0  0.1125243303505172  0.37736104122129893  0.04343847367739071  1.0000
  O   O13       1.0  0.11737882215811628  0.37874096804643664  0.9283337395902155  1.0000
  O   O14       1.0  0.49583456457693126  0.995352124034042  0.9915772030844893  1.0000
  O   O15       1.0  0.6751927074727248  0.9347717591352803  0.04379654612418452  1.0000
  O   O16       1.0  0.4029146436395549  0.8299931591948351  0.7823918274137898  1.0000
  O   O17       1.0  0.5635737480615435  0.10915099519869631  0.9342258943228502  1.0000
  O   O18       1.0  0.5561157564797482  0.8223538261093851  0.941026893183974  1.0000
  O   O19       1.0  0.6753610139116475  0.11118268995898013  0.05312810468043951  1.0000
  O   O20       1.0  0.3972479804001027  0.9530157962831751  0.7832327985382082  1.0000
  O   O21       1.0  0.388892122471468  0.11617263172980327  0.9384113061595729  1.0000
  O   O22       1.0  0.5274446586839546  0.10398276240106702  0.19778341825229265  1.0000
  O   O23       1.0  0.36406075009288225  0.10595510955483431  0.039612831753558515  1.0000
  O   O24       1.0  0.6544216698295955  0.09157022594013141  0.19617683265704505  1.0000
  O   O25       1.0  0.37381874982435187  0.8231069159705484  0.9286880689914767  1.0000
  O   O26       1.0  0.3734151373683119  0.9372798598245284  0.04890721114082911  1.0000
  O   O27       1.0  0.6084308010155938  0.26975269781861055  0.6061662219111458  1.0000
  O   O28       1.0  0.6665160601509825  0.40738277995468763  0.6690225038941834  1.0000
  O   O29       1.0  0.23237331847127515  0.8814333229664015  0.3920478909179225  1.0000
  O   O30       1.0  0.09088479420760359  0.8230618568299874  0.3260546595034626  1.0000
