data_image0
_chemical_formula_structural       Zn6H30C54O24
_chemical_formula_sum              "Zn6 H30 C54 O24"
_cell_length_a       18.565178589349017
_cell_length_b       18.61406989263598
_cell_length_c       18.72274330727097
_cell_angle_alpha    109.68486521415113
_cell_angle_beta     109.40414849685644
_cell_angle_gamma    109.19848858230444

_space_group_name_H-M_alt    "P 1"
_space_group_IT_number       1

loop_
  _space_group_symop_operation_xyz
  'x, y, z'

loop_
  _atom_site_type_symbol
  _atom_site_label
  _atom_site_symmetry_multiplicity
  _atom_site_fract_x
  _atom_site_fract_y
  _atom_site_fract_z
  _atom_site_occupancy
  Zn  Zn1       1.0  0.06297824480747488  0.06539435163562499  0.49995654566030356  1.0000
  Zn  Zn2       1.0  0.9437545579152696  0.9334953585527114  0.4980320184248722  1.0000
  Zn  Zn3       1.0  0.4996503943162125  0.9308198619123187  0.9402529695437135  1.0000
  Zn  Zn4       1.0  0.4945646488609654  0.05885645109499649  0.057693700216397255  1.0000
  Zn  Zn5       1.0  0.06321481795941249  0.5041402026589877  0.06404426503970473  1.0000
  Zn  Zn6       1.0  0.9344697455046144  0.49631685121914854  0.9351964372379055  1.0000
  H   H1        1.0  0.8413922042184796  0.9397439493832064  0.23829424152128095  1.0000
  H   H2        1.0  0.1806497271927654  0.9157993301064946  0.37526542154278514  1.0000
  H   H3        1.0  0.21716424050268282  0.9038222449552078  0.014069832043183563  1.0000
  H   H4        1.0  0.0877089958731432  0.7723701595542636  0.9819251891661834  1.0000
  H   H5        1.0  0.2354331732908363  0.6361800951504147  0.9890160429697017  1.0000
  H   H6        1.0  0.3588828020746321  0.7616287380108914  0.006863758378884166  1.0000
  H   H7        1.0  0.7519257623070461  0.2891282386624141  0.14690697065486094  1.0000
  H   H8        1.0  0.864982508416567  0.3969666323143385  0.13567137250847583  1.0000
  H   H9        1.0  0.7184165185925481  0.23386928244309496  0.855178679778227  1.0000
  H   H10       1.0  0.6146897135354976  0.11884771244199745  0.8679281879070401  1.0000
  H   H11       1.0  0.6325961566026592  0.0376584623677232  0.4618471800892081  1.0000
  H   H12       1.0  0.0999638348644112  0.30928245301276996  0.689327285213153  1.0000
  H   H13       1.0  0.5109392377400397  0.005006021291123399  0.3258113768561017  1.0000
  H   H14       1.0  0.523664735618901  0.9715947061212373  0.1930297570877568  1.0000
  H   H15       1.0  0.7292194726664505  0.9281819624765003  0.1094325273709201  1.0000
  H   H16       1.0  0.9667781406520034  0.10301425233535609  0.730449996274636  1.0000
  H   H17       1.0  0.09516243887878055  0.41642641244122547  0.8091833977147896  1.0000
  H   H18       1.0  0.7689491574564399  0.06976900070566217  0.5432653904914346  1.0000
  H   H19       1.0  0.7782311932639345  0.9759793554897411  0.4934160518183359  1.0000
  H   H20       1.0  0.8456181186236479  0.07698550802481918  0.5060906418619169  1.0000
  H   H21       1.0  0.9020710785657897  0.21615546497988444  0.8646803182162229  1.0000
  H   H22       1.0  0.9287559658530213  0.13064792503040926  0.8423332621046808  1.0000
  H   H23       1.0  0.1042131253293803  0.8179344692753785  0.6025473812426723  1.0000
  H   H24       1.0  0.004434091968164487  0.23566373572598553  0.9384870996525265  1.0000
  H   H25       1.0  0.2308078705605822  0.8170304710552043  0.7063025895506595  1.0000
  H   H26       1.0  0.37179080364612094  0.09987538482619839  0.8475522155095092  1.0000
  H   H27       1.0  0.2517136564917521  0.10019557757459546  0.7355172992432131  1.0000
  H   H28       1.0  0.8976469166234152  0.773675376881435  0.24301269598853975  1.0000
  H   H29       1.0  0.8956990769997901  0.6478772175612163  0.13521850884372807  1.0000
  H   H30       1.0  0.17861905817006363  0.7839069375706769  0.2760661371615497  1.0000
  C   C1        1.0  0.02996541814105309  0.13369069241671375  0.627796676584964  1.0000
  C   C2        1.0  0.06901010837264468  0.3478455566447706  0.7929721449358808  1.0000
  C   C3        1.0  0.0711904122488463  0.2883832226653097  0.7257521370443312  1.0000
  C   C4        1.0  0.8569042412851078  0.9747823222405854  0.3884201287029113  1.0000
  C   C5        1.0  0.033468810496998465  0.19975936548324563  0.7029995334384934  1.0000
  C   C6        1.0  0.16407791787602108  0.8791875746459537  0.6550929305001885  1.0000
  C   C7        1.0  0.23413416872809015  0.8787146190352855  0.7130785926994673  1.0000
  C   C8        1.0  0.3084268463219784  0.9584652852138543  0.7828517516085395  1.0000
  C   C9        1.0  0.314193055941594  0.038480312767283885  0.7920670040965729  1.0000
  C   C10       1.0  0.2470902621655995  0.03876144423831819  0.7309484236271686  1.0000
  C   C11       1.0  0.17084156738675915  0.959140002746288  0.6634324006071634  1.0000
  C   C12       1.0  0.7146024961035663  0.9846306779211742  0.3253662301543441  1.0000
  C   C13       1.0  0.9586579108862382  0.7763194040163481  0.2477738751275992  1.0000
  C   C14       1.0  0.957585124890855  0.7059945407227487  0.1892012188067652  1.0000
  C   C15       1.0  0.037034005151937686  0.7080757809847211  0.20079289880650447  1.0000
  C   C16       1.0  0.03564705645785437  0.9211688362435027  0.3805804160225036  1.0000
  C   C17       1.0  0.11745616455187476  0.7831626819867094  0.26812048496206825  1.0000
  C   C18       1.0  0.11854547255121152  0.8563959062903022  0.32349532703538825  1.0000
  C   C19       1.0  0.039088731486124594  0.8519195053270109  0.31492132276051166  1.0000
  C   C20       1.0  0.3702713064486999  0.9107360231384615  0.019981007230199813  1.0000
  C   C21       1.0  0.6009098924905699  0.9638784444728966  0.09923320159187882  1.0000
  C   C22       1.0  0.613092517780089  0.13003656957829424  0.014433556030041936  1.0000
  C   C23       1.0  0.7838770573750153  0.9705457577585576  0.3181160932972133  1.0000
  C   C24       1.0  0.3801970741674197  0.9617728215084325  0.8525794583204556  1.0000
  C   C25       1.0  0.08301788089395502  0.6198034915769242  0.9723825450064324  1.0000
  C   C26       1.0  0.026183507843342065  0.3852900389638022  0.9074283453841046  1.0000
  C   C27       1.0  0.8648095585033105  0.38704734525975226  0.9886764935188237  1.0000
  C   C28       1.0  0.09900157998288242  0.9627499983625254  0.6013678384914697  1.0000
  C   C29       1.0  0.03216676855237914  0.6294955167740852  0.1379618627767413  1.0000
  C   C30       1.0  0.21984869289884287  0.8442292010884668  0.006549147630756955  1.0000
  C   C31       1.0  0.1479375170797113  0.7712118357565669  0.9890007797379068  1.0000
  C   C32       1.0  0.15392396927325072  0.6964694529410306  0.9826932167983314  1.0000
  C   C33       1.0  0.23110055592957215  0.6939721896833574  0.9919409205304816  1.0000
  C   C34       1.0  0.7874452637481965  0.949511956577325  0.24130483397274102  1.0000
  C   C35       1.0  0.30010658218049  0.7640679060947873  0.003542690218758008  1.0000
  C   C36       1.0  0.2952230651244746  0.83991045749719  0.011880087379608944  1.0000
  C   C37       1.0  0.7462824767854599  0.27685065148590127  0.08357941499640725  1.0000
  C   C38       1.0  0.8083394120485609  0.3372117027353951  0.07714503531530444  1.0000
  C   C39       1.0  0.797725927535147  0.321954780801242  0.9947091525553018  1.0000
  C   C40       1.0  0.7090270734250197  0.010918799110200397  0.4041448261779195  1.0000
  C   C41       1.0  0.7263465789701584  0.2445603238278977  0.918900930117587  1.0000
  C   C42       1.0  0.6680768084872  0.18122480803236124  0.9259150292456437  1.0000
  C   C43       1.0  0.6770292777793969  0.19781193894826998  0.008095936258229136  1.0000
  C   C44       1.0  0.6362613202293091  0.017776897125436595  0.4017770574702269  1.0000
  C   C45       1.0  0.7242630228607752  0.9424827997830505  0.16852460613222311  1.0000
  C   C46       1.0  0.568019368627695  0.0007105633854890999  0.3253388004962971  1.0000
  C   C47       1.0  0.5747020893938384  0.9813121016671216  0.2509497084905304  1.0000
  C   C48       1.0  0.6483049266016251  0.9749452230349145  0.24914639919025172  1.0000
  C   C49       1.0  0.7790955004710727  0.03427136050044059  0.49082579099992063  1.0000
  C   C50       1.0  0.9557443685168749  0.20165698900476056  0.868668869437407  1.0000
  C   C51       1.0  0.6571034826715375  0.9574114591820615  0.1725869924158016  1.0000
  C   C52       1.0  0.9963257400996853  0.17242266900498746  0.749667399885041  1.0000
  C   C53       1.0  0.9960538203057753  0.231677219192889  0.8191981012883287  1.0000
  C   C54       1.0  0.03221643024829747  0.32008779220647193  0.8395489679420931  1.0000
  O   O1        1.0  0.0775435149479051  0.16287337778966557  0.5963096387344747  1.0000
  O   O2        1.0  0.0015831236796301237  0.5935436140684016  0.9227654915672969  1.0000
  O   O3        1.0  0.07638889516918101  0.41282983461867656  0.9884581765362553  1.0000
  O   O4        1.0  0.9796951086757134  0.05276486066163949  0.59871168678319  1.0000
  O   O5        1.0  0.9709042745823027  0.40838207172384955  0.8785327754807991  1.0000
  O   O6        1.0  0.9448883954376514  0.4194851025353186  0.044321801795000136  1.0000
  O   O7        1.0  0.836967877191306  0.40506596535029604  0.9277742639804669  1.0000
  O   O8        1.0  0.09093383085638605  0.6081172419351047  0.16553119438376726  1.0000
  O   O9        1.0  0.9686019624416248  0.5877461867129907  0.06002340737283147  1.0000
  O   O10       1.0  0.9346307556846227  0.03277027757540909  0.4165618978854154  1.0000
  O   O11       1.0  0.8366176396655048  0.9165796197794832  0.4115943088811489  1.0000
  O   O12       1.0  0.3953806051520559  0.9922452007778231  0.06828501767057549  1.0000
  O   O13       1.0  0.08940359196613912  0.0032274900854644996  0.4134434634765611  1.0000
  O   O14       1.0  0.9776039939891419  0.8928568969235113  0.4007135260099161  1.0000
  O   O15       1.0  0.12174526234704083  0.02417883401688669  0.5841649215470426  1.0000
  O   O16       1.0  0.01870859991049652  0.9044524649821849  0.5700311387874987  1.0000
  O   O17       1.0  0.4059396789150184  0.8845405631514961  0.9774783551862494  1.0000
  O   O18       1.0  0.5794291701276677  0.9113712993280385  0.020465841117896642  1.0000
  O   O19       1.0  0.5802076932698911  0.023543416991721192  0.11907533856710723  1.0000
  O   O20       1.0  0.5874983497565156  0.05017736947513639  0.9641480111900406  1.0000
  O   O21       1.0  0.588391045670548  0.15759225874003843  0.06979036077121492  1.0000
  O   O22       1.0  0.4046254875786274  0.9042287662288613  0.8316343404510104  1.0000
  O   O23       1.0  0.4126868654391487  0.023153048968396192  0.9298354555931636  1.0000
  O   O24       1.0  0.10911336699155776  0.5842843905905183  0.014925570943262193  1.0000
