data_image0
_chemical_formula_structural       Mn12H40C32O48
_chemical_formula_sum              "Mn12 H40 C32 O48"
_cell_length_a       10.977715803029307
_cell_length_b       11.715210252075062
_cell_length_c       15.8366008974317
_cell_angle_alpha    91.08126966550422
_cell_angle_beta     90.0163139718823
_cell_angle_gamma    89.97865244149384

_space_group_name_H-M_alt    "P 1"
_space_group_IT_number       1

loop_
  _space_group_symop_operation_xyz
  'x, y, z'

loop_
  _atom_site_type_symbol
  _atom_site_label
  _atom_site_symmetry_multiplicity
  _atom_site_fract_x
  _atom_site_fract_y
  _atom_site_fract_z
  _atom_site_occupancy
  Mn  Mn1       1.0  2.0023490669999997e-05  0.00010995425864019998  2.34918569646e-05  1.0000
  Mn  Mn2       1.0  0.5001028281939597  0.49920490724639405  0.4996986561503222  1.0000
  Mn  Mn3       1.0  0.9591356546424947  0.7391951760387556  0.8655349222218406  1.0000
  Mn  Mn4       1.0  0.45886496205546473  0.7613842623936619  0.6353906046685296  1.0000
  Mn  Mn5       1.0  0.041099044605019196  0.260881911780288  0.13495766784810573  1.0000
  Mn  Mn6       1.0  0.5412582245356248  0.2399478938943957  0.3644815766398325  1.0000
  Mn  Mn7       1.0  0.17331005218906628  0.7615279168408833  0.714837330782622  1.0000
  Mn  Mn8       1.0  0.6727380920813458  0.738387008579146  0.7847696500934873  1.0000
  Mn  Mn9       1.0  0.8271704788191768  0.23832931541618754  0.28485497323386977  1.0000
  Mn  Mn10      1.0  0.3269189962541006  0.2613695361027837  0.21503754242669967  1.0000
  Mn  Mn11      1.0  5.435145622810011e-05  0.5000026722846371  0.9999441693064812  1.0000
  Mn  Mn12      1.0  0.4998601389091278  0.9990020862807328  0.5002040980066411  1.0000
  H   H1        1.0  0.0986187346634537  0.025105792307705606  0.7484624374353217  1.0000
  H   H2        1.0  0.598183666507822  0.47493923546173267  0.7517864967769938  1.0000
  H   H3        1.0  0.9012997440031826  0.9752015950143615  0.2516434790220217  1.0000
  H   H4        1.0  0.400959652928222  0.5249928045247501  0.2481867859318285  1.0000
  H   H5        1.0  0.6512807115633378  0.9418917862198054  0.9142548940551977  1.0000
  H   H6        1.0  0.15146723314853716  0.5577047988095528  0.5862493548448031  1.0000
  H   H7        1.0  0.348860928021942  0.058502699152825195  0.0858456987473062  1.0000
  H   H8        1.0  0.8491456408952303  0.4415086867006862  0.41406764601455853  1.0000
  H   H9        1.0  0.8694266184451893  0.6651222507183902  0.5373163713099843  1.0000
  H   H10       1.0  0.3690493766772677  0.8347970260433467  0.9628713696590341  1.0000
  H   H11       1.0  0.13068142212875236  0.33480131152303017  0.46284060605869837  1.0000
  H   H12       1.0  0.630771666865641  0.16507014911362458  0.03697828520193979  1.0000
  H   H13       1.0  0.7370358552555345  0.6861174904593597  0.6026750691048406  1.0000
  H   H14       1.0  0.23691513118088636  0.8136281634060368  0.8972161612298919  1.0000
  H   H15       1.0  0.2629492117499268  0.31364670265196537  0.39734130966579784  1.0000
  H   H16       1.0  0.7630261365756752  0.1862177163689224  0.10251882003650079  1.0000
  H   H17       1.0  0.8114159328277352  0.5527568855064401  0.5987273793684196  1.0000
  H   H18       1.0  0.31098308776650907  0.9471193597361701  0.9014171268039917  1.0000
  H   H19       1.0  0.18874768275377107  0.4471104434359106  0.4014134152717475  1.0000
  H   H20       1.0  0.6887568922317299  0.05283471377819639  0.0985641973808455  1.0000
  H   H21       1.0  0.1253721164585926  0.8113633781070959  0.09173262524299731  1.0000
  H   H22       1.0  0.6247324697150133  0.6885792001629693  0.40854788534105074  1.0000
  H   H23       1.0  0.87479425838076  0.18852240921682303  0.9085543760475546  1.0000
  H   H24       1.0  0.37408652135774645  0.3110890716562693  0.5909999666202665  1.0000
  H   H25       1.0  0.7356955388703668  0.48879019392843753  0.9580002025648682  1.0000
  H   H26       1.0  0.23541247551553107  0.011182336244822  0.5417296320008447  1.0000
  H   H27       1.0  0.2642958693957951  0.5109880777061093  0.041858570533897  1.0000
  H   H28       1.0  0.7643100542867103  0.9892483337544674  0.4580223867898496  1.0000
  H   H29       1.0  0.27932628408101584  0.4483787616508791  0.7633486146644516  1.0000
  H   H30       1.0  0.7795441952072367  0.051466456703749906  0.7368643297639039  1.0000
  H   H31       1.0  0.7207325287744836  0.5515225298721873  0.23660651293357662  1.0000
  H   H32       1.0  0.22049372059331057  0.9485792930779837  0.2634950584430058  1.0000
  H   H33       1.0  0.3540922518718617  0.48367808868439244  0.8592066426470312  1.0000
  H   H34       1.0  0.854317574055493  0.0160429491267493  0.6410649353037103  1.0000
  H   H35       1.0  0.6458681809552972  0.5162435104766913  0.140773475258456  1.0000
  H   H36       1.0  0.1460219034524144  0.9839350424329324  0.3594315275501572  1.0000
  H   H37       1.0  0.3418272342631781  0.5876977664706189  0.7779211541636002  1.0000
  H   H38       1.0  0.8418978949099268  0.9120152605243417  0.722318623372189  1.0000
  H   H39       1.0  0.6582907915885342  0.4121780151484273  0.2220196184802887  1.0000
  H   H40       1.0  0.15798063864997397  0.08793016168004901  0.2780969999885414  1.0000
  C   C1        1.0  0.06438612107864829  0.9800658727250066  0.804560613320007  1.0000
  C   C2        1.0  0.5644666433568232  0.5198156699715639  0.695416367854051  1.0000
  C   C3        1.0  0.9354431207284435  0.019860613648155796  0.1953457005735402  1.0000
  C   C4        1.0  0.43518309649301284  0.4803287363137017  0.3044705681719578  1.0000
  C   C5        1.0  0.7496514109550957  0.9227928806853996  0.9203085239547377  1.0000
  C   C6        1.0  0.24976668756418263  0.5769688198812088  0.5799126210914523  1.0000
  C   C7        1.0  0.25033187997337336  0.07699664506999682  0.0799545894421811  1.0000
  C   C8        1.0  0.7506373230250746  0.42305624598777314  0.41993367793336495  1.0000
  C   C9        1.0  0.9084708744339665  0.6800768013876349  0.6696926257279828  1.0000
  C   C10       1.0  0.4085050456590834  0.8200017266874016  0.8305803324350904  1.0000
  C   C11       1.0  0.0914613420211836  0.3199371180299124  0.3304868325647093  1.0000
  C   C12       1.0  0.5914908235781412  0.18024107920604845  0.1692737155350699  1.0000
  C   C13       1.0  0.826470475963511  0.645487664025886  0.5977167445444067  1.0000
  C   C14       1.0  0.3262281016006058  0.8544006919275657  0.902402570977344  1.0000
  C   C15       1.0  0.17358837694644794  0.35438919615425857  0.4024090597986217  1.0000
  C   C16       1.0  0.6736475801140642  0.14556375809907957  0.09745392824990523  1.0000
  C   C17       1.0  0.0830551213632944  0.7571583868736055  0.04191054793849249  1.0000
  C   C18       1.0  0.5826376306118136  0.74258603552812  0.4585751792683226  1.0000
  C   C19       1.0  0.9172788204822524  0.2428257156749325  0.9582519843680117  1.0000
  C   C20       1.0  0.4173028234201155  0.2570518848117658  0.5414300345793137  1.0000
  C   C21       1.0  0.7586410168825637  0.5609906080516538  0.9169662962375256  1.0000
  C   C22       1.0  0.258335243503076  0.9392266770590608  0.5830357394434458  1.0000
  C   C23       1.0  0.2413285271547565  0.43897073775171686  0.08306128088432982  1.0000
  C   C24       1.0  0.7411504513263268  0.0612384402931241  0.4167907696005244  1.0000
  C   C25       1.0  0.1750594192884023  0.55437193669556  0.8474607723632204  1.0000
  C   C26       1.0  0.6752392035802758  0.9457631632203486  0.6526002745109665  1.0000
  C   C27       1.0  0.824938311431424  0.4456473551744366  0.1523689623562348  1.0000
  C   C28       1.0  0.3250436521795024  0.0544813678850602  0.3474571636787687  1.0000
  C   C29       1.0  0.295512901315142  0.5179856311174404  0.8095903421587636  1.0000
  C   C30       1.0  0.7956893133964299  0.9818294546552336  0.6906452993054446  1.0000
  C   C31       1.0  0.7045258651991233  0.48193367874039683  0.190354379693332  1.0000
  C   C32       1.0  0.20442057180500234  0.018211835834876  0.3097361151967277  1.0000
  O   O1        1.0  0.032500475910467196  0.03788546902693209  0.8680498706636754  1.0000
  O   O2        1.0  0.5326124331486923  0.4618726816793385  0.6320184576980878  1.0000
  O   O3        1.0  0.9676331391756959  0.9617126401455491  0.13212323064661294  1.0000
  O   O4        1.0  0.4675728727934114  0.538396987465724  0.3676769747235298  1.0000
  O   O5        1.0  0.06110627827033709  0.8704014480326805  0.7977039739304388  1.0000
  O   O6        1.0  0.5618790559044768  0.6295752105530282  0.7019319221595808  1.0000
  O   O7        1.0  0.9381498593908617  0.129626583219391  0.20169329785287002  1.0000
  O   O8        1.0  0.43778166085590436  0.3705326829537796  0.2981412562149259  1.0000
  O   O9        1.0  0.8112644082419253  0.9808136021754877  0.9720685853963573  1.0000
  O   O10       1.0  0.3111427043985556  0.5193446667058269  0.5278329395846343  1.0000
  O   O11       1.0  0.18897304202020845  0.0188781343532227  0.028139082372945302  1.0000
  O   O12       1.0  0.689239306266188  0.4811051228100922  0.4717578421179596  1.0000
  O   O13       1.0  0.7894975488162571  0.8413793132805691  0.8721972058423332  1.0000
  O   O14       1.0  0.2897140615077021  0.6582807903938175  0.6281341705244048  1.0000
  O   O15       1.0  0.21005138216992236  0.1579543182656167  0.1283845843921085  1.0000
  O   O16       1.0  0.7103500417627941  0.3421356461321849  0.37146985898389323  1.0000
  O   O17       1.0  0.8608754923056451  0.7005927734936461  0.7432365349916098  1.0000
  O   O18       1.0  0.360946866636624  0.7989195353729812  0.7570519523128639  1.0000
  O   O19       1.0  0.13904225729729086  0.2989408030317619  0.2570022939892738  1.0000
  O   O20       1.0  0.6390990732153127  0.201418504654498  0.2427444931674714  1.0000
  O   O21       1.0  0.021542824178680996  0.6855450355130511  0.6556249134757195  1.0000
  O   O22       1.0  0.5216043735112379  0.8151724529467471  0.8445742617314524  1.0000
  O   O23       1.0  0.9783664862660898  0.3150382960314033  0.3444627080987815  1.0000
  O   O24       1.0  0.47838691382647625  0.18520866276321607  0.15528169555027926  1.0000
  O   O25       1.0  0.027238530268249402  0.8110253070582517  0.983058308648566  1.0000
  O   O26       1.0  0.5268820366096277  0.6887062229960603  0.5173019102137602  1.0000
  O   O27       1.0  0.973303982773572  0.1890939136947409  0.017073890996933  1.0000
  O   O28       1.0  0.4734810822086928  0.3111937965319385  0.4829102283412823  1.0000
  O   O29       1.0  0.09372791785911261  0.6511468802310887  0.046594139523286116  1.0000
  O   O30       1.0  0.5936169150466314  0.8486687663435293  0.4541305764613384  1.0000
  O   O31       1.0  0.906506712805381  0.3488125649344056  0.9534517412826844  1.0000
  O   O32       1.0  0.4072171933842341  0.15103662437099527  0.5460654035700968  1.0000
  O   O33       1.0  0.8687487923062208  0.5980195196248417  0.9227048142509773  1.0000
  O   O34       1.0  0.36847373068977857  0.902074573537483  0.5775371627326606  1.0000
  O   O35       1.0  0.1311825179139277  0.4019823560503113  0.0774857889449834  1.0000
  O   O36       1.0  0.6311049279637472  0.09827342739481539  0.4224103383707813  1.0000
  O   O37       1.0  0.6771286370045714  0.5983838315439199  0.8693347906101039  1.0000
  O   O38       1.0  0.17684098161145556  0.9021205173963976  0.6307068830960603  1.0000
  O   O39       1.0  0.3228609276909181  0.40170791213780876  0.1307223371267767  1.0000
  O   O40       1.0  0.8226966215007254  0.098339246713337  0.3690412317087208  1.0000
  O   O41       1.0  0.12840285680589147  0.6508748112800404  0.8249281354112128  1.0000
  O   O42       1.0  0.6284901470636085  0.8491831641628591  0.6749201712470453  1.0000
  O   O43       1.0  0.8716148927732662  0.34906144575654713  0.1747156893713253  1.0000
  O   O44       1.0  0.3715667603406557  0.15101197534375638  0.3249140631802235  1.0000
  O   O45       1.0  0.12542257274652968  0.48861524202879986  0.8990453015147182  1.0000
  O   O46       1.0  0.625674292751853  0.011687821413566696  0.6010925136994416  1.0000
  O   O47       1.0  0.8744612756573248  0.5115292056482019  0.1008315551125989  1.0000
  O   O48       1.0  0.3749255376993973  0.9886154781777564  0.3988706852369219  1.0000
