data_image0
_chemical_formula_structural       Ag4P4H40C56O24
_chemical_formula_sum              "Ag4 P4 H40 C56 O24"
_cell_length_a       8.033448598
_cell_length_b       11.305269904
_cell_length_c       14.0805
_cell_angle_alpha    90.0
_cell_angle_beta     90.0
_cell_angle_gamma    90.0

_space_group_name_H-M_alt    "P 1"
_space_group_IT_number       1

loop_
  _space_group_symop_operation_xyz
  'x, y, z'

loop_
  _atom_site_type_symbol
  _atom_site_label
  _atom_site_symmetry_multiplicity
  _atom_site_fract_x
  _atom_site_fract_y
  _atom_site_fract_z
  _atom_site_occupancy
  Ag  Ag1       1.0  0.4999982200670344  0.8462221672934264  0.2500010653030813  1.0000
  Ag  Ag2       1.0  0.0  0.6537782877156175  0.7500010653030815  1.0000
  Ag  Ag3       1.0  0.5000007096578685  0.1537778411981918  0.7500017755051334  1.0000
  Ag  Ag4       1.0  1.2447954205e-06  0.34622260531923393  0.25000177550513314  1.0000
  P   P1        1.0  0.49999697527161396  0.11797153109348811  0.2500003551010296  1.0000
  P   P2        1.0  1.2447954205e-06  0.3820280308807044  0.7499996448989705  1.0000
  P   P3        1.0  0.49999946486244806  0.8820284773981301  0.7499996448989705  1.0000
  P   P4        1.0  0.0  0.6179719776109138  0.2500003551010296  1.0000
  H   H1        1.0  0.3489995567654489  0.46215703334524966  0.0395966052341876  1.0000
  H   H2        1.0  0.1510036424832535  0.037844297715409404  0.5395958950321359  1.0000
  H   H3        1.0  0.8489990216278969  0.0378460668018761  0.9604033947658126  1.0000
  H   H4        1.0  0.6510055969365425  0.4621561488020163  0.4604048151699161  1.0000
  H   H5        1.0  0.651001862550288  0.537844744232828  0.9604041049678644  1.0000
  H   H6        1.0  0.8489965320370629  0.962153941689742  0.4604041049678642  1.0000
  H   H7        1.0  0.1510036424832535  0.9621565953194421  0.03959589503213581  1.0000
  H   H8        1.0  0.348997067174615  0.5378456287760613  0.5395966052341877  1.0000
  H   H9        1.0  0.0601236186561565  0.39036485085937767  0.0150044387628299  1.0000
  H   H10       1.0  0.4398795805925459  0.1096373647445148  0.5150065693689855  1.0000
  H   H11       1.0  0.5601255731094454  0.1096373647445148  0.9849955612371704  1.0000
  H   H12       1.0  0.9398815350458278  0.3903621972296776  0.4849934306310146  1.0000
  H   H13       1.0  0.93987655586416  0.6096369267187001  0.9849955612371704  1.0000
  H   H14       1.0  0.5601205939277705  0.8903599901174034  0.4849941408330665  1.0000
  H   H15       1.0  0.439877091001712  0.8903635282903366  0.015005148964881703  1.0000
  H   H16       1.0  0.0601211290653225  0.6096378112619334  0.5150072795710372  1.0000
  H   H17       1.0  0.9689387944721375  0.20100891171080806  0.09211746741947743  1.0000
  H   H18       1.0  0.5310633345014679  0.2989906502633843  0.592120308227692  1.0000
  H   H19       1.0  0.468938084814269  0.2989888811769177  0.9078811121764119  1.0000
  H   H20       1.0  0.0310638696390129  0.2010080271675747  0.40787898157025654  1.0000
  H   H21       1.0  0.0310626248435995  0.7989875586078696  0.90788040197436  1.0000
  H   H22       1.0  0.4689343504280146  0.7010084736850004  0.40787898157025654  1.0000
  H   H23       1.0  0.5310620897060474  0.7010102427714671  0.0921188878235881  1.0000
  H   H24       1.0  0.9689363048813036  0.7989902122375698  0.5921210184297436  1.0000
  H   H25       1.0  0.1633047107971279  0.09163602539320692  0.1960541173964003  1.0000
  H   H26       1.0  0.33669475406532  0.4083635365809855  0.6960548275984522  1.0000
  H   H27       1.0  0.663304175659583  0.4083626520377521  0.8039451724015481  1.0000
  H   H28       1.0  0.836694218927768  0.09163779447967361  0.3039451724015479  1.0000
  H   H29       1.0  0.8366967085186021  0.9083613294687042  0.8039444621994962  1.0000
  H   H30       1.0  0.6633029308641625  0.5916355873673993  0.3039430417953923  1.0000
  H   H31       1.0  0.33669475406532  0.5916373564538661  0.1960541173964003  1.0000
  H   H32       1.0  0.1633047107971279  0.9083648676416445  0.6960562480025558  1.0000
  H   H33       1.0  0.7238087017134376  0.5078091941855121  0.15505273250239782  1.0000
  H   H34       1.0  0.776193427260168  0.9921912608235248  0.6550548631085533  1.0000
  H   H35       1.0  0.2238067472601486  0.9921912608235248  0.8449472674976022  1.0000
  H   H36       1.0  0.2761952071931333  0.5078091941855121  0.3449472674976022  1.0000
  H   H37       1.0  0.2761927176022994  0.4921899297628657  0.8449465572955506  1.0000
  H   H38       1.0  0.2238042576693147  0.007809632211326802  0.3449465572955503  1.0000
  H   H39       1.0  0.776193427260168  0.007808747668093501  0.15505415290650157  1.0000
  H   H40       1.0  0.7238062121226037  0.4921908143060989  0.655052732502398  1.0000
  C   C1        1.0  0.5945914686239675  0.3626379586523143  0.1392784347146758  1.0000
  C   C2        1.0  0.9054081707587969  0.13736248786511143  0.639277724512624  1.0000
  C   C3        1.0  0.0945920037615195  0.13736248786511143  0.8607201448812206  1.0000
  C   C4        1.0  0.4054099506917623  0.3626388431955476  0.3607236958914798  1.0000
  C   C5        1.0  0.4054087058963489  0.6373611652960705  0.8607208550832726  1.0000
  C   C6        1.0  0.0945895141706856  0.8626392897129733  0.3607215652853242  1.0000
  C   C7        1.0  0.9054094155542174  0.86263840516974  0.1392791449167277  1.0000
  C   C8        1.0  0.5945914686239675  0.6373620498393039  0.6392784347146758  1.0000
  C   C9        1.0  0.4216321245701735  0.31602783748983404  0.12849117573949803  1.0000
  C   C10       1.0  0.0783698298831155  0.18397172448435842  0.6284911757394982  1.0000
  C   C11       1.0  0.9216315894326215  0.1839726090275917  0.8715081140584504  1.0000
  C   C12       1.0  0.57836804995015  0.31602783748983404  0.37151166506870953  1.0000
  C   C13       1.0  0.5783692947455634  0.6839721710017842  0.8715095344625539  1.0000
  C   C14       1.0  0.9216290998417875  0.8160282840072599  0.3715081140584502  1.0000
  C   C15       1.0  0.07836858508769502  0.8160282840072599  0.12849046553744614  1.0000
  C   C16       1.0  0.421630879774753  0.6839721710017842  0.6284897553353945  1.0000
  C   C17       1.0  0.3078590682232942  0.3807038696596905  0.073345406768226  1.0000
  C   C18       1.0  0.1921428862299948  0.1192965768577352  0.573345406768226  1.0000
  C   C19       1.0  0.8078597778811627  0.1192983459442019  0.9266531728276706  1.0000
  C   C20       1.0  0.6921435958878561  0.3807038696596905  0.42665388302972224  1.0000
  C   C21       1.0  0.692139861501609  0.619297023375161  0.9266553034338261  1.0000
  C   C22       1.0  0.8078560434949082  0.8807034316338759  0.4266524626256185  1.0000
  C   C23       1.0  0.1921403966391537  0.8807034316338759  0.0733446965661742  1.0000
  C   C24       1.0  0.3078578234278737  0.619297023375161  0.5733461169702778  1.0000
  C   C25       1.0  0.14550040194332337  0.3409463049295455  0.060120024146868914  1.0000
  C   C26       1.0  0.3545015525099657  0.159055910674347  0.5601207343489207  1.0000
  C   C27       1.0  0.6455011116011846  0.159055910674347  0.9398806860551832  1.0000
  C   C28       1.0  0.8545022621678344  0.34094365129984544  0.4398785554490275  1.0000
  C   C29       1.0  0.8544997725770003  0.659054588105306  0.939881396257235  1.0000
  C   C30       1.0  0.6454986220103509  0.8409432132740378  0.43987926565107943  1.0000
  C   C31       1.0  0.3545003077145452  0.8409449823605044  0.060119313944817114  1.0000
  C   C32       1.0  0.1454991571479027  0.6590563571917727  0.5601214445509726  1.0000
  C   C33       1.0  0.0934866254309483  0.23577942168871863  0.10447001171833392  1.0000
  C   C34       1.0  0.4065140842269201  0.2642210248287071  0.6044721423244894  1.0000
  C   C35       1.0  0.5934885798842302  0.2642210248287071  0.8955299882816663  1.0000
  C   C36       1.0  0.9065135490893681  0.2357776526022519  0.3955271474734587  1.0000
  C   C37       1.0  0.9065123042939549  0.7642197022596591  0.8955299882816663  1.0000
  C   C38       1.0  0.5934848454979829  0.7357772145764445  0.3955278576755106  1.0000
  C   C39       1.0  0.4065128394314997  0.7357798682061443  0.10447001171833392  1.0000
  C   C40       1.0  0.09348538063552783  0.7642214713461329  0.6044721423244894  1.0000
  C   C41       1.0  0.2059327298629725  0.17195432010979061  0.1609893114591117  1.0000
  C   C42       1.0  0.294067979794896  0.32804524186440187  0.6609914420652674  1.0000
  C   C43       1.0  0.705933439520841  0.32804524186440187  0.8390085579347328  1.0000
  C   C44       1.0  0.7940637102710966  0.1719534355665573  0.339007847732681  1.0000
  C   C45       1.0  0.7940674446573439  0.8280439192953537  0.8390085579347328  1.0000
  C   C46       1.0  0.7059321947254205  0.6719529975407497  0.339007847732681  1.0000
  C   C47       1.0  0.294067979794896  0.6719556511704496  0.16099144206526725  1.0000
  C   C48       1.0  0.20593148506755204  0.8280474574682941  0.6609914420652674  1.0000
  C   C49       1.0  0.3707336847517126  0.21014447422961524  0.1732381662583009  1.0000
  C   C50       1.0  0.1292670249061558  0.28985508774457003  0.6732374560562491  1.0000
  C   C51       1.0  0.8707343944095813  0.28985420320133676  0.8267611235396474  1.0000
  C   C52       1.0  0.6292640001777698  0.21014535877284862  0.3267625439437509  1.0000
  C   C53       1.0  0.6292664897686109  0.7898537651755291  0.8267618337416993  1.0000
  C   C54       1.0  0.8707319048187401  0.7101440362038076  0.3267618337416991  1.0000
  C   C55       1.0  0.1292657801107424  0.7101458052902743  0.1732381662583009  1.0000
  C   C56       1.0  0.3707324399562921  0.7898555342619957  0.6732367458541972  1.0000
  O   O1        1.0  0.6030535878708534  0.4800991082998891  0.13849934306310274  1.0000
  O   O2        1.0  0.8969510306935788  0.019901338217529502  0.6385028940733619  1.0000
  O   O3        1.0  0.1030516334175715  0.0199004536742962  0.8614992365327936  1.0000
  O   O4        1.0  0.3969515658311309  0.4800999928431225  0.36150065693689737  1.0000
  O   O5        1.0  0.3969503210357104  0.5199000156484886  0.8614971059266383  1.0000
  O   O6        1.0  0.1030478990313171  0.9800995548173149  0.3614971059266381  1.0000
  O   O7        1.0  0.8969497858981657  0.9800995548173149  0.1385028940733619  1.0000
  O   O8        1.0  0.603049853484606  0.5199009001917219  0.6385000532651548  1.0000
  O   O9        1.0  0.7165502996350881  0.2968774764778033  0.1486119100884196  1.0000
  O   O10       1.0  0.7834518293385102  0.20312297003962243  0.6486126202904714  1.0000
  O   O11       1.0  0.2165483451818062  0.20312297003962243  0.8513873797095287  1.0000
  O   O12       1.0  0.2834536092714757  0.2968774764778033  0.3513888001136323  1.0000
  O   O13       1.0  0.2834511196806417  0.7031216474705745  0.8513873797095287  1.0000
  O   O14       1.0  0.2165483451818062  0.7968770384519959  0.3513888001136323  1.0000
  O   O15       1.0  0.7834518293385102  0.796877922995229  0.14861262029047145  1.0000
  O   O16       1.0  0.7165478100442542  0.7031225320138077  0.6486119100884196  1.0000
  O   O17       1.0  0.3910873346201741  0.04026617708958471  0.3136493732466904  1.0000
  O   O18       1.0  0.10890964065144  0.45973426942784107  0.8136486630446387  1.0000
  O   O19       1.0  0.8910905338688764  0.4597333848846077  0.6863513369553615  1.0000
  O   O20       1.0  0.608909105513888  0.04026617708958471  0.186354177763576  1.0000
  O   O21       1.0  0.6089103503093085  0.9597347159452667  0.6863520471574134  1.0000
  O   O22       1.0  0.8910905338688764  0.5402648545205437  0.1863527573594652  1.0000
  O   O23       1.0  0.108912130242274  0.5402675081502438  0.3136493732466904  1.0000
  O   O24       1.0  0.39109106900642854  0.9597329468588003  0.8136486630446387  1.0000
