data_image0
_chemical_formula_structural       Zn2H28C36Br2N14O8
_chemical_formula_sum              "Zn2 H28 C36 Br2 N14 O8"
_cell_length_a       11.075355903421318
_cell_length_b       16.133110560637757
_cell_length_c       17.268988792813474
_cell_angle_alpha    95.87404797966519
_cell_angle_beta     90.67879274910581
_cell_angle_gamma    92.4088943500438

_space_group_name_H-M_alt    "P 1"
_space_group_IT_number       1

loop_
  _space_group_symop_operation_xyz
  'x, y, z'

loop_
  _atom_site_type_symbol
  _atom_site_label
  _atom_site_symmetry_multiplicity
  _atom_site_fract_x
  _atom_site_fract_y
  _atom_site_fract_z
  _atom_site_occupancy
  Zn  Zn1       1.0  0.4970353444910032  0.41043085391569906  0.4998756457966208  1.0000
  Zn  Zn2       1.0  0.5046719244040219  0.5950596658090532  0.50602823133584  1.0000
  H   H1        1.0  0.38921905955593417  0.7173440522009076  0.42622071463364347  1.0000
  H   H2        1.0  0.37833370395211563  0.8733798838007235  0.42989761872729554  1.0000
  H   H3        1.0  0.3070812427102183  0.11258597306675709  0.4245514549814899  1.0000
  H   H4        1.0  0.6365609300577687  0.12080808036704847  0.5606611088207385  1.0000
  H   H5        1.0  0.5231401283771716  0.6184811011770608  0.2675748832818101  1.0000
  H   H6        1.0  0.5252019753614049  0.6173708885487984  0.12185383734127699  1.0000
  H   H7        1.0  0.5258102992938943  0.6613499456633534  0.9052427602723014  1.0000
  H   H8        1.0  0.4869605883474931  0.3944376456185382  0.8912192259959467  1.0000
  H   H9        1.0  0.7633072618394152  0.5553121618403339  0.38349791224265317  1.0000
  H   H10       1.0  0.8628289831962518  0.5964801353715573  0.26589773970763275  1.0000
  H   H11       1.0  0.2126804140269556  0.5571571706813999  0.3643475229857173  1.0000
  H   H12       1.0  0.08806276550579642  0.5961909015013732  0.2557717419027624  1.0000
  H   H13       1.0  0.6966280324608931  0.6697555879627259  0.5889187676179617  1.0000
  H   H14       1.0  0.7052492893053852  0.7572357042353701  0.6555469714916313  1.0000
  H   H15       1.0  0.6893961276195667  0.9659126971134384  0.6075821091026796  1.0000
  H   H16       1.0  0.7674669131808469  0.8781194825303872  0.6200146061587118  1.0000
  H   H17       1.0  0.29302181496638  0.3396363484366561  0.44216558036145404  1.0000
  H   H18       1.0  0.23213480477686935  0.24413107844615928  0.4008838064834137  1.0000
  H   H19       1.0  0.6824354775789486  0.3439155183771022  0.56051295018527  1.0000
  H   H20       1.0  0.7284661894671627  0.25449870429940086  0.5952875480744666  1.0000
  H   H21       1.0  0.5073607070889351  0.3344576027338277  0.3070997520456159  1.0000
  H   H22       1.0  0.5410500808531821  0.284661943180339  0.2167086010222192  1.0000
  H   H23       1.0  0.4850754514693136  0.3378111300404855  0.03390806494802939  1.0000
  H   H24       1.0  0.4412010577588177  0.2871983389799341  0.11175196174514207  1.0000
  H   H25       1.0  0.4929115718104029  0.6702956478143136  0.698193006055952  1.0000
  H   H26       1.0  0.5017919018180165  0.7251949390167314  0.7905714566739874  1.0000
  H   H27       1.0  0.48811805042152656  0.3638170160361228  0.682064966492959  1.0000
  H   H28       1.0  0.4813856966987799  0.31849414241767704  0.769639759124672  1.0000
  C   C1        1.0  0.5115361463911369  0.49017280207528563  0.3519748813487879  1.0000
  C   C2        1.0  0.2647954515696044  0.5123105168270002  0.49724666704653936  1.0000
  C   C3        1.0  0.4940869712681816  0.5159785333093226  0.6552496315824214  1.0000
  C   C4        1.0  0.7398086253298287  0.5016177104093559  0.513171570401596  1.0000
  C   C5        1.0  0.4486253852290147  0.7599376976148878  0.46377625900978353  1.0000
  C   C6        1.0  0.44229353521239284  0.844945231120825  0.46623468565261555  1.0000
  C   C7        1.0  0.5227344597162684  0.8959458299078025  0.5166266968229394  1.0000
  C   C8        1.0  0.6057410724446157  0.8584447625279241  0.562995203216225  1.0000
  C   C9        1.0  0.6050951153699984  0.7691441568931411  0.5574462220707089  1.0000
  C   C10       1.0  0.3819832421904792  0.1480435852538804  0.4552660643055758  1.0000
  C   C11       1.0  0.4705403213559974  0.10672382596118274  0.4921402343188033  1.0000
  C   C12       1.0  0.5659529873691296  0.15219549334938162  0.5323959070908373  1.0000
  C   C13       1.0  0.5696962512444299  0.23926234983493805  0.5347095171560666  1.0000
  C   C14       1.0  0.38988364359802574  0.23587387567894075  0.4601554495078872  1.0000
  C   C15       1.0  0.5110390118388678  0.48495171049361835  0.265788162937497  1.0000
  C   C16       1.0  0.5182681755210651  0.5601619494035222  0.2296113251900422  1.0000
  C   C17       1.0  0.5197585605138428  0.5599454562938037  0.1499128866984449  1.0000
  C   C18       1.0  0.5111163344468181  0.48300339545912163  0.10231252949658648  1.0000
  C   C19       1.0  0.5038304812419837  0.40716676527630824  0.13651843713270748  1.0000
  C   C20       1.0  0.505803429344425  0.40749342861872156  0.21918010486879777  1.0000
  C   C21       1.0  0.5145897180181365  0.6019196479303659  0.8691962715322532  1.0000
  C   C22       1.0  0.5070281620066837  0.5285620282503914  0.9056831447165121  1.0000
  C   C23       1.0  0.49343171664912683  0.45098985343958753  0.8617803271176001  1.0000
  C   C24       1.0  0.4879642376487254  0.445666363435926  0.78029124839324  1.0000
  C   C25       1.0  0.49682944037778015  0.5203866281786773  0.7409664299779735  1.0000
  C   C26       1.0  0.5090661020652761  0.5991887889808823  0.787708937310633  1.0000
  C   C27       1.0  0.8754707796495752  0.5057757363890335  0.5111176524333202  1.0000
  C   C28       1.0  0.9309174195426949  0.5311906957099382  0.4428189683576065  1.0000
  C   C29       1.0  0.9446227436210605  0.4845975099255072  0.5725371444216021  1.0000
  C   C30       1.0  0.861474715502794  0.5548055388067256  0.37953829813626777  1.0000
  C   C31       1.0  0.9173712769324919  0.5782447993736711  0.31381980805492293  1.0000
  C   C32       1.0  0.12910927304258726  0.5098113204283123  0.5021546138233006  1.0000
  C   C33       1.0  0.0726795488143424  0.48636417038115104  0.568248068915068  1.0000
  C   C34       1.0  0.05997290815435719  0.5327237714628553  0.43803662205719707  1.0000
  C   C35       1.0  0.1145510372451284  0.5562664174776872  0.3689781537528276  1.0000
  C   C36       1.0  0.044685336440714686  0.578413648134685  0.3083495499253175  1.0000
  Br  Br1       1.0  0.16693922981943388  0.4586299182059507  0.6537249392047001  1.0000
  Br  Br2       1.0  0.8645236415971239  0.45550928798073187  0.6636217973561642  1.0000
  N   N1        1.0  0.5274366121026615  0.7224725454440631  0.5091792491815211  1.0000
  N   N2        1.0  0.5334920311433676  0.9829442462526007  0.5227514301245292  1.0000
  N   N3        1.0  0.45451827744792433  0.018498113882152705  0.4854337273042546  1.0000
  N   N4        1.0  0.483283411629692  0.28102032148665773  0.49867886934841016  1.0000
  N   N5        1.0  0.5044757178398528  0.4737069383598326  0.021031047609881216  1.0000
  N   N6        1.0  0.5153028067525581  0.5405131523370843  0.9880262956148798  1.0000
  N   N7        1.0  0.689792103805388  0.7329895417791833  0.599554814908565  1.0000
  N   N8        1.0  0.6861234151734478  0.9037333902672701  0.6134692204750607  1.0000
  N   N9        1.0  0.30458182094051267  0.2777182775873329  0.425052907121426  1.0000
  N   N10       1.0  0.6588509591704365  0.285895040448196  0.5759571475188777  1.0000
  N   N11       1.0  0.4974929504395574  0.33079813818434195  0.24796078884959624  1.0000
  N   N12       1.0  0.49806616166342366  0.33091573987967143  0.09139321973355409  1.0000
  N   N13       1.0  0.5204207170914968  0.6735812525041355  0.7550578799615904  1.0000
  N   N14       1.0  0.46947717356597  0.3684050521253753  0.7398730873274245  1.0000
  O   O1        1.0  0.503080748617748  0.42173707201767746  0.38409394698691557  1.0000
  O   O2        1.0  0.5207504672625944  0.5624970125590424  0.39007089038510395  1.0000
  O   O3        1.0  0.3177212297598402  0.5832373146569908  0.49707269005418897  1.0000
  O   O4        1.0  0.3148102171084942  0.44232224107523893  0.4928077871758062  1.0000
  O   O5        1.0  0.48487935934557674  0.5833928177494772  0.6222409182497727  1.0000
  O   O6        1.0  0.5018798808146485  0.4444192378223805  0.6154932397630333  1.0000
  O   O7        1.0  0.6876347210920885  0.4300739272851502  0.4990876200217541  1.0000
  O   O8        1.0  0.6881249103261595  0.5702889515017662  0.5249035420745827  1.0000
