data_image0
_chemical_formula_structural       Mn4H32C16O28
_chemical_formula_sum              "Mn4 H32 C16 O28"
_cell_length_a       9.11146359982592
_cell_length_b       8.49199073375823
_cell_length_c       10.235260317766821
_cell_angle_alpha    90.17006122155976
_cell_angle_beta     89.86746186157531
_cell_angle_gamma    87.28371454689344

_space_group_name_H-M_alt    "P 1"
_space_group_IT_number       1

loop_
  _space_group_symop_operation_xyz
  'x, y, z'

loop_
  _atom_site_type_symbol
  _atom_site_label
  _atom_site_symmetry_multiplicity
  _atom_site_fract_x
  _atom_site_fract_y
  _atom_site_fract_z
  _atom_site_occupancy
  Mn  Mn1       1.0  0.7750830194452405  0.3069269113541965  0.5941335054162453  1.0000
  Mn  Mn2       1.0  0.7423865788778345  0.6641976517982614  0.10376043895526986  1.0000
  Mn  Mn3       1.0  0.23418137528655342  0.8035466903331285  0.9098107598037262  1.0000
  Mn  Mn4       1.0  0.273814121614393  0.19388846989063077  0.40450222223621085  1.0000
  H   H1        1.0  0.7863477124729457  0.49294746869099987  0.8260976143110103  1.0000
  H   H2        1.0  0.7162641112829604  0.5082894041094337  0.32643089502689565  1.0000
  H   H3        1.0  0.2156200210668047  0.9924679262226235  0.6777314426536025  1.0000
  H   H4        1.0  0.2812146378656522  0.004883279271616902  0.17504125569396228  1.0000
  H   H5        1.0  0.6613126981889793  0.6937195676596348  0.7241332477249787  1.0000
  H   H6        1.0  0.8362460825113373  0.3021252827924601  0.230905763052725  1.0000
  H   H7        1.0  0.3337599732190739  0.18449652942679512  0.782130760959824  1.0000
  H   H8        1.0  0.18237522355016011  0.803235940361475  0.2763776726565937  1.0000
  H   H9        1.0  0.9884004553006138  0.7514689784840204  0.6786972344298337  1.0000
  H   H10       1.0  0.5078707012567777  0.2612604616836337  0.18154994667284546  1.0000
  H   H11       1.0  0.0017084768476820006  0.2525884729939564  0.8172127652673712  1.0000
  H   H12       1.0  0.5150773608928391  0.7643588916004874  0.318737110917141  1.0000
  H   H13       1.0  0.8409707822863126  0.8953214229780501  0.6977334304119868  1.0000
  H   H14       1.0  0.6471811067049771  0.10598948496248542  0.17957555288117538  1.0000
  H   H15       1.0  0.13941626603524782  0.3955431943219239  0.820636439870086  1.0000
  H   H16       1.0  0.38976268438170797  0.6108088486446165  0.328037860024928  1.0000
  H   H17       1.0  0.7218926699714957  0.20530701767479098  0.8395944633551411  1.0000
  H   H18       1.0  0.7437399710735664  0.8167101819998951  0.32649730082695083  1.0000
  H   H19       1.0  0.3113171364532761  0.7193218183953437  0.6655861799429349  1.0000
  H   H20       1.0  0.198849307420943  0.2974140077411534  0.15884600143824207  1.0000
  H   H21       1.0  0.6207552908290382  0.09055725068051865  0.7586554211382226  1.0000
  H   H22       1.0  0.8358152738323665  0.9176838161822192  0.226788746082356  1.0000
  H   H23       1.0  0.4090882952242866  0.5978875300765837  0.7520967584708703  1.0000
  H   H24       1.0  0.0967022964860575  0.4099446132081682  0.25226539109685586  1.0000
  H   H25       1.0  0.5273494202027535  0.34642144109304956  0.7379192788754525  1.0000
  H   H26       1.0  0.9905969823261885  0.690640172397565  0.21293135040038186  1.0000
  H   H27       1.0  0.4895382299806173  0.8611031320973058  0.7834366090806457  1.0000
  H   H28       1.0  0.018880779028897603  0.11892346667332283  0.25371834103485486  1.0000
  H   H29       1.0  0.38700131136047133  0.38841986902206577  0.6492047622856847  1.0000
  H   H30       1.0  0.010466818166264597  0.6421420388788237  0.06535180917686033  1.0000
  H   H31       1.0  0.6203537582412794  0.8891850723916553  0.8802608551787049  1.0000
  H   H32       1.0  0.8934762637201673  0.08819568862777771  0.3535930768845221  1.0000
  C   C1        1.0  0.7519721371842608  0.6548385920313111  0.5356530308774199  1.0000
  C   C2        1.0  0.7570741617958632  0.3419127681955275  0.03881441956638551  1.0000
  C   C3        1.0  0.23985773129262358  0.15166717366417262  0.9686678756884465  1.0000
  C   C4        1.0  0.261339271862539  0.8502231872261775  0.4664649195568274  1.0000
  C   C5        1.0  0.7700102021839541  0.6574730232317382  0.6842014721387886  1.0000
  C   C6        1.0  0.7308800027185641  0.3390090883764572  0.185484688856569  1.0000
  C   C7        1.0  0.22542393746623188  0.15510416435254373  0.8204339825299773  1.0000
  C   C8        1.0  0.2854589399955785  0.8425031717025179  0.31891404103920723  1.0000
  C   C9        1.0  0.8824772578340188  0.7772406537926244  0.727324009793762  1.0000
  C   C10       1.0  0.6150587924011931  0.22195488466463334  0.22159101446420956  1.0000
  C   C11       1.0  0.10951812383866161  0.28209979312672573  0.7789210288926969  1.0000
  C   C12       1.0  0.4108452586074236  0.7241404970272995  0.2812820751225119  1.0000
  C   C13       1.0  0.9010169761012393  0.7663201619022361  0.8736404828199799  1.0000
  C   C14       1.0  0.6083022286657638  0.208723311520231  0.3685215449835584  1.0000
  C   C15       1.0  0.10748218892867809  0.2914215677643455  0.631644587035588  1.0000
  C   C16       1.0  0.4172132060026001  0.7016663264987173  0.13418638353003595  1.0000
  O   O1        1.0  0.754935222086708  0.5182943945634053  0.47900667088734405  1.0000
  O   O2        1.0  0.7535053684037719  0.47912029563401864  0.9843643602202622  1.0000
  O   O3        1.0  0.23197856652799945  0.0175477441674943  0.025446325136407207  1.0000
  O   O4        1.0  0.2586107800440374  0.9871436173328122  0.521790641175578  1.0000
  O   O5        1.0  0.7330879235284087  0.7846788392613749  0.4795192017896215  1.0000
  O   O6        1.0  0.7821413317396023  0.21388454197052206  0.9797319486038422  1.0000
  O   O7        1.0  0.258941539215968  0.28046577802970774  0.025596453854653613  1.0000
  O   O8        1.0  0.24479425521704465  0.7230831575201864  0.5256138628933443  1.0000
  O   O9        1.0  0.7878234938426231  0.7884717999068657  0.9464051238482019  1.0000
  O   O10       1.0  0.7297153421993842  0.17715259456672075  0.42857940531185806  1.0000
  O   O11       1.0  0.2271191340619367  0.32501011249861733  0.5739267878761611  1.0000
  O   O12       1.0  0.29262511119479484  0.689134352799293  0.07659029715441792  1.0000
  O   O13       1.0  0.02675956922352191  0.7164834593167201  0.9207873542805065  1.0000
  O   O14       1.0  0.48927940554244753  0.23792845584624447  0.43011087564112693  1.0000
  O   O15       1.0  0.9950381343743759  0.25540230536486763  0.5670630137670118  1.0000
  O   O16       1.0  0.5368830297339998  0.6999634629952212  0.06976634912607693  1.0000
  O   O17       1.0  0.8099180559555422  0.5015924541612478  0.7298749197563628  1.0000
  O   O18       1.0  0.6874524979912947  0.49567711142604765  0.2310137810904679  1.0000
  O   O19       1.0  0.18981207648115372  0.0022609880171771007  0.7739169258660045  1.0000
  O   O20       1.0  0.3112597939998949  0.9972702919300572  0.2703534063387921  1.0000
  O   O21       1.0  0.6725417992795643  0.19355623299968275  0.7505747718716907  1.0000
  O   O22       1.0  0.7535827335668372  0.8441275420037045  0.2306983665832832  1.0000
  O   O23       1.0  0.3622102282526072  0.7092520003503966  0.7543833368351262  1.0000
  O   O24       1.0  0.14874809878814688  0.3064489152611643  0.25062741938305083  1.0000
  O   O25       1.0  0.46805618773262847  0.4343995924592934  0.6989887933765788  1.0000
  O   O26       1.0  0.9646242620774359  0.6086184301542376  0.15113615693228877  1.0000
  O   O27       1.0  0.5451773978724005  0.9447880469094803  0.8253551177345034  1.0000
  O   O28       1.0  0.9646246086010493  0.034027929058993316  0.2930629437409636  1.0000
