data_image0
_chemical_formula_structural       Cu2H18C20N2O18
_chemical_formula_sum              "Cu2 H18 C20 N2 O18"
_cell_length_a       7.749650102453023
_cell_length_b       8.168546668023266
_cell_length_c       11.249481729491515
_cell_angle_alpha    77.1620500428928
_cell_angle_beta     76.78000399499362
_cell_angle_gamma    62.19011018977739

_space_group_name_H-M_alt    "P 1"
_space_group_IT_number       1

loop_
  _space_group_symop_operation_xyz
  'x, y, z'

loop_
  _atom_site_type_symbol
  _atom_site_label
  _atom_site_symmetry_multiplicity
  _atom_site_fract_x
  _atom_site_fract_y
  _atom_site_fract_z
  _atom_site_occupancy
  Cu  Cu1       1.0  0.14968551006970196  0.032654626121726  0.44226331186948176  1.0000
  Cu  Cu2       1.0  0.8503242212492382  0.9673550803909239  0.5577375034341044  1.0000
  H   H1        1.0  0.46646553655389067  0.9852316552167653  0.26821255755143614  1.0000
  H   H2        1.0  0.5335202350391698  0.014762407971545596  0.7317849098235597  1.0000
  H   H3        1.0  0.5383095825817819  0.0362619281685213  0.36791104520164447  1.0000
  H   H4        1.0  0.4616754875741905  0.9637352790440659  0.6320940065356949  1.0000
  H   H5        1.0  0.3585192451093988  0.8057997600793598  0.8094746272710722  1.0000
  H   H6        1.0  0.6414871851443493  0.19421525832478184  0.19051949479255367  1.0000
  H   H7        1.0  0.1820463033773905  0.031566934169518404  0.8476490521158553  1.0000
  H   H8        1.0  0.8179543498230476  0.9684494194902203  0.1523437901470501  1.0000
  H   H9        1.0  0.9878969135641215  0.6061321816512404  0.09138444565636664  1.0000
  H   H10       1.0  0.012109376508242115  0.39388399529690343  0.9086041615046909  1.0000
  H   H11       1.0  0.13001722032805665  0.4367110940662756  0.2817419830006002  1.0000
  H   H12       1.0  0.869980059827938  0.5632870324736248  0.7182516017537283  1.0000
  H   H13       1.0  0.4120825974862683  0.8356756762925104  0.9894087200918591  1.0000
  H   H14       1.0  0.5879327330531651  0.16432715924186428  0.01059519655666464  1.0000
  H   H15       1.0  0.4020652526822204  0.3724162974846765  0.5310129515259376  1.0000
  H   H16       1.0  0.5979171084417205  0.6275820378394174  0.4689860201857171  1.0000
  H   H17       1.0  0.20888627709693716  0.3900209107357496  0.4586160145095022  1.0000
  H   H18       1.0  0.7911087896472895  0.60995906329471  0.5413799366348186  1.0000
  C   C1        1.0  0.11865483971953242  0.9397804876750727  0.7062696932311496  1.0000
  C   C2        1.0  0.88134544637267  0.060219179624425606  0.29372682521506016  1.0000
  C   C3        1.0  0.19990422646687733  0.8989046879969892  0.8257615256164995  1.0000
  C   C4        1.0  0.8001023912871119  0.10111195952253378  0.17423764768993516  1.0000
  C   C5        1.0  0.19255078183153534  0.7275555087159732  0.024515225297818737  1.0000
  C   C6        1.0  0.8074580165548328  0.27244277456822635  0.9754813496228678  1.0000
  C   C7        1.0  0.11432865022793237  0.6160572917338103  0.10990021581196166  1.0000
  C   C8        1.0  0.8856903078132919  0.3839338296540191  0.8900927072285538  1.0000
  C   C9        1.0  0.19483611288391245  0.5205660379381883  0.21691166654851196  1.0000
  C   C10       1.0  0.8051694299809425  0.4794308233747203  0.7830846573543367  1.0000
  C   C11       1.0  0.360473754449842  0.5284114912855388  0.24132229400619554  1.0000
  C   C12       1.0  0.6395320117915093  0.4715841718872584  0.758678650574545  1.0000
  C   C13       1.0  0.43497215447546717  0.6431139845890288  0.15548179638965817  1.0000
  C   C14       1.0  0.5650405011329979  0.35687763027917896  0.8445225155501533  1.0000
  C   C15       1.0  0.3511404978814525  0.7448052628322516  0.048740967011823996  1.0000
  C   C16       1.0  0.6488704419374401  0.2551876339500581  0.9512606772502393  1.0000
  C   C17       1.0  0.30980528803034  0.44972027664546493  0.4578223753301883  1.0000
  C   C18       1.0  0.690175699751862  0.5502752756010382  0.5421772245920166  1.0000
  C   C19       1.0  0.19105483902767864  0.65409790465138  0.4799929668571608  1.0000
  C   C20       1.0  0.8089199916019467  0.34589635357572496  0.5200093938228108  1.0000
  N   N1        1.0  0.5937682718136231  0.6709206247230098  0.17987677408726907  1.0000
  N   N2        1.0  0.4062377765656748  0.32908224288396326  0.8201282944167332  1.0000
  O   O1        1.0  0.22135261457481886  0.9882520724385704  0.6115130104326737  1.0000
  O   O2        1.0  0.7786530148087465  0.011734598800288197  0.388475182083276  1.0000
  O   O3        1.0  0.9627620762061115  0.9251570762062258  0.7103328295665035  1.0000
  O   O4        1.0  0.03725354613870729  0.07484905715502072  0.2896820837923144  1.0000
  O   O5        1.0  0.1017235850371419  0.8139761167961698  0.9223660247217325  1.0000
  O   O6        1.0  0.8982833034121928  0.18604212024264655  0.07763730560282768  1.0000
  O   O7        1.0  0.44495302675182563  0.43570303049645537  0.3453053444668583  1.0000
  O   O8        1.0  0.5550441668854659  0.5643052861175023  0.6546963716743618  1.0000
  O   O9        1.0  0.01885508618318  0.6985658052159779  0.539706282862781  1.0000
  O   O10       1.0  0.9811156114302122  0.3014341608636003  0.4602983268240379  1.0000
  O   O11       1.0  0.2752590910253119  0.7597904827850145  0.4345601652132558  1.0000
  O   O12       1.0  0.7247238832418148  0.24020537706667974  0.5654462594048225  1.0000
  O   O13       1.0  0.7251834462477689  0.5402675865026368  0.2344714199514684  1.0000
  O   O14       1.0  0.2748132726525372  0.4597325255175378  0.7655352640677789  1.0000
  O   O15       1.0  0.590379385125061  0.8298810098622129  0.14357800376332364  1.0000
  O   O16       1.0  0.40963029709983806  0.17011638746887306  0.8564301810819116  1.0000
  O   O17       1.0  0.4183066274714022  0.05749646892546419  0.3376546129188185  1.0000
  O   O18       1.0  0.5816770482328054  0.9424962469019464  0.6623442273369164  1.0000
