data_image0
_chemical_formula_structural       Zn4H26C86Br20N4O20
_chemical_formula_sum              "Zn4 H26 C86 Br20 N4 O20"
_cell_length_a       16.57624872444595
_cell_length_b       17.755615704668724
_cell_length_c       28.683158716525973
_cell_angle_alpha    89.27466763943707
_cell_angle_beta     89.86102817314634
_cell_angle_gamma    90.5855449192919

_space_group_name_H-M_alt    "P 1"
_space_group_IT_number       1

loop_
  _space_group_symop_operation_xyz
  'x, y, z'

loop_
  _atom_site_type_symbol
  _atom_site_label
  _atom_site_symmetry_multiplicity
  _atom_site_fract_x
  _atom_site_fract_y
  _atom_site_fract_z
  _atom_site_occupancy
  Zn  Zn1       1.0  0.5812749632561848  0.5000137572907732  0.5010588476178057  1.0000
  Zn  Zn2       1.0  0.41112023062895986  0.49651365545438614  0.5017311310347168  1.0000
  Zn  Zn3       1.0  0.41230380405513495  0.502221895068992  0.8820446185020148  1.0000
  Zn  Zn4       1.0  0.5831227568888123  0.5056006691014829  0.8812685350074503  1.0000
  H   H1        1.0  0.28337353589068204  0.5621951955677461  0.5585820627643869  1.0000
  H   H2        1.0  0.2823786912896509  0.42018326154396146  0.4448104298045125  1.0000
  H   H3        1.0  0.7114907037937853  0.5689931446508967  0.5595042245651669  1.0000
  H   H4        1.0  0.706889880608891  0.42298028883219985  0.4476105901612684  1.0000
  H   H5        1.0  0.6273709330043644  0.736231488518371  0.4718111190389821  1.0000
  H   H6        1.0  0.3718890771268448  0.7323130303150976  0.4974924877230791  1.0000
  H   H7        1.0  0.6340549101228206  0.25694296238717135  0.5372041564346333  1.0000
  H   H8        1.0  0.37879541803114586  0.26275437696312315  0.5094497173990931  1.0000
  H   H9        1.0  0.6166667633903415  0.44298293201611477  0.7756508695227995  1.0000
  H   H10       1.0  0.6040951575003817  0.44321484446694387  0.6032394879174987  1.0000
  H   H11       1.0  0.3932986532545255  0.6065334467816614  0.6480235347354153  1.0000
  H   H12       1.0  0.3966417095896019  0.6055700402065866  0.7350634649613143  1.0000
  H   H13       1.0  0.378766296963171  0.5089821686658598  0.0289524382919382  1.0000
  H   H14       1.0  0.6321849811032364  0.4607049772313944  0.027912459148595303  1.0000
  H   H15       1.0  0.3732277015961643  0.49231663611430315  0.35508352607279653  1.0000
  H   H16       1.0  0.6289352796228512  0.4545076834502381  0.3578920326795583  1.0000
  H   H17       1.0  0.7119328348412851  0.5562988900812086  0.813233882687456  1.0000
  H   H18       1.0  0.7102097858733316  0.440546900639646  0.939835170621123  1.0000
  H   H19       1.0  0.2845333274473845  0.5870033936819966  0.833967124244559  1.0000
  H   H20       1.0  0.28322549167604183  0.4074747863770512  0.9280338060282319  1.0000
  H   H21       1.0  0.36981320328088424  0.7377918863451854  0.8775052612734627  1.0000
  H   H22       1.0  0.6246581614996457  0.7429698633433759  0.9042493401572642  1.0000
  H   H23       1.0  0.36950319221729433  0.2661833957281416  0.8673108402193678  1.0000
  H   H24       1.0  0.6270555846977358  0.2702499990402033  0.8489356895257175  1.0000
  H   H25       1.0  0.6733465042266288  0.2643358058568808  0.7277589410756349  1.0000
  H   H26       1.0  0.6579883453325975  0.36400470818990993  0.5780544094168718  1.0000
  C   C1        1.0  0.49864724527481735  0.6416886940517872  0.4832474529087635  1.0000
  C   C2        1.0  0.48846115949781677  0.5305316229522817  0.5893204678550248  1.0000
  C   C3        1.0  0.5066958427604645  0.3533595533776008  0.5235481460669078  1.0000
  C   C4        1.0  0.496452119112682  0.46826430590412843  0.41380308802949634  1.0000
  C   C5        1.0  0.4962131899385227  0.6479218596759754  0.8942948552130403  1.0000
  C   C6        1.0  0.4954293412665434  0.5312087165144491  0.7920571429026637  1.0000
  C   C7        1.0  0.49714916963969086  0.3604751682471274  0.8637163530866234  1.0000
  C   C8        1.0  0.5023991465158132  0.4806958962186771  0.9711356008795491  1.0000
  C   C9        1.0  0.2469767047190956  0.530917434308357  0.533718585796727  1.0000
  C   C10       1.0  0.16315719584189028  0.5311111285070143  0.5352710985040546  1.0000
  C   C11       1.0  0.11749782094188527  0.48858877079302954  0.5029645935393035  1.0000
  C   C12       1.0  0.1625811549966016  0.447546633836808  0.4699174149528531  1.0000
  C   C13       1.0  0.24650211260324537  0.4505213404848122  0.4701769639216877  1.0000
  C   C14       1.0  0.03266940788152079  0.48776156162524137  0.5036780634523268  1.0000
  C   C15       1.0  0.9590816240880286  0.4883316265595498  0.5046552023917101  1.0000
  C   C16       1.0  0.8742594876664072  0.49002619927048846  0.504819720433467  1.0000
  C   C17       1.0  0.8302990781519665  0.5336931937311177  0.5370375831440769  1.0000
  C   C18       1.0  0.7465068095807581  0.5358033364656835  0.5351387620613295  1.0000
  C   C19       1.0  0.7439989281842401  0.45361252411083103  0.4724587033238166  1.0000
  C   C20       1.0  0.827668097522448  0.44893007997162476  0.4722354142842065  1.0000
  C   C21       1.0  0.4995232188635013  0.7261335195965658  0.48447105621742287  1.0000
  C   C22       1.0  0.5720739246594847  0.7663947710024247  0.4791882510610251  1.0000
  C   C23       1.0  0.5727429114948491  0.844073598892372  0.48418473170337256  1.0000
  C   C24       1.0  0.5017869336390106  0.884882751378072  0.49469220891414534  1.0000
  C   C25       1.0  0.4292577112546212  0.8419137957183696  0.4985364046072576  1.0000
  C   C26       1.0  0.427861541812632  0.7643122656861366  0.4936275363073932  1.0000
  C   C27       1.0  0.5031476054690315  0.9632865880807986  0.5016508766821347  1.0000
  C   C28       1.0  0.5037044113964624  0.03106989940945231  0.5084938971454278  1.0000
  C   C29       1.0  0.5040780263473436  0.10956320480129732  0.51509179048319  1.0000
  C   C30       1.0  0.5758156929885629  0.15018090060147676  0.5258578653930713  1.0000
  C   C31       1.0  0.5773910694110356  0.22811183769712778  0.5298169715005159  1.0000
  C   C32       1.0  0.5062285277303714  0.26888316432214054  0.5234997091126773  1.0000
  C   C33       1.0  0.43374569428586796  0.23067000735635898  0.5142416478518683  1.0000
  C   C34       1.0  0.43296228970010014  0.1529467793873067  0.5102174717559009  1.0000
  C   C35       1.0  0.4979842059383657  0.5324727498465691  0.7397871808391372  1.0000
  C   C36       1.0  0.5556648748480625  0.48890520565406353  0.7150953878762325  1.0000
  C   C37       1.0  0.44092814492706367  0.5736700873434588  0.7155247451675281  1.0000
  C   C38       1.0  0.6139214303585163  0.44325272633593477  0.7377697050587315  1.0000
  C   C39       1.0  0.6671398039341055  0.39913803628046207  0.7133190186459687  1.0000
  C   C40       1.0  0.4940168887053673  0.5329486525521575  0.64134189438699  1.0000
  C   C41       1.0  0.43891372300763715  0.5740946242903391  0.6665241055000948  1.0000
  C   C42       1.0  0.5530604605622358  0.4889448246136965  0.6651576275695348  1.0000
  C   C43       1.0  0.6071825162535163  0.44210421423655794  0.641040400153081  1.0000
  C   C44       1.0  0.6631173631622359  0.39757966120861005  0.663560563686481  1.0000
  C   C45       1.0  0.5049480035091916  0.4832904350760431  0.023379110793023  1.0000
  C   C46       1.0  0.43442402089481646  0.4994338508010189  0.04805015647603741  1.0000
  C   C47       1.0  0.43636018135094184  0.5037626565689735  0.09625812939442822  1.0000
  C   C48       1.0  0.5081212053262545  0.49145428241568834  0.12217889986452952  1.0000
  C   C49       1.0  0.5785507558787798  0.47636978137429514  0.09562849795018023  1.0000
  C   C50       1.0  0.5773490696218386  0.4722118847704594  0.0473479575771165  1.0000
  C   C51       1.0  0.5088277839843656  0.4923537240266073  0.1712755693424057  1.0000
  C   C52       1.0  0.5084012608364715  0.49027157847259417  0.21389862556758038  1.0000
  C   C53       1.0  0.5061993802218367  0.4852271450226838  0.2629161511670405  1.0000
  C   C54       1.0  0.4330146199252168  0.49267212262587645  0.28832745507851604  1.0000
  C   C55       1.0  0.42991130110086556  0.4857910154220804  0.3364813781754634  1.0000
  C   C56       1.0  0.5004556217084399  0.47158203886420585  0.3616873173899863  1.0000
  C   C57       1.0  0.5740232973013589  0.4645260897727042  0.3381864875729974  1.0000
  C   C58       1.0  0.5764621516189549  0.47135453715108633  0.2899286659000069  1.0000
  C   C59       1.0  0.7475556945529646  0.5291414922099378  0.8403912587838962  1.0000
  C   C60       1.0  0.8312287693123251  0.5251338272101479  0.8374687400126961  1.0000
  C   C61       1.0  0.8757846579731634  0.48905835542691284  0.8732688788571111  1.0000
  C   C62       1.0  0.8300869524549126  0.4570773943027006  0.9105192672163795  1.0000
  C   C63       1.0  0.7466572371935383  0.46366924483474764  0.9113136656819595  1.0000
  C   C64       1.0  0.9606537479862138  0.4868596351017161  0.8728409601013923  1.0000
  C   C65       1.0  0.03419586203734331  0.4871170799568104  0.874165294968478  1.0000
  C   C66       1.0  0.11893363859892497  0.48991210758869397  0.8762413444306391  1.0000
  C   C67       1.0  0.16459450460277478  0.5437593608059929  0.8501668609412507  1.0000
  C   C68       1.0  0.24822534585104702  0.546146277085832  0.8536547104516288  1.0000
  C   C69       1.0  0.24755468239165163  0.4454517874617423  0.9064369953812562  1.0000
  C   C70       1.0  0.16378679283236855  0.4400258223841719  0.904896985378386  1.0000
  C   C71       1.0  0.4971106561968098  0.7322931528564639  0.8912584708696868  1.0000
  C   C72       1.0  0.4255395293297538  0.7700450606879913  0.8809504771679145  1.0000
  C   C73       1.0  0.4266867499259702  0.8475296308348775  0.8744744929878437  1.0000
  C   C74       1.0  0.4987645685878802  0.890967756947177  0.8781441555990526  1.0000
  C   C75       1.0  0.5697197321186209  0.8505257156557563  0.8896700301362517  1.0000
  C   C76       1.0  0.5693692258141921  0.7728760907962526  0.8960766607635762  1.0000
  C   C77       1.0  0.4996995200653132  0.969502627760669  0.8706560895122594  1.0000
  C   C78       1.0  0.5000247434267281  0.03767440295136031  0.8643065898263202  1.0000
  C   C79       1.0  0.4992086466986691  0.11672793006032833  0.8598911976496455  1.0000
  C   C80       1.0  0.42641293719901796  0.15782344441679194  0.8633629766826942  1.0000
  C   C81       1.0  0.4257519684487931  0.2358611320347849  0.8634043119785489  1.0000
  C   C82       1.0  0.49826670133142403  0.27644253226760895  0.8592346725009606  1.0000
  C   C83       1.0  0.5710541064139818  0.23837237422524993  0.8532016652648339  1.0000
  C   C84       1.0  0.571032837805248  0.16012586463779147  0.8535512395912621  1.0000
  C   C85       1.0  0.7275963757529027  0.35725355773007555  0.7428511756673758  1.0000
  C   C86       1.0  0.721787178068368  0.35198101968814655  0.6364275287757266  1.0000
  Br  Br1       1.0  0.1106311458559048  0.38839630070332015  0.42478814759442685  1.0000
  Br  Br2       1.0  0.1123875600970621  0.5890282883381277  0.5811191618836419  1.0000
  Br  Br3       1.0  0.877049158274815  0.3875334976563138  0.4277024426906735  1.0000
  Br  Br4       1.0  0.883303153947011  0.5902845923520844  0.5829449019039643  1.0000
  Br  Br5       1.0  0.330902561269049  0.8908123334940756  0.5120664493582227  1.0000
  Br  Br6       1.0  0.6721542030079135  0.8968550092916915  0.4771589168117387  1.0000
  Br  Br7       1.0  0.3336801738000972  0.10443673933841072  0.4962487335548077  1.0000
  Br  Br8       1.0  0.6733389274412644  0.09719246639368613  0.534646345514254  1.0000
  Br  Br9       1.0  0.678145691231478  0.46143078327654063  0.1266088376835057  1.0000
  Br  Br10      1.0  0.3393264304927328  0.5273262437048558  0.1276824336378652  1.0000
  Br  Br11      1.0  0.677582260613512  0.46249269965856155  0.25959987895340225  1.0000
  Br  Br12      1.0  0.3357577450580038  0.5131009438734041  0.2562818420775841  1.0000
  Br  Br13      1.0  0.8806588208839513  0.40654324566438055  0.9604774791150561  1.0000
  Br  Br14      1.0  0.8834370238609566  0.568811121963833  0.7854271411464779  1.0000
  Br  Br15      1.0  0.11163989538605529  0.3651463419847191  0.9413635401619018  1.0000
  Br  Br16      1.0  0.11347695684325738  0.6139426403609819  0.8106081996608127  1.0000
  Br  Br17      1.0  0.6687359737814305  0.903797502237424  0.896200383648605  1.0000
  Br  Br18      1.0  0.3283889133661688  0.8955454701519089  0.8591448264924255  1.0000
  Br  Br19      1.0  0.6706583050258742  0.11020625026950628  0.8459260918385924  1.0000
  Br  Br20      1.0  0.3265200219985259  0.10580768946548601  0.8696605607448049  1.0000
  N   N1        1.0  0.2870500251299929  0.49138436628103227  0.501654467253573  1.0000
  N   N2        1.0  0.7051059625661368  0.4967260721864266  0.5031945083866703  1.0000
  N   N3        1.0  0.7070101277369503  0.49964902272530753  0.8769657953651945  1.0000
  N   N4        1.0  0.2880989009810691  0.497749310641318  0.8813050731358916  1.0000
  O   O1        1.0  0.5657692456352237  0.6088424855559751  0.47706033157943756  1.0000
  O   O2        1.0  0.4305613885669003  0.6092990640410251  0.4898919968751301  1.0000
  O   O3        1.0  0.4189404352447638  0.518633219710722  0.5721914618944198  1.0000
  O   O4        1.0  0.5539256267801916  0.5385810258134285  0.566120910661276  1.0000
  O   O5        1.0  0.44014030432204265  0.38532938959819774  0.5148675345858464  1.0000
  O   O6        1.0  0.5738231992243782  0.38803171736129366  0.5306989707713968  1.0000
  O   O7        1.0  0.5624243853250731  0.4589843329763568  0.4360607906863407  1.0000
  O   O8        1.0  0.4272616351850331  0.47675865820575325  0.43219071628947603  1.0000
  O   O9        1.0  0.4279816583375008  0.6157521369657104  0.8883622095342646  1.0000
  O   O10       1.0  0.5631478092754776  0.6151025990333708  0.9012028418147793  1.0000
  O   O11       1.0  0.5618246299051961  0.5411561918656674  0.8135385412422027  1.0000
  O   O12       1.0  0.42669345546428156  0.5192332652793256  0.8105187766219758  1.0000
  O   O13       1.0  0.563803071793501  0.3960614077603637  0.8588827615585686  1.0000
  O   O14       1.0  0.42921705202450505  0.3896525699679358  0.8731194425320653  1.0000
  O   O15       1.0  0.4336001334063153  0.48895579858521654  0.9523293817500686  1.0000
  O   O16       1.0  0.5690814968395228  0.47168421924164505  0.949712508648375  1.0000
  O   O17       1.0  0.7157520268192028  0.281823191712725  0.7486915632838915  1.0000
  O   O18       1.0  0.7795292175284132  0.389676687306988  0.7650839393523513  1.0000
  O   O19       1.0  0.7098087200621777  0.3442554638690751  0.5897607109353729  1.0000
  O   O20       1.0  0.7804295039627788  0.3228470997743358  0.6546626329598553  1.0000
