data_image0
_chemical_formula_structural       Cu4H44C72N4O12
_chemical_formula_sum              "Cu4 H44 C72 N4 O12"
_cell_length_a       7.1872698200950325
_cell_length_b       12.1833621279798
_cell_length_c       15.71839691935841
_cell_angle_alpha    89.99619418109847
_cell_angle_beta     89.99463510913333
_cell_angle_gamma    89.99897043895511

_space_group_name_H-M_alt    "P 1"
_space_group_IT_number       1

loop_
  _space_group_symop_operation_xyz
  'x, y, z'

loop_
  _atom_site_type_symbol
  _atom_site_label
  _atom_site_symmetry_multiplicity
  _atom_site_fract_x
  _atom_site_fract_y
  _atom_site_fract_z
  _atom_site_occupancy
  Cu  Cu1       1.0  0.9641575275882982  0.3826880694902215  0.9585344518172222  1.0000
  Cu  Cu2       1.0  0.5358524733127865  0.617256625892118  0.4585146027304106  1.0000
  Cu  Cu3       1.0  0.0358783354229217  0.8827424584498118  0.5415027843644751  1.0000
  Cu  Cu4       1.0  0.4641619422851376  0.11730805766161011  0.0414570275839097  1.0000
  H   H1        1.0  0.9027780641834295  0.6132804750163601  0.1712040643577311  1.0000
  H   H2        1.0  0.5969864525883608  0.3866177705162599  0.6712036981495118  1.0000
  H   H3        1.0  0.097077845936731  0.11336685211650627  0.3288263005077425  1.0000
  H   H4        1.0  0.40289903624984186  0.8867071331828955  0.8287799002112521  1.0000
  H   H5        1.0  0.968821486017788  0.5766145342007717  0.3222972434225965  1.0000
  H   H6        1.0  0.5309772808312871  0.42333296670652504  0.8222997309505686  1.0000
  H   H7        1.0  0.031099486042400294  0.076676194523813  0.17772925696200298  1.0000
  H   H8        1.0  0.4689572356574842  0.9234100940720394  0.6776890002959348  1.0000
  H   H9        1.0  0.1451466305076963  0.40723959471423404  0.3641579340930008  1.0000
  H   H10       1.0  0.3547923571444542  0.5927664777601152  0.864145682357254  1.0000
  H   H11       1.0  0.8549080994265805  0.9072585991294487  0.1358804028790033  1.0000
  H   H12       1.0  0.645271366027984  0.09278224901505179  0.6358331149673759  1.0000
  H   H13       1.0  0.2439027727454146  0.27556024949877417  0.2516006250190941  1.0000
  H   H14       1.0  0.25616237631444955  0.7244547794985577  0.7515674340432739  1.0000
  H   H15       1.0  0.7562100222934516  0.775564831133984  0.24845139648179068  1.0000
  H   H16       1.0  0.7439893744309813  0.22445392736873523  0.7483894054153808  1.0000
  H   H17       1.0  0.08182824739024849  0.6557835577935621  0.0678193148032449  1.0000
  H   H18       1.0  0.41803407604736975  0.3441612518073356  0.5678157226986684  1.0000
  H   H19       1.0  0.9180737418403948  0.1558255383818903  0.43220761933067553  1.0000
  H   H20       1.0  0.5818929888710114  0.8442100904139026  0.932168123335039  1.0000
  H   H21       1.0  0.8085378352632303  0.5951816161188148  0.7407105342895548  1.0000
  H   H22       1.0  0.6913737523913637  0.4048148324054426  0.24069040459009017  1.0000
  H   H23       1.0  0.1914757255973782  0.09520649596094438  0.7593056768542398  1.0000
  H   H24       1.0  0.3086156589189882  0.9048275612788285  0.2593028870692251  1.0000
  H   H25       1.0  0.8433258057637614  0.796673272570814  0.7252571740656749  1.0000
  H   H26       1.0  0.6566460114219692  0.2033122056230567  0.2252474832744653  1.0000
  H   H27       1.0  0.156668022606361  0.2967037648709051  0.774745623779431  1.0000
  H   H28       1.0  0.343346437632853  0.7033232058767425  0.2747477709475988  1.0000
  H   H29       1.0  0.09589619553957358  0.8066748447575094  0.05998550529723451  1.0000
  H   H30       1.0  0.40415696356533454  0.1932435569440756  0.5600092569954143  1.0000
  H   H31       1.0  0.9040668304057533  0.30673025571160645  0.4400204041652244  1.0000
  H   H32       1.0  0.595810634949423  0.6933178276528693  0.9399797069740572  1.0000
  H   H33       1.0  0.11097386433790747  0.00409170282812  0.0411372275126354  1.0000
  H   H34       1.0  0.3891569210074407  0.9958316188059444  0.5411615768558633  1.0000
  H   H35       1.0  0.8890201646732477  0.504142187602156  0.45885923616368973  1.0000
  H   H36       1.0  0.6108631574441645  0.4958985138467257  0.9588171090737417  1.0000
  H   H37       1.0  0.03642304327473769  0.09109719366744432  0.9022651331168632  1.0000
  H   H38       1.0  0.4636541801414751  0.9088554986907837  0.4022746277221074  1.0000
  H   H39       1.0  0.9635739418905515  0.5911421017291474  0.5977239288156185  1.0000
  H   H40       1.0  0.5363365073986799  0.40889057021910713  0.09770000842215151  1.0000
  H   H41       1.0  0.9307595851169592  0.9722614489910201  0.7814340664186759  1.0000
  H   H42       1.0  0.5692590899566881  0.0277355651436579  0.28142237792322083  1.0000
  H   H43       1.0  0.06923891122517739  0.47227891752336865  0.7185649041326982  1.0000
  H   H44       1.0  0.4307147806466531  0.5277324146469127  0.2185480751188535  1.0000
  C   C1        1.0  0.20539181044014035  0.28834737947389044  0.08601234986542748  1.0000
  C   C2        1.0  0.2946921627995565  0.7116574087763751  0.5859896216092366  1.0000
  C   C3        1.0  0.7947289641045996  0.7883478188385594  0.4140326602149926  1.0000
  C   C4        1.0  0.705425172814003  0.211649169496809  0.9139786840252812  1.0000
  C   C5        1.0  0.13383266985481868  0.369993292886889  0.1486231454610092  1.0000
  C   C6        1.0  0.3661632661478364  0.6299765087822351  0.6486002501062557  1.0000
  C   C7        1.0  0.8662064389835322  0.8700229974161715  0.3514215364750086  1.0000
  C   C8        1.0  0.6339021656166891  0.13000405344039484  0.851369659032791  1.0000
  C   C9        1.0  0.0442628400114344  0.4686662799368689  0.1247148905257518  1.0000
  C   C10       1.0  0.45567819509349045  0.5312801538146346  0.624702104844623  1.0000
  C   C11       1.0  0.9557094178391521  0.9687117885597443  0.3753146022482454  1.0000
  C   C12       1.0  0.5443149537030365  0.031332885808481606  0.8752747259978336  1.0000
  C   C13       1.0  0.9828549860655968  0.5408378462602172  0.18885867291952957  1.0000
  C   C14       1.0  0.5169865901463807  0.4590949803627283  0.6888529417690137  1.0000
  C   C15       1.0  0.017053105497637895  0.0409044878226013  0.3111715530940984  1.0000
  C   C16       1.0  0.4829733298107114  0.9591570771065746  0.8111295197937451  1.0000
  C   C17       1.0  0.0193109481852574  0.5195284808683313  0.2741676659557156  1.0000
  C   C18       1.0  0.4805436279187488  0.4804287740581116  0.7741614930765977  1.0000
  C   C19       1.0  0.9806269772085016  0.0195811219443414  0.2258649143521012  1.0000
  C   C20       1.0  0.5194351547488978  0.9804888459869047  0.7258205209142474  1.0000
  C   C21       1.0  0.11445730142015258  0.42420349034585303  0.2976361050177516  1.0000
  C   C22       1.0  0.38546757054633923  0.5757788119882008  0.7976246826994214  1.0000
  C   C23       1.0  0.8855538068680886  0.9242336113836344  0.20239882631328499  1.0000
  C   C24       1.0  0.6145813384387253  0.07581048766046192  0.702352432452436  1.0000
  C   C25       1.0  0.16860777402580845  0.35008104803807777  0.235042665950786  1.0000
  C   C26       1.0  0.33139539393286543  0.6499066914981102  0.7350183293358797  1.0000
  C   C27       1.0  0.8314499975719299  0.8501055140958514  0.26500239075130594  1.0000
  C   C28       1.0  0.6687028548230813  0.14992822243453932  0.7649492947254259  1.0000
  C   C29       1.0  0.03252344478107011  0.6014923124508441  0.0172656957367394  1.0000
  C   C30       1.0  0.46738825577195076  0.3984486800144964  0.5172667913078471  1.0000
  C   C31       1.0  0.9674413326016802  0.10154084320253531  0.4827550872715207  1.0000
  C   C32       1.0  0.5325692416754393  0.8985002439305061  0.9827200228413062  1.0000
  C   C33       1.0  0.9894198229769129  0.6514142918079601  0.9385148720873887  1.0000
  C   C34       1.0  0.510528909315056  0.3485346046468578  0.4385091095805009  1.0000
  C   C35       1.0  0.010571242927007098  0.1514632946668044  0.5615016641775625  1.0000
  C   C36       1.0  0.4894301277165737  0.8485780967616209  0.0614698627650085  1.0000
  C   C37       1.0  0.9200247056282862  0.5888570043119116  0.8682105120964607  1.0000
  C   C38       1.0  0.5799009521549721  0.4111037452839668  0.3681909867531203  1.0000
  C   C39       1.0  0.08000434182026339  0.08890405107175783  0.6318117451201174  1.0000
  C   C40       1.0  0.420052103875065  0.9111361571885723  0.1317854446752165  1.0000
  C   C41       1.0  0.863992367788576  0.6450331253782764  0.7921993451755042  1.0000
  C   C42       1.0  0.6359350430739068  0.35494818022966257  0.2921802887818288  1.0000
  C   C43       1.0  0.1360267096799816  0.1450663789718192  0.70781687875877  1.0000
  C   C44       1.0  0.3640349391395077  0.8549680473464532  0.2078053563917024  1.0000
  C   C45       1.0  0.8822919693962348  0.7560470486837118  0.7845064216247124  1.0000
  C   C46       1.0  0.6176565049607204  0.2439398493999647  0.2844963255598287  1.0000
  C   C47       1.0  0.11770581500538668  0.2560765554668762  0.7154984393310145  1.0000
  C   C48       1.0  0.3823152923527714  0.7439522788710279  0.21549177624577  1.0000
  C   C49       1.0  0.9527099365087607  0.8218358940538623  0.8523365069179576  1.0000
  C   C50       1.0  0.5472537748636909  0.17814018691507988  0.35233401947716186  1.0000
  C   C51       1.0  0.0472650771852869  0.3218638698658083  0.6476694669082903  1.0000
  C   C52       1.0  0.4526907051077557  0.6781585453550605  0.14765042617205637  1.0000
  C   C53       1.0  0.0031445192725598997  0.7703823548765246  0.9309099121939681  1.0000
  C   C54       1.0  0.4968335806153873  0.22957934137482278  0.430909228703392  1.0000
  C   C55       1.0  0.9968250234555497  0.2704180624396741  0.5690999469728268  1.0000
  C   C56       1.0  0.5031191527275567  0.7296162749706453  0.0690745125946037  1.0000
  C   C57       1.0  0.05844687315610739  0.8401923670443381  0.9981638221966804  1.0000
  C   C58       1.0  0.4415897142154179  0.1597462499082667  0.49817348897293817  1.0000
  C   C59       1.0  0.9415178704306368  0.3402378162291839  0.5018437639745272  1.0000
  C   C60       1.0  0.5583678187737462  0.6597982599838945  0.0018106172709338002  1.0000
  C   C61       1.0  0.06749425043308578  0.9530729367669012  0.9878231952985956  1.0000
  C   C62       1.0  0.43258899087847874  0.046865757117977594  0.4878383422638848  1.0000
  C   C63       1.0  0.9324769728434672  0.4531134849425769  0.512176113522564  1.0000
  C   C64       1.0  0.5673968479194259  0.5469175901138358  0.0121374995882135  1.0000
  C   C65       1.0  0.025463933305232396  0.0023176738116816994  0.9094152959653529  1.0000
  C   C66       1.0  0.4745951206300702  0.9976302937638124  0.4094210887271572  1.0000
  C   C67       1.0  0.9745161366254746  0.5023614389544946  0.5905820921347669  1.0000
  C   C68       1.0  0.5253749149784213  0.4976685705031655  0.09055349279954329  1.0000
  C   C69       1.0  0.9677135743148284  0.9367306212775759  0.8427241479879798  1.0000
  C   C70       1.0  0.5322952500729058  0.0632380864269209  0.34272304321621044  1.0000
  C   C71       1.0  0.032274817093672  0.4367644958213576  0.657277262963099  1.0000
  C   C72       1.0  0.46765533243307533  0.5632570851654464  0.1572538773555934  1.0000
  N   N1        1.0  0.0195303531714401  0.4968766627171134  0.038481987721326  1.0000
  N   N2        1.0  0.48041315073785995  0.5030608455726266  0.5384714914446532  1.0000
  N   N3        1.0  0.980455002969698  0.9969267168735669  0.46154988920050505  1.0000
  N   N4        1.0  0.5195808127675221  0.0031153915216606  0.9615093172178106  1.0000
  O   O1        1.0  0.1282255499684481  0.2747110540605107  0.013310358112242699  1.0000
  O   O2        1.0  0.37184140864334836  0.7252557271058037  0.5132779306120839  1.0000
  O   O3        1.0  0.8718441365463006  0.7747511029393834  0.486748704699707  1.0000
  O   O4        1.0  0.6282240552234339  0.22529456342599022  0.9866744156180829  1.0000
  O   O5        1.0  0.3446321431481961  0.23169205427166872  0.11036954532124099  1.0000
  O   O6        1.0  0.15552889575423728  0.7683664304402807  0.6103740349842327  1.0000
  O   O7        1.0  0.655587665781823  0.7316263946353775  0.3896516212438002  1.0000
  O   O8        1.0  0.8446786287158401  0.26829965936907735  0.8896225639594064  1.0000
  O   O9        1.0  0.9021404504685503  0.48254326471521847  0.8682148643749059  1.0000
  O   O10       1.0  0.5977545980565111  0.5174248723957291  0.3681815453605282  1.0000
  O   O11       1.0  0.097906442598422  0.9825833716649583  0.6318147560812193  1.0000
  O   O12       1.0  0.4021653078930639  0.017455194899469  0.13178306962750239  1.0000
