data_image0
_chemical_formula_structural       Er4H16C20S2N8O28
_chemical_formula_sum              "Er4 H16 C20 S2 N8 O28"
_cell_length_a       6.591333796671753
_cell_length_b       10.970390875738639
_cell_length_c       12.99433656024593
_cell_angle_alpha    105.72971367236057
_cell_angle_beta     90.00431307463211
_cell_angle_gamma    107.48020728978487

_space_group_name_H-M_alt    "P 1"
_space_group_IT_number       1

loop_
  _space_group_symop_operation_xyz
  'x, y, z'

loop_
  _atom_site_type_symbol
  _atom_site_label
  _atom_site_symmetry_multiplicity
  _atom_site_fract_x
  _atom_site_fract_y
  _atom_site_fract_z
  _atom_site_occupancy
  Er  Er1       1.0  0.7796502425819652  0.7059268807346226  0.7139151159828001  1.0000
  Er  Er2       1.0  0.07383529523563229  0.2941600641185571  0.7861145193352782  1.0000
  Er  Er3       1.0  0.22034863112430264  0.29407345754727726  0.28608579146543883  1.0000
  Er  Er4       1.0  0.9261711634975427  0.7058402731259645  0.21388407932134598  1.0000
  H   H1        1.0  0.3681837503937188  0.8870742614026733  0.8630131194556795  1.0000
  H   H2        1.0  0.4810668382798796  0.11282031259854357  0.6369678379915624  1.0000
  H   H3        1.0  0.6318211914247129  0.11292607618459977  0.13698624881662616  1.0000
  H   H4        1.0  0.5189274613035763  0.8871830150692542  0.3630314441109518  1.0000
  H   H5        1.0  0.2500105800648953  0.8489286845991442  0.04326813378219184  1.0000
  H   H6        1.0  0.401032648970471  0.1509117842377846  0.4566963738718924  1.0000
  H   H7        1.0  0.7499948156364766  0.15107862987943574  0.9567312904369981  1.0000
  H   H8        1.0  0.5989611742578589  0.8490875562491169  0.5433019966645601  1.0000
  H   H9        1.0  0.4837927082268294  0.43519144255636605  0.6459600396750174  1.0000
  H   H10       1.0  0.048726553342675005  0.564875521784671  0.8540312391091119  1.0000
  H   H11       1.0  0.5162056450863233  0.5648108893182523  0.3540413235423968  1.0000
  H   H12       1.0  0.9512915237143176  0.4351268113834761  0.14597320304221023  1.0000
  H   H13       1.0  0.6273072989364153  0.44013343569837804  0.7407988212842368  1.0000
  H   H14       1.0  0.18736152220206756  0.5598370050965115  0.7592134472070595  1.0000
  H   H15       1.0  0.37267943854551083  0.5598669039727682  0.259205164515862  1.0000
  H   H16       1.0  0.8126509839838788  0.44016632386936266  0.24078891380164433  1.0000
  C   C1        1.0  0.6358737340423345  0.7389417172214149  0.9653758131559653  1.0000
  C   C2        1.0  0.8968436148598686  0.2610006579062157  0.5346628892424758  1.0000
  C   C3        1.0  0.3641246851011958  0.26105164315458734  0.03462272941519728  1.0000
  C   C4        1.0  0.10315118332430011  0.7390036668938575  0.4653373904018847  1.0000
  C   C5        1.0  0.8025006958726024  0.6731860486728107  0.9558974327985295  1.0000
  C   C6        1.0  0.12919081950079206  0.3267132744570844  0.5441154166480968  1.0000
  C   C7        1.0  0.19749269549177484  0.3268033245359802  0.04410019812341656  1.0000
  C   C8        1.0  0.8708009882120747  0.6732850692402931  0.4558827259621906  1.0000
  C   C9        1.0  0.43948282768491953  0.8389718797850062  0.9091705748246496  1.0000
  C   C10       1.0  0.6004448573451242  0.16095800967192986  0.5908305361739037  1.0000
  C   C11       1.0  0.5605196002439429  0.1610264642186578  0.09082833762305137  1.0000
  C   C12       1.0  0.3995484239243011  0.8390463154709021  0.4091705130861384  1.0000
  C   C13       1.0  0.42925374129954724  0.6980784551897583  0.13210528361882715  1.0000
  C   C14       1.0  0.7311590039506655  0.3017694496291766  0.36785980564432913  1.0000
  C   C15       1.0  0.570746649548056  0.30192188308757995  0.8678956238571299  1.0000
  C   C16       1.0  0.26883581579929944  0.6982318841076987  0.6321382510456175  1.0000
  C   C17       1.0  0.48861564041479966  0.7543474681223683  0.04081689767557601  1.0000
  C   C18       1.0  0.7342211427799229  0.2455361405431374  0.45917292888920963  1.0000
  C   C19       1.0  0.5113847722251991  0.245649879429969  0.9591825564893666  1.0000
  C   C20       1.0  0.2657701227474476  0.7544671874719737  0.5408271228012678  1.0000
  S   S1        1.0  0.9760890028844218  6.9488965984e-05  0.7500280901764212  1.0000
  S   S2        1.0  0.023922505873493052  0.9999318453971423  0.24997150610519706  1.0000
  N   N1        1.0  0.6008317526793903  0.7900362390817006  0.883313325381131  1.0000
  N   N2        1.0  0.8107244756781142  0.20993241778437263  0.6167313975918984  1.0000
  N   N3        1.0  0.3991676632123742  0.20995911488247287  0.11668567298691807  1.0000
  N   N4        1.0  0.18926930396543182  0.790072904152538  0.38326987956658337  1.0000
  N   N5        1.0  0.36807616701966567  0.8185013425467527  0.0027409242289948067  1.0000
  N   N6        1.0  0.5495237825872863  0.18140112453430385  0.49724511907747615  1.0000
  N   N7        1.0  0.631924743541255  0.18149700112327583  0.9972572185475951  1.0000
  N   N8        1.0  0.45046949868213904  0.8186032006085281  0.502755930182566  1.0000
  O   O1        1.0  0.8795846354294169  0.6537866583738745  0.8640887747103176  1.0000
  O   O2        1.0  0.22567732124959866  0.34626763862487303  0.6359520214041082  1.0000
  O   O3        1.0  0.12041226657277089  0.34620670200668957  0.13590976783311953  1.0000
  O   O4        1.0  0.7743200562013259  0.6537297075837925  0.36404435413180636  1.0000
  O   O5        1.0  0.05715963842190071  0.915191349781338  0.800344534423665  1.0000
  O   O6        1.0  0.1421107041276315  0.08491054171800266  0.6997276777818298  1.0000
  O   O7        1.0  0.9428447832300293  0.08481098173685099  0.1996560592612155  1.0000
  O   O8        1.0  0.8578993313003239  0.9150848115378662  0.3002697814934334  1.0000
  O   O9        1.0  0.7981585989717104  0.9040989820876671  0.6690041871731437  1.0000
  O   O10       1.0  0.8942011152902509  0.09609408050264527  0.8310371365723268  1.0000
  O   O11       1.0  0.2018513717588704  0.0959053443578028  0.3309999409653699  1.0000
  O   O12       1.0  0.10582200997869508  0.9039092470785374  0.16896214605679913  1.0000
  O   O13       1.0  0.8662928849399807  0.6393057590103338  0.03176666506779205  1.0000
  O   O14       1.0  0.22686309566454815  0.36045663598053307  0.46820607381165047  1.0000
  O   O15       1.0  0.13369493668634655  0.36068461168716226  0.968232732928527  1.0000
  O   O16       1.0  0.7731262417435333  0.6395337326832261  0.5317887063519959  1.0000
  O   O17       1.0  0.2410011293184837  0.6822475398881661  0.1593874245603003  1.0000
  O   O18       1.0  0.5587698272663745  0.31761238823415266  0.340516629351498  1.0000
  O   O19       1.0  0.7589992840013126  0.3177498086787551  0.8406143385348341  1.0000
  O   O20       1.0  0.4412244720904822  0.6823909390954409  0.6594818831076166  1.0000
  O   O21       1.0  0.564445560453052  0.6631030633339562  0.17759500739196443  1.0000
  O   O22       1.0  0.9013723692925808  0.33673497503020383  0.3224244067429679  1.0000
  O   O23       1.0  0.43555886119887083  0.3368992681842399  0.8224055862929163  1.0000
  O   O24       1.0  0.09862147572813745  0.6632613747316964  0.6775725104824699  1.0000
  O   O25       1.0  0.6328751526339288  0.4803527845102235  0.6811755061654947  1.0000
  O   O26       1.0  0.15265796044437252  0.5196895171655027  0.818861873802163  1.0000
  O   O27       1.0  0.3671145757724972  0.5196535369400052  0.31883215595546927  1.0000
  O   O28       1.0  0.8473595957663135  0.48031480891897604  0.18114148483152795  1.0000
