data_image0
_chemical_formula_structural       Na2H12C8N22O4
_chemical_formula_sum              "Na2 H12 C8 N22 O4"
_cell_length_a       6.963571297043454
_cell_length_b       9.213860473972229
_cell_length_c       9.509375970430638
_cell_angle_alpha    118.98736442889114
_cell_angle_beta     106.05675478039673
_cell_angle_gamma    89.98545960656706

_space_group_name_H-M_alt    "P 1"
_space_group_IT_number       1

loop_
  _space_group_symop_operation_xyz
  'x, y, z'

loop_
  _atom_site_type_symbol
  _atom_site_label
  _atom_site_symmetry_multiplicity
  _atom_site_fract_x
  _atom_site_fract_y
  _atom_site_fract_z
  _atom_site_occupancy
  Na  Na1       1.0  0.7500278517162114  0.5695879310353714  3.992189635925493e-05  1.0000
  Na  Na2       1.0  0.24997494311299562  0.43041133036986406  0.9999610947997721  1.0000
  H   H1        1.0  0.11360752974746899  0.29455902841353776  0.42064927780430844  1.0000
  H   H2        1.0  0.3867688485347926  0.8738645114525097  0.5794093694979663  1.0000
  H   H3        1.0  0.8863892889941737  0.7054402381758464  0.5793504900248294  1.0000
  H   H4        1.0  0.6132329606335388  0.12613723405137017  0.42059047528196186  1.0000
  H   H5        1.0  0.9297437011041366  0.4760283724602772  0.7295220428125261  1.0000
  H   H6        1.0  0.5701336492993859  0.746441781670711  0.2703942495932734  1.0000
  H   H7        1.0  0.0702576112814342  0.5239708749614918  0.27047760537092086  1.0000
  H   H8        1.0  0.4298674204839229  0.2535562090702611  0.7296047721439577  1.0000
  H   H9        1.0  0.05926606403087928  0.6522730978752163  0.8696150322533637  1.0000
  H   H10       1.0  0.44071393183539  0.7826710834092553  0.1303133025779175  1.0000
  H   H11       1.0  0.9407339853568002  0.34772742280289726  0.1303859864554865  1.0000
  H   H12       1.0  0.5592861291305481  0.21732942198936195  0.8696866598349896  1.0000
  C   C1        1.0  0.11936048877687708  0.16825428028021608  0.3995062750186733  1.0000
  C   C2        1.0  0.3807948662225371  0.7687459149333974  0.6005686531924537  1.0000
  C   C3        1.0  0.8806398263695596  0.8317474665197011  0.6004932575445066  1.0000
  C   C4        1.0  0.6192039433237612  0.23125584844205346  0.39943162344992095  1.0000
  C   C5        1.0  0.8587207913237972  0.99913299900016  0.116106846886488  1.0000
  C   C6        1.0  0.641277803541783  0.8830575444234866  0.8840489571718705  1.0000
  C   C7        1.0  0.14127877285937268  0.0008650083163459005  0.8838929189299379  1.0000
  C   C8        1.0  0.35872200324364184  0.11694171957383048  0.11595143509076412  1.0000
  N   N1        1.0  0.24591195370189917  0.12839633449708998  0.5032171865588636  1.0000
  N   N2        1.0  0.2542788836059274  0.6252120278120188  0.4968287973907833  1.0000
  N   N3        1.0  0.7540893586836714  0.8716029129246792  0.4967824616245834  1.0000
  N   N4        1.0  0.7457214083840071  0.37478974954689886  0.5031728477642758  1.0000
  N   N5        1.0  0.20406300995571772  0.9583588597389293  0.42937866228479027  1.0000
  N   N6        1.0  0.2959903531880243  0.5290352794128309  0.5706937338266299  1.0000
  N   N7        1.0  0.7959415446541412  0.04164162649207269  0.5706211804824192  1.0000
  N   N8        1.0  0.7040069739146302  0.47096646997916025  0.42930517430305287  1.0000
  N   N9        1.0  0.05953519748260308  0.8931850878954959  0.2859906853527148  1.0000
  N   N10       1.0  0.4404424042165544  0.6072340727497476  0.714131051134501  1.0000
  N   N11       1.0  0.9404691029467497  0.10681415693419888  0.714009587264229  1.0000
  N   N12       1.0  0.559553186261958  0.3927664212574767  0.2858669183322248  1.0000
  N   N13       1.0  0.0039790711481018  0.025010295730538694  0.2650161110504  1.0000
  N   N14       1.0  0.4960648111532961  0.7599979250651643  0.7351033126239414  1.0000
  N   N15       1.0  0.9960222296592105  0.9749889669707343  0.734984593428983  1.0000
  N   N16       1.0  0.503935261390886  0.24000256505394899  0.2648955934930228  1.0000
  N   N17       1.0  0.8236681743200761  0.12099035856951447  0.07785601446892089  1.0000
  N   N18       1.0  0.6763543141393383  0.04312592611361048  0.9221897116606852  1.0000
  N   N19       1.0  0.17633289546323985  0.8790076321714579  0.9221430072683104  1.0000
  N   N20       1.0  0.3236454926460866  0.9568733378836994  0.07781068060194932  1.0000
  N   N21       1.0  0.7499773801351707  0.8466805386270692  0.00010148666324016743  1.0000
  N   N22       1.0  0.2500221840479995  0.1533174686894441  0.9998982791531786  1.0000
  O   O1        1.0  0.008666924263266707  0.5422671889015473  0.851470927901694  1.0000
  O   O2        1.0  0.4912264200416913  0.6907630425885853  0.148442609730189  1.0000
  O   O3        1.0  0.9913343881223041  0.4577320585202286  0.148528720281753  1.0000
  O   O4        1.0  0.5087719043000972  0.30923620742525765  0.8515564140197539  1.0000
