data_image0
_chemical_formula_structural       Al4H12C24Cl8O28
_chemical_formula_sum              "Al4 H12 C24 Cl8 O28"
_cell_length_a       6.746846844553433
_cell_length_b       10.655391002688836
_cell_length_c       18.420120327372864
_cell_angle_alpha    90.0175879369275
_cell_angle_beta     90.01222726065589
_cell_angle_gamma    90.00373364149821

_space_group_name_H-M_alt    "P 1"
_space_group_IT_number       1

loop_
  _space_group_symop_operation_xyz
  'x, y, z'

loop_
  _atom_site_type_symbol
  _atom_site_label
  _atom_site_symmetry_multiplicity
  _atom_site_fract_x
  _atom_site_fract_y
  _atom_site_fract_z
  _atom_site_occupancy
  Al  Al1       1.0  0.09129086459896738  0.7532930489519956  0.24981156713610622  1.0000
  Al  Al2       1.0  0.9105225710136436  0.23958789529275035  0.7496533818913844  1.0000
  Al  Al3       1.0  0.5895065772576799  0.7395222318888132  0.24981423394310545  1.0000
  Al  Al4       1.0  0.4087481825683453  0.2534027707158942  0.7497130349614378  1.0000
  H   H1        1.0  0.6872797131652318  0.5247001951338247  0.5516930718944266  1.0000
  H   H2        1.0  0.1069257607630902  0.6763404850194802  0.41599641538098087  1.0000
  H   H3        1.0  0.10661192498865547  0.6764658531617512  0.08360498229466629  1.0000
  H   H4        1.0  0.6869069432073545  0.524604446567473  0.9479972068723012  1.0000
  H   H5        1.0  0.39314479899488924  0.17606764916876472  0.9160054269851654  1.0000
  H   H6        1.0  0.8129232047701577  0.024514991071754394  0.05179624907935928  1.0000
  H   H7        1.0  0.8128854400521419  0.024716768865644695  0.44815361738643117  1.0000
  H   H8        1.0  0.39326082857989764  0.17661817492310658  0.5836504093704277  1.0000
  H   H9        1.0  0.3292627400415498  0.5776190293891617  0.25087376084531593  1.0000
  H   H10       1.0  0.6746124693655772  0.40899702776322033  0.7584257351696306  1.0000
  H   H11       1.0  0.8254279323917614  0.9097850940813286  0.25176803220632127  1.0000
  H   H12       1.0  0.170751457313564  0.0777571327503424  0.7519672526874641  1.0000
  C   C1        1.0  0.3493275795550231  0.8843317368904594  0.3526531448253322  1.0000
  C   C2        1.0  0.6603626080324929  0.09642607216616736  0.6500875590843191  1.0000
  C   C3        1.0  0.6604397369451431  0.09582118203077529  0.8495764513591622  1.0000
  C   C4        1.0  0.34922163764369424  0.8842241573798973  0.1470388368245423  1.0000
  C   C5        1.0  0.8394675608554678  0.5961883042031316  0.15002186261454395  1.0000
  C   C6        1.0  0.15094985419809595  0.38468166758618594  0.8525092165056376  1.0000
  C   C7        1.0  0.1505400175019957  0.3839190004488273  0.646852510041839  1.0000
  C   C8        1.0  0.8397611001852778  0.5959597470875905  0.3494907002197748  1.0000
  C   C9        1.0  0.8508948323235968  0.5191018921506085  0.4166233938818776  1.0000
  C   C10       1.0  0.139137589217377  0.44867939991290484  0.5760225000006469  1.0000
  C   C11       1.0  0.13896748010638757  0.4491042682977521  0.9234437152100056  1.0000
  C   C12       1.0  0.8505212416275113  0.5192943737726807  0.08285412214252118  1.0000
  C   C13       1.0  0.36094407758082525  0.948912752663162  0.07619545293530187  1.0000
  C   C14       1.0  0.6493142169630983  0.019031420604335398  0.9168007219312952  1.0000
  C   C15       1.0  0.6491614800858158  0.0193656213084168  0.5830385242612408  1.0000
  C   C16       1.0  0.36098143243270187  0.9488270725536482  0.4235775531172691  1.0000
  C   C17       1.0  0.971180947777924  0.5549451005932653  0.47258586763492605  1.0000
  C   C18       1.0  0.9691751597868503  0.4952173478151705  0.545591662182062  1.0000
  C   C19       1.0  0.9689117466731715  0.49544091184046113  0.953893029471416  1.0000
  C   C20       1.0  0.9707409000381941  0.5551586697382049  0.026907442694749793  1.0000
  C   C21       1.0  0.5309622035479221  0.9953041822563052  0.04574928686447779  1.0000
  C   C22       1.0  0.5291546744936113  0.05493173751312949  0.9727451286372992  1.0000
  C   C23       1.0  0.528855429430429  0.0551218446635957  0.5270591062904797  1.0000
  C   C24       1.0  0.5309211097456057  0.9953259787236562  0.4540620484554834  1.0000
  Cl  Cl1       1.0  0.3529665872460369  0.4493939718768302  0.5245856972803293  1.0000
  Cl  Cl2       1.0  0.7051024889787526  0.3865316363670813  0.4203829039956302  1.0000
  Cl  Cl3       1.0  0.7050405360404851  0.3866015013219907  0.07908436716277827  1.0000
  Cl  Cl4       1.0  0.3524878752686433  0.44971222303058755  0.9750626852982263  1.0000
  Cl  Cl5       1.0  0.7948352366258999  0.8863345950192708  0.9205526621876597  1.0000
  Cl  Cl6       1.0  0.14719108504993977  0.9496515610986477  0.024672112795876392  1.0000
  Cl  Cl7       1.0  0.147284435058836  0.949409517321122  0.475068734999695  1.0000
  Cl  Cl8       1.0  0.7948948573622588  0.8868211658660955  0.5792932447417269  1.0000
  O   O1        1.0  0.5130737366402441  0.8525027978728303  0.17576603402327604  1.0000
  O   O2        1.0  0.49293814713402634  0.1380114389344342  0.8267873633786846  1.0000
  O   O3        1.0  0.4934471810858908  0.14015259757886867  0.6724302205869248  1.0000
  O   O4        1.0  0.5132000173299289  0.8528709714139496  0.3238324174187638  1.0000
  O   O5        1.0  0.007058487067155298  0.6387185739757869  0.32687128816265687  1.0000
  O   O6        1.0  0.9866052498823095  0.35162352827093457  0.6752517348243287  1.0000
  O   O7        1.0  0.9871881497699775  0.35373450773074927  0.8233692802553774  1.0000
  O   O8        1.0  0.006673701665910399  0.6391676337479879  0.17257534973101935  1.0000
  O   O9        1.0  0.1771821569282679  0.8621589262560221  0.3262820077815148  1.0000
  O   O10       1.0  0.8278916591421036  0.11634804418920912  0.6785599036228759  1.0000
  O   O11       1.0  0.8284164325664845  0.11672209220761688  0.8216746495270966  1.0000
  O   O12       1.0  0.17713133397777625  0.8621504905359745  0.17343989467926235  1.0000
  O   O13       1.0  0.6717584615926384  0.6165079531358657  0.17823912180947588  1.0000
  O   O14       1.0  0.3232543057661559  0.3620334869228401  0.8264439450405516  1.0000
  O   O15       1.0  0.3224831569027131  0.3624220088181431  0.6735714336189387  1.0000
  O   O16       1.0  0.6719363798065456  0.6164718684613958  0.32133971419107604  1.0000
  O   O17       1.0  0.33513066493881627  0.6684385575278212  0.24983223553698505  1.0000
  O   O18       1.0  0.6618878842027553  0.3194562850728673  0.7502451432692607  1.0000
  O   O19       1.0  0.8381632805225933  0.8192221302117916  0.24992582864383184  1.0000
  O   O20       1.0  0.16490542204536499  0.1685235434566366  0.7499400103736134  1.0000
  O   O21       1.0  0.7956530005267055  0.49234282000840296  0.5817989927492488  1.0000
  O   O22       1.0  0.0958186547741917  0.653498669051757  0.4680587997371928  1.0000
  O   O23       1.0  0.0954024775397855  0.6537340297727638  0.03149432423692389  1.0000
  O   O24       1.0  0.7950668847510869  0.4923997257036986  0.9176985294516551  1.0000
  O   O25       1.0  0.4045801064947056  0.15355852505574313  0.9681076483571541  1.0000
  O   O26       1.0  0.70459036022919  0.9923071170189316  0.08197703631635987  1.0000
  O   O27       1.0  0.7047023608019031  0.9923922021146793  0.4179086276092575  1.0000
  O   O28       1.0  0.40410760316550653  0.15360150024357466  0.5315627020650452  1.0000
