data_image0
_chemical_formula_structural       Zn2H24C40N20
_chemical_formula_sum              "Zn2 H24 C40 N20"
_cell_length_a       7.528332858141828
_cell_length_b       9.586449828328439
_cell_length_c       14.436296192052312
_cell_angle_alpha    101.07006700981287
_cell_angle_beta     89.98512016399656
_cell_angle_gamma    113.11124808241014

_space_group_name_H-M_alt    "P 1"
_space_group_IT_number       1

loop_
  _space_group_symop_operation_xyz
  'x, y, z'

loop_
  _atom_site_type_symbol
  _atom_site_label
  _atom_site_symmetry_multiplicity
  _atom_site_fract_x
  _atom_site_fract_y
  _atom_site_fract_z
  _atom_site_occupancy
  Zn  Zn1       1.0  0.38456771344595353  0.00014195283158360017  0.2500402948982838  1.0000
  Zn  Zn2       1.0  0.6154344808367683  0.9998599298467996  0.7499608281738261  1.0000
  H   H1        1.0  0.17866437173223212  0.6555458714071424  0.5037493397777554  1.0000
  H   H2        1.0  0.5233804602528878  0.34448220506255484  0.9961786981486966  1.0000
  H   H3        1.0  0.8213427156298536  0.34445251130445353  0.49624718673199203  1.0000
  H   H4        1.0  0.4766114487245618  0.6555150463726636  0.0038232287479402745  1.0000
  H   H5        1.0  0.317171468762254  0.891977530196293  0.4317372784937632  1.0000
  H   H6        1.0  0.4249289758396984  0.1081410023730811  0.0683126989396783  1.0000
  H   H7        1.0  0.6828295646030824  0.10802202972969613  0.5682628599278132  1.0000
  H   H8        1.0  0.575060692020017  0.8918597386271686  0.931691744931868  1.0000
  H   H9        1.0  0.2449828093927238  0.7032102303102974  0.1068582113952985  1.0000
  H   H10       1.0  0.5419603954070737  0.29716367901098556  0.3931336256585709  1.0000
  H   H11       1.0  0.7550215272486582  0.29679859363324823  0.8931403207122204  1.0000
  H   H12       1.0  0.4580381594042393  0.7028335820014818  0.6068703801066775  1.0000
  H   H13       1.0  0.0005476248208467238  0.20632204344142485  0.07756665075294931  1.0000
  H   H14       1.0  0.7946009071658152  0.7940178862917406  0.42226105001953584  1.0000
  H   H15       1.0  0.999451488450866  0.7936763298107011  0.9224277969908742  1.0000
  H   H16       1.0  0.2054001292337659  0.2059816804116963  0.577740474656764  1.0000
  H   H17       1.0  0.1267096007804085  0.4374930145909914  0.005353272165819993  1.0000
  H   H18       1.0  0.6896766958357362  0.562925321165892  0.49453760435250876  1.0000
  H   H19       1.0  0.8732916654698357  0.5625123236473827  0.9946434365049229  1.0000
  H   H20       1.0  0.31032376389796207  0.43707309263317035  0.5054651608169181  1.0000
  H   H21       1.0  0.9964484836963052  0.2378064399043326  0.2535884785325848  1.0000
  H   H22       1.0  0.7587334479983524  0.7623769691085158  0.24626131404968987  1.0000
  H   H23       1.0  0.0035525436005345756  0.7621931064667539  0.746408887379559  1.0000
  H   H24       1.0  0.2412647569635027  0.23762490375704462  0.7537377299484262  1.0000
  C   C1        1.0  0.1928020523570668  0.6212881807816121  0.23744647334959987  1.0000
  C   C2        1.0  0.5716080110419455  0.37894037280026543  0.26251472585822466  1.0000
  C   C3        1.0  0.8071976542688971  0.3787113826508915  0.7625543583020332  1.0000
  C   C4        1.0  0.42838555176749793  0.6210522124444469  0.7374810726651334  1.0000
  C   C5        1.0  0.000731368321098054  0.9238977714369484  0.1184919449201445  1.0000
  C   C6        1.0  0.0769906800879454  0.07635056869624894  0.3816487897507628  1.0000
  C   C7        1.0  0.9992733090670142  0.07610642032113903  0.8815073901903716  1.0000
  C   C8        1.0  0.9230179942066457  0.9236536498182988  0.6183560900705345  1.0000
  C   C9        1.0  0.18425573567543552  0.6429396055725861  0.42712579250876814  1.0000
  C   C10       1.0  0.5412718213491913  0.35713471291812493  0.0728269007016848  1.0000
  C   C11       1.0  0.8157551691170256  0.35706109965583727  0.5728717184461233  1.0000
  C   C12       1.0  0.4587202549673749  0.6428602156469057  0.9271740414417309  1.0000
  C   C13       1.0  0.6976764615840311  0.928599765887782  0.1191949215981793  1.0000
  C   C14       1.0  0.7691622862960514  0.07154029260109242  0.38080426841395376  1.0000
  C   C15       1.0  0.30233253676892957  0.07139978316531881  0.8808031368251719  1.0000
  C   C16       1.0  0.2308357407068158  0.9284638794135703  0.6191909084458729  1.0000
  C   C17       1.0  0.12060258558675233  0.4871811952291624  0.2794793973301779  1.0000
  C   C18       1.0  0.6334256605302713  0.5130027443817157  0.2204145366100789  1.0000
  C   C19       1.0  0.8794030031454696  0.5128195036929527  0.7205167277807618  1.0000
  C   C20       1.0  0.3665723054781795  0.4869933366165572  0.7795851646294382  1.0000
  C   C21       1.0  0.2598715084116493  0.7760455341162997  0.3868827976207997  1.0000
  C   C22       1.0  0.48377022124371644  0.22411902744214982  0.1131271464932269  1.0000
  C   C23       1.0  0.7401301046538151  0.22395518549152638  0.6131174865623663  1.0000
  C   C24       1.0  0.5162181122909999  0.7758817001209765  0.8868745249715744  1.0000
  C   C25       1.0  0.19141885817588639  0.6008085737145237  0.1376788495926178  1.0000
  C   C26       1.0  0.5906593642049032  0.39953205680843246  0.3622931932725849  1.0000
  C   C27       1.0  0.8085776747484912  0.39919792467681964  0.8623180052504793  1.0000
  C   C28       1.0  0.40933727202992287  0.6004640209188992  0.6377058149422652  1.0000
  C   C29       1.0  0.05287754891538302  0.32124313566838236  0.1232308978142598  1.0000
  C   C30       1.0  0.7318018367636157  0.6790688477107881  0.37661822666641603  1.0000
  C   C31       1.0  0.9471223189812008  0.6787540913390373  0.8767661765747192  1.0000
  C   C32       1.0  0.2681957305379257  0.3209237812340078  0.6233865822045175  1.0000
  C   C33       1.0  0.1238709817395005  0.4533552392828923  0.08208189383532978  1.0000
  C   C34       1.0  0.6707792057117815  0.5470002246148556  0.41783230250114667  1.0000
  C   C35       1.0  0.876126640487968  0.5466454671233836  0.9179156181464806  1.0000
  C   C36       1.0  0.3292176115162633  0.45299356074083624  0.5821719591067095  1.0000
  C   C37       1.0  0.050610731931754964  0.3374968466310335  0.2200658703407044  1.0000
  C   C38       1.0  0.7133456632175382  0.6627195940749575  0.2797802329718452  1.0000
  C   C39       1.0  0.9493926111313582  0.6625073316899376  0.7799306923630597  1.0000
  C   C40       1.0  0.28665480106752744  0.3372788298902877  0.7202246115796598  1.0000
  N   N1        1.0  0.2639316841707712  0.7666761623459594  0.2942977728070701  1.0000
  N   N2        1.0  0.49710274297828516  0.23351711161965485  0.2057354114068843  1.0000
  N   N3        1.0  0.7360689429020438  0.23331992858292233  0.7057040076091424  1.0000
  N   N4        1.0  0.5028914147025247  0.766476667194155  0.7942674641516447  1.0000
  N   N5        1.0  0.8471138234398906  0.9224073047449154  0.0778391269884935  1.0000
  N   N6        1.0  0.9246814745982449  0.07773395153676432  0.4222231604074622  1.0000
  N   N7        1.0  0.15289442483957313  0.07759340071908132  0.9221583841717732  1.0000
  N   N8        1.0  0.07531738774651604  0.9222772093030048  0.5777791293734751  1.0000
  N   N9        1.0  0.5526214654464072  0.9327879374356062  0.1475215611923559  1.0000
  N   N10       1.0  0.6201324210846055  0.06748525826760951  0.35235104059685807  1.0000
  N   N11       1.0  0.4473786414035742  0.0672150814390946  0.852474855955215  1.0000
  N   N12       1.0  0.37987466779460305  0.9325131278327142  0.6476461790402439  1.0000
  N   N13       1.0  0.14707897799868874  0.9244822667084877  0.14775657509797918  1.0000
  N   N14       1.0  0.222878907458373  0.07575248831064131  0.35251273938793304  1.0000
  N   N15       1.0  0.8529182440047618  0.07551498425558381  0.8522453513878858  1.0000
  N   N16       1.0  0.777121380384834  0.9242482381924193  0.6474889311526368  1.0000
  N   N17       1.0  0.11684104387855848  0.5006037661315546  0.37517300285119154  1.0000
  N   N18       1.0  0.6162921777047501  0.49951249999242725  0.124725581340023  1.0000
  N   N19       1.0  0.8831601628943843  0.4993934844791569  0.6248289233266036  1.0000
  N   N20       1.0  0.38369915915818353  0.5004836087045775  0.875279665431819  1.0000
