data_image0
_chemical_formula_structural       Nd2H16C24Br12O20
_chemical_formula_sum              "Nd2 H16 C24 Br12 O20"
_cell_length_a       10.044439727993957
_cell_length_b       10.727065773057138
_cell_length_c       10.175428810781185
_cell_angle_alpha    92.03069841324577
_cell_angle_beta     76.93554717960642
_cell_angle_gamma    81.23940445979797

_space_group_name_H-M_alt    "P 1"
_space_group_IT_number       1

loop_
  _space_group_symop_operation_xyz
  'x, y, z'

loop_
  _atom_site_type_symbol
  _atom_site_label
  _atom_site_symmetry_multiplicity
  _atom_site_fract_x
  _atom_site_fract_y
  _atom_site_fract_z
  _atom_site_occupancy
  Nd  Nd1       1.0  0.9766221655352963  0.04738846654817051  0.767243458910663  1.0000
  Nd  Nd2       1.0  0.02337929019785882  0.9526167615963462  0.23275513765072733  1.0000
  H   H1        1.0  0.17586647922647802  0.8305269941921336  0.637771976046068  1.0000
  H   H2        1.0  0.8241355946522543  0.16946870415132761  0.36222463702595326  1.0000
  H   H3        1.0  0.28307845152666283  0.030230116780231197  0.7812719235849669  1.0000
  H   H4        1.0  0.7169223198592786  0.9697749150630415  0.21872283108567103  1.0000
  H   H5        1.0  0.0727163806088455  0.7823192209294946  0.5586037238731479  1.0000
  H   H6        1.0  0.9272817220631637  0.2176813572437979  0.4413954251857676  1.0000
  H   H7        1.0  0.17009014205895306  0.0664966233908473  0.48244763600346374  1.0000
  H   H8        1.0  0.8299104604044982  0.9335085153835793  0.5175491174484819  1.0000
  H   H9        1.0  0.22941873685315514  0.9369965533059242  0.8899870653651761  1.0000
  H   H10       1.0  0.7705786632120348  0.06301360813399981  0.1100150665737658  1.0000
  H   H11       1.0  0.6797566548941916  0.1014907486208472  0.917855045256303  1.0000
  H   H12       1.0  0.32025213290533117  0.8985076589244442  0.0821405202265808  1.0000
  H   H13       1.0  0.749159981094415  0.2159725125920815  0.963185678577446  1.0000
  H   H14       1.0  0.25084457345738537  0.7840303111539128  0.036803584048300295  1.0000
  H   H15       1.0  0.14900523873581045  0.19998397285132805  0.5650046831224884  1.0000
  H   H16       1.0  0.8509781798263345  0.8000255965553225  0.4349837936440509  1.0000
  C   C1        1.0  0.5365083706004795  0.1168327683202648  0.5292958340651168  1.0000
  C   C2        1.0  0.46350932939620265  0.8831367672739177  0.47070751239653674  1.0000
  C   C3        1.0  0.8116540142252401  0.6319621810898823  0.9071961225325467  1.0000
  C   C4        1.0  0.18834835745791167  0.3680422458471995  0.0928053024909374  1.0000
  C   C5        1.0  0.567188528265568  0.014624094894614404  0.6056217461981248  1.0000
  C   C6        1.0  0.4328180129369555  0.9853527951721831  0.3943940928735685  1.0000
  C   C7        1.0  0.9043028025462828  0.3408733892709748  0.6519032063647573  1.0000
  C   C8        1.0  0.0956934273264238  0.6591305190066379  0.3480873156739648  1.0000
  C   C9        1.0  0.9418013192253905  0.6662228483472461  0.9017662731311519  1.0000
  C   C10       1.0  0.05819455102137278  0.3337804366807334  0.0982302312135204  1.0000
  C   C11       1.0  0.05908144951834516  0.5923466670187096  0.8180086422290885  1.0000
  C   C12       1.0  0.9409165931359804  0.4076582036454397  0.18198258189453753  1.0000
  C   C13       1.0  0.9532705793119685  0.7854668303142988  0.9800389614491466  1.0000
  C   C14       1.0  0.046730644818417474  0.21453939533888905  0.019960648540887905  1.0000
  C   C15       1.0  0.8001764935298183  0.5269748066624017  0.8268871323633462  1.0000
  C   C16       1.0  0.19982494042238128  0.47302958437016696  0.1731134489413648  1.0000
  C   C17       1.0  0.046718812050656235  0.48993648451309485  0.7349197895766082  1.0000
  C   C18       1.0  0.953277009498286  0.5100751189449539  0.2650736872661526  1.0000
  C   C19       1.0  0.6466612840050062  0.0279294767630347  0.7143202118163572  1.0000
  C   C20       1.0  0.35334558990659537  0.9720571920953986  0.2856846327041538  1.0000
  C   C21       1.0  0.9167047609626948  0.4558246857735284  0.7383379173437205  1.0000
  C   C22       1.0  0.08328719295913338  0.5441891792473753  0.26166205093458933  1.0000
  C   C23       1.0  0.529191784218696  0.8982927572094399  0.5765775617329326  1.0000
  C   C24       1.0  0.47080989940658197  0.10168406026595281  0.4234360575261605  1.0000
  Br  Br1       1.0  0.2370224926391059  0.6343953371899573  0.8160834959404467  1.0000
  Br  Br2       1.0  0.7629744433617771  0.3656096045008326  0.18390888324571364  1.0000
  Br  Br3       1.0  0.6232020621838926  0.48026434661304784  0.8366970425969882  1.0000
  Br  Br4       1.0  0.37679304524908014  0.5197360176917841  0.16331539584622595  1.0000
  Br  Br5       1.0  0.20907972030253313  0.39874588875517947  0.6172113954223732  1.0000
  Br  Br6       1.0  0.7909210755269596  0.6012633821133662  0.38277443492231816  1.0000
  Br  Br7       1.0  0.6547443740263431  0.7331071236410197  0.02369796269482551  1.0000
  Br  Br8       1.0  0.3452504391235748  0.26689512875001503  0.9763145038243692  1.0000
  Br  Br9       1.0  0.5850842169484236  0.2743044607832844  0.5721369380402663  1.0000
  Br  Br10      1.0  0.41495036667183155  0.725665310152337  0.4278559365841589  1.0000
  Br  Br11      1.0  0.568341898510674  0.7620805894650714  0.6830333963315169  1.0000
  Br  Br12      1.0  0.4316266970787693  0.23790594628264475  0.3169980115042534  1.0000
  O   O1        1.0  0.7590332900077496  0.12370461631554973  0.9583880590369773  1.0000
  O   O2        1.0  0.24097173640686256  0.8762968364389606  0.04161101374747739  1.0000
  O   O3        1.0  0.7788430129927303  0.9947141461953635  0.6768032289019246  1.0000
  O   O4        1.0  0.22115903644243662  0.0052773131228108046  0.32320230849604314  1.0000
  O   O5        1.0  0.9500715345334352  0.8859025931579796  0.917876748333697  1.0000
  O   O6        1.0  0.04994368422369179  0.11410443761455014  0.0821226950694154  1.0000
  O   O7        1.0  0.8672073832285603  0.2472092218289532  0.7161456571871981  1.0000
  O   O8        1.0  0.13279210212034798  0.7527991767993856  0.2838591335039808  1.0000
  O   O9        1.0  0.9660201967650219  0.7783681852025879  0.10010523446691627  1.0000
  O   O10       1.0  0.033971511571572015  0.2216392494744355  0.8998977893892856  1.0000
  O   O11       1.0  0.2187953995228467  0.9703379577102994  0.8016726460121149  1.0000
  O   O12       1.0  0.7812025482091369  0.029670155246705604  0.19832645967886717  1.0000
  O   O13       1.0  0.579272669202396  0.0693336493194963  0.8309977718745358  1.0000
  O   O14       1.0  0.4207346905544824  0.9306590764000122  0.1690148406554357  1.0000
  O   O15       1.0  0.08705737324522278  0.8574608229800805  0.6149540818831127  1.0000
  O   O16       1.0  0.9129460310912162  0.14254039756867343  0.3850403052918026  1.0000
  O   O17       1.0  0.9340715655507379  0.3451839139903968  0.525706881124087  1.0000
  O   O18       1.0  0.06592115365819497  0.6548194771863508  0.4742910896268597  1.0000
  O   O19       1.0  0.1425138299308698  0.11040802730351372  0.5757475744378979  1.0000
  O   O20       1.0  0.8574756155422559  0.8896006530903833  0.42424295243137067  1.0000
