data_image0
_chemical_formula_structural       Zn2H26C34S6N10O10
_chemical_formula_sum              "Zn2 H26 C34 S6 N10 O10"
_cell_length_a       9.465386988206705
_cell_length_b       10.427268240022679
_cell_length_c       11.093016089696071
_cell_angle_alpha    102.90399241072934
_cell_angle_beta     96.16230379336044
_cell_angle_gamma    105.86391359000945

_space_group_name_H-M_alt    "P 1"
_space_group_IT_number       1

loop_
  _space_group_symop_operation_xyz
  'x, y, z'

loop_
  _atom_site_type_symbol
  _atom_site_label
  _atom_site_symmetry_multiplicity
  _atom_site_fract_x
  _atom_site_fract_y
  _atom_site_fract_z
  _atom_site_occupancy
  Zn  Zn1       1.0  0.4153389067760784  0.0959224477835079  0.14085165080587808  1.0000
  Zn  Zn2       1.0  0.5846587297296965  0.9040809652656918  0.8591492556224691  1.0000
  H   H1        1.0  0.3881741661097847  0.22093399087648177  0.9135589420243165  1.0000
  H   H2        1.0  0.6118262639899399  0.7790652282485767  0.08644226003829654  1.0000
  H   H3        1.0  0.5418806591181136  0.4056435589786743  0.8310091253675223  1.0000
  H   H4        1.0  0.45812363339224754  0.5943514430005905  0.1689888625040011  1.0000
  H   H5        1.0  0.9224516551850926  0.6967197430025608  0.1371838421777198  1.0000
  H   H6        1.0  0.07754842196180792  0.3032753106120794  0.862809251129967  1.0000
  H   H7        1.0  0.7957932447712323  0.5492657981919392  0.952214816628519  1.0000
  H   H8        1.0  0.20421350051637435  0.4507270924431452  0.04778386649162767  1.0000
  H   H9        1.0  0.7083097743189342  0.3240340259055757  0.23398774168258282  1.0000
  H   H10       1.0  0.2916892547050125  0.6759672931280747  0.7660146649818387  1.0000
  H   H11       1.0  0.17670001884533806  0.6307992380147596  0.3752843635862603  1.0000
  H   H12       1.0  0.8232997174848578  0.3691978981798485  0.6247091293357911  1.0000
  H   H13       1.0  0.4343679281604054  0.7937913099399196  0.45977219484473136  1.0000
  H   H14       1.0  0.5656268944206673  0.2062131828099609  0.5402286698278616  1.0000
  H   H15       1.0  0.5296584118718216  0.9887018930782575  0.3581359085973972  1.0000
  H   H16       1.0  0.4703357058925519  0.011303652572429698  0.6418669107950519  1.0000
  H   H17       1.0  0.13026555283537536  0.8714172702758274  0.11113252361623434  1.0000
  H   H18       1.0  0.86973419812049  0.12858298407093824  0.8888625186525586  1.0000
  H   H19       1.0  0.031465316365839276  0.9177863944894257  0.814978929790385  1.0000
  H   H20       1.0  0.9685333572157261  0.082213888972035  0.18502232714164524  1.0000
  H   H21       1.0  0.07730669289578893  0.7604565300217417  0.7894892134011896  1.0000
  H   H22       1.0  0.9226923332756128  0.23954479097625384  0.2105140948758617  1.0000
  H   H23       1.0  0.162794939090837  0.33606771066198593  0.3738557340500818  1.0000
  H   H24       1.0  0.8372026713791101  0.6639325920924434  0.6261472294820293  1.0000
  H   H25       1.0  0.32358120550948405  0.4748241540708521  0.37978968638144284  1.0000
  H   H26       1.0  0.6764150067372157  0.5251782466278171  0.6202135801398538  1.0000
  C   C1        1.0  0.4972352019429778  0.2876911720642497  0.9661114866101669  1.0000
  C   C2        1.0  0.5027669993005759  0.7123101008765643  0.03389120992977002  1.0000
  C   C3        1.0  0.5844182185952747  0.39062903021637396  0.9202801941318411  1.0000
  C   C4        1.0  0.4155860885407563  0.6093690899150345  0.07971934308643816  1.0000
  C   C5        1.0  0.7248129289522041  0.47103133830513855  0.9891225328260304  1.0000
  C   C6        1.0  0.27518996248237226  0.5289657635827111  0.010876659647308894  1.0000
  C   C7        1.0  0.7731290474871315  0.44709896816236494  0.10365527454608527  1.0000
  C   C8        1.0  0.2268738382423693  0.5528981376541752  0.8963457211525137  1.0000
  C   C9        1.0  0.6770765580859432  0.3436715368982847  0.1439990152264841  1.0000
  C   C10       1.0  0.3229231671970824  0.6563287351275874  0.8560041415559779  1.0000
  C   C11       1.0  0.9251916188856412  0.5181727221093839  0.1819876469061582  1.0000
  C   C12       1.0  0.07481057914239395  0.4818254248218921  0.8180098938365103  1.0000
  C   C13       1.0  0.13402205579126308  0.7367316556258103  0.23515809552721112  1.0000
  C   C14       1.0  0.8659783971287636  0.26326754778447986  0.7648358936343626  1.0000
  C   C15       1.0  0.22129501738071172  0.7161690325232473  0.33525872006157437  1.0000
  C   C16       1.0  0.778705089017528  0.28383225739570145  0.6647374719396167  1.0000
  C   C17       1.0  0.36502040877077496  0.8076289879113928  0.38142258689804004  1.0000
  C   C18       1.0  0.6349790074364491  0.19237647306051997  0.6185771091697487  1.0000
  C   C19       1.0  0.4177028514359052  0.9157245259993375  0.32726863168873166  1.0000
  C   C20       1.0  0.582294083105708  0.08427993798632369  0.6727333278468349  1.0000
  C   C21       1.0  0.19396696884297893  0.8504262507963676  0.18842073242770138  1.0000
  C   C22       1.0  0.806031721853813  0.1495740208790153  0.8115751148285568  1.0000
  C   C23       1.0  0.2662466332692831  0.9419659200335035  0.8718779010160559  1.0000
  C   C24       1.0  0.7337531151970326  0.058037464251484004  0.12812410027526508  1.0000
  C   C25       1.0  0.1152360805409317  0.8689486548734636  0.7848752934981106  1.0000
  C   C26       1.0  0.8847629310047934  0.1310495479723741  0.21512646543219197  1.0000
  C   C27       1.0  0.17734235446390298  0.030868885588411405  0.6304578277256141  1.0000
  C   C28       1.0  0.8226601961539688  0.9691302988793995  0.36954176436208286  1.0000
  C   C29       1.0  0.2657130665128236  0.25955261610200614  0.6030931189181529  1.0000
  C   C30       1.0  0.734289822069222  0.7404444877501888  0.3969069751678233  1.0000
  C   C31       1.0  0.2845939386951457  0.37421990101090336  0.4012092348641616  1.0000
  C   C32       1.0  0.7154029783682532  0.6257814467869524  0.5987920769372863  1.0000
  C   C33       1.0  0.3560000155277834  0.2763515949118727  0.32395279012841627  1.0000
  C   C34       1.0  0.6439923221721598  0.7236487748422178  0.6760451822146932  1.0000
  S   S1        1.0  0.3377420145091321  0.4171387949408327  0.5698373066386749  1.0000
  S   S2        1.0  0.6622594701445905  0.5828604107842993  0.4301648936617326  1.0000
  S   S3        1.0  0.22149604692582864  0.0936731144924394  0.5021389657028975  1.0000
  S   S4        1.0  0.7785029731775096  0.9063250824603628  0.4978600883895225  1.0000
  S   S5        1.0  0.12122598231049866  0.85559881511373  0.6208608590023559  1.0000
  S   S6        1.0  0.878772673792845  0.14439835215992503  0.37913975019555574  1.0000
  N   N1        1.0  0.332516383222668  0.9365388114602313  0.23250325269420097  1.0000
  N   N2        1.0  0.6674809006932633  0.06346356405243371  0.7674956023891253  1.0000
  N   N3        1.0  0.5431940420696364  0.2646532128105079  0.0762341065231027  1.0000
  N   N4        1.0  0.4568060415083011  0.7353480928232089  0.9237692983791206  1.0000
  N   N5        1.0  0.990050054445035  0.650688449249337  0.1769364444819033  1.0000
  N   N6        1.0  0.009953556068936158  0.3493075899159662  0.8230562852084374  1.0000
  N   N7        1.0  0.1972936541690373  0.12886760353523388  0.7350549857815237  1.0000
  N   N8        1.0  0.8027117075209986  0.8711305031962484  0.2649455496745503  1.0000
  N   N9        1.0  0.24786185925605508  0.2584333033074628  0.718943781762725  1.0000
  N   N10       1.0  0.7521438432506854  0.7415627208440513  0.2810563540789984  1.0000
  O   O1        1.0  0.25693285068233973  0.9872834241182604  0.9860752776847689  1.0000
  O   O2        1.0  0.7430651644490992  0.012724136762244594  0.01392562298483569  1.0000
  O   O3        1.0  0.38480099673543583  0.9491691122516244  0.827730264978605  1.0000
  O   O4        1.0  0.615197336029425  0.05083325378980421  0.17227139156778287  1.0000
  O   O5        1.0  0.47761899925899337  0.2627392480973825  0.36785803140586637  1.0000
  O   O6        1.0  0.5223832308729258  0.7372651331738569  0.632141706417677  1.0000
  O   O7        1.0  0.2820976755661135  0.21380042602994823  0.21258872521566016  1.0000
  O   O8        1.0  0.7178967655367574  0.7861999208529724  0.7874130468283127  1.0000
  O   O9        1.0  0.9880292153732455  0.4568849699366879  0.24344653725775336  1.0000
  O   O10       1.0  0.011974031503719122  0.5431131675233515  0.7565538049479769  1.0000
