data_image0
_chemical_formula_structural       HgH10C12N2Cl2O4
_chemical_formula_sum              "Hg1 H10 C12 N2 Cl2 O4"
_cell_length_a       3.8619615697350613
_cell_length_b       6.299728537680606
_cell_length_c       14.646752160296172
_cell_angle_alpha    98.2511263449139
_cell_angle_beta     96.0946580311943
_cell_angle_gamma    95.60312351654568

_space_group_name_H-M_alt    "P 1"
_space_group_IT_number       1

loop_
  _space_group_symop_operation_xyz
  'x, y, z'

loop_
  _atom_site_type_symbol
  _atom_site_label
  _atom_site_symmetry_multiplicity
  _atom_site_fract_x
  _atom_site_fract_y
  _atom_site_fract_z
  _atom_site_occupancy
  Hg  Hg1       1.0  0.5000454703174098  2.4972677195501665e-05  0.4999984973530402  1.0000
  H   H1        1.0  0.6896595714614974  0.5223228862871777  0.3875895948703771  1.0000
  H   H2        1.0  0.3103618097836287  0.47770614600638334  0.6124142757433406  1.0000
  H   H3        1.0  0.7125288749554668  0.31979508024181774  0.22838737266619094  1.0000
  H   H4        1.0  0.28743850901791745  0.6802204415795714  0.7716231104092159  1.0000
  H   H5        1.0  0.4832441783938392  0.480298665337365  0.0893689729352047  1.0000
  H   H6        1.0  0.5166953502744107  0.519671320146017  0.9106318793469157  1.0000
  H   H7        1.0  0.23577211598792044  0.017493932577593796  0.28128675128184  1.0000
  H   H8        1.0  0.7642167303917374  0.9825104247332419  0.7187065685394883  1.0000
  H   H9        1.0  0.10888812290145469  0.8532322371724916  0.9639616528126425  1.0000
  H   H10       1.0  0.8910872828880724  0.1467511018266734  0.03604028366822829  1.0000
  C   C1        1.0  0.5907874851594598  0.5849832792723149  0.3254305900925871  1.0000
  C   C2        1.0  0.40923223879298815  0.4150182894818996  0.6745661229972129  1.0000
  C   C3        1.0  0.6028846772037042  0.4732605458396861  0.23647995537725558  1.0000
  C   C4        1.0  0.39710950033975206  0.5267262690207133  0.7635233773165169  1.0000
  C   C5        1.0  0.47704756371366125  0.5626210109007984  0.1597518211265125  1.0000
  C   C6        1.0  0.5229428897568693  0.43735776095391526  0.8402570728083063  1.0000
  C   C7        1.0  0.34182482740525433  0.7618775421857431  0.1746902703425022  1.0000
  C   C8        1.0  0.6581725590590322  0.23811407327195866  0.8253059268380056  1.0000
  C   C9        1.0  0.19644387887053225  0.868377036283313  0.09801926776370347  1.0000
  C   C10       1.0  0.8035224842813234  0.13163348284102483  0.9019751837195288  1.0000
  C   C11       1.0  0.3398924415001971  0.862911552677417  0.26622448895699335  1.0000
  C   C12       1.0  0.6601111951787926  0.13710429001097427  0.7337712843067479  1.0000
  N   N1        1.0  0.46162162708317556  0.7759781021280787  0.33943435980813064  1.0000
  N   N2        1.0  0.53840144535787  0.2240445422806019  0.6605725860510321  1.0000
  Cl  Cl1       1.0  0.9150721277320386  0.7630504855626584  0.5649071798659122  1.0000
  Cl  Cl2       1.0  0.08498819050478798  0.2369789436671184  0.43508615419841595  1.0000
  O   O1        1.0  0.054255132076818285  0.0378913845282227  0.1135349888063928  1.0000
  O   O2        1.0  0.9457618451774435  0.9620747259332774  0.886461567226043  1.0000
  O   O3        1.0  0.22602650628657264  0.7712638435694784  0.013438683674323201  1.0000
  O   O4        1.0  0.7739392420870813  0.22870803006030377  0.9865561592140396  1.0000
