data_image0
_chemical_formula_structural       H32Pb4C40N12Cl4O8
_chemical_formula_sum              "H32 Pb4 C40 N12 Cl4 O8"
_cell_length_a       8.138023765116094
_cell_length_b       9.67795308011721
_cell_length_c       14.486727137902745
_cell_angle_alpha    90.00032105271404
_cell_angle_beta     93.47730210434864
_cell_angle_gamma    90.0004406275278

_space_group_name_H-M_alt    "P 1"
_space_group_IT_number       1

loop_
  _space_group_symop_operation_xyz
  'x, y, z'

loop_
  _atom_site_type_symbol
  _atom_site_label
  _atom_site_symmetry_multiplicity
  _atom_site_fract_x
  _atom_site_fract_y
  _atom_site_fract_z
  _atom_site_occupancy
  H   H1        1.0  0.7628259099155416  0.9886280283244628  0.541667301017277  1.0000
  H   H2        1.0  0.7371744082477039  0.48862620687395947  0.45833199938251556  1.0000
  H   H3        1.0  0.2371688820241929  0.0113707844258286  0.4583330787718438  1.0000
  H   H4        1.0  0.2628289797363196  0.5113684727910908  0.5416665746494687  1.0000
  H   H5        1.0  0.879709430321853  0.14109372011590438  0.5191059090224923  1.0000
  H   H6        1.0  0.6202900341593606  0.641087916118309  0.48089480907156457  1.0000
  H   H7        1.0  0.12028782370425971  0.8589040593662811  0.4808945467080504  1.0000
  H   H8        1.0  0.37971336799504485  0.3589067635525538  0.5191051459944518  1.0000
  H   H9        1.0  0.6061116075214131  0.41231129608423334  0.7542183697702284  1.0000
  H   H10       1.0  0.8938867736006915  0.912311490319972  0.2457833428374485  1.0000
  H   H11       1.0  0.39389055653691685  0.587690616514024  0.24578085682178138  1.0000
  H   H12       1.0  0.10611171857121351  0.08768938899829239  0.754217841388211  1.0000
  H   H13       1.0  0.299991099323627  0.2549981065500972  0.008898244046363895  1.0000
  H   H14       1.0  0.20000171334991992  0.7549970777068892  0.9911014866903045  1.0000
  H   H15       1.0  0.7000049307569187  0.7450027727599177  0.9911028642357704  1.0000
  H   H16       1.0  0.7999992267230671  0.24499966850842003  0.008898392436400107  1.0000
  H   H17       1.0  0.4644019299001344  0.3403426340987038  0.879983628665478  1.0000
  H   H18       1.0  0.0355929279480591  0.8403415363929125  0.12001579831328257  1.0000
  H   H19       1.0  0.5355916310038609  0.6596582452001556  0.12001671315610449  1.0000
  H   H20       1.0  0.9644079979694669  0.1596583096456214  0.8799826997857281  1.0000
  H   H21       1.0  0.7736960734428638  0.37137793671221425  0.596985767210178  1.0000
  H   H22       1.0  0.7263068521436438  0.8713752649509201  0.4030173110255788  1.0000
  H   H23       1.0  0.22630979082278205  0.6286208760722827  0.40301426380781175  1.0000
  H   H24       1.0  0.27369288521946106  0.1286204479955444  0.5969852921953203  1.0000
  H   H25       1.0  0.3370532867341823  0.8448435977016187  0.8954255840673112  1.0000
  H   H26       1.0  0.1629453217410771  0.34484454289169963  0.10457535625956638  1.0000
  H   H27       1.0  0.6629476604488573  0.1551583148983297  0.10457498558697147  1.0000
  H   H28       1.0  0.8370543872912041  0.6551532365958294  0.8954244848974893  1.0000
  H   H29       1.0  0.22278871199514336  0.005591835208861099  0.0142070690143967  1.0000
  H   H30       1.0  0.2772115775185782  0.5055922926419498  0.9857947082896457  1.0000
  H   H31       1.0  0.7772110112224342  0.9944090441135245  0.9857941531830292  1.0000
  H   H32       1.0  0.7227893625593823  0.4944054868497073  0.014205170839176193  1.0000
  Pb  Pb1       1.0  0.5885716065979737  0.8264782174239111  0.719055520790391  1.0000
  Pb  Pb2       1.0  0.9114345730071279  0.3264770700785106  0.2809467973498059  1.0000
  Pb  Pb3       1.0  0.4114392101911549  0.17352059538870887  0.28094742418272023  1.0000
  Pb  Pb4       1.0  0.08856881501666443  0.6735258757973097  0.7190517766990678  1.0000
  C   C1        1.0  0.5787705524699832  0.1812323392636656  0.7430939783096802  1.0000
  C   C2        1.0  0.9212280601282077  0.6812307359822966  0.2569061753433813  1.0000
  C   C3        1.0  0.42122915658715243  0.8187706066055964  0.2569058628579342  1.0000
  C   C4        1.0  0.07876917973747061  0.31876911004677305  0.7430928993573501  1.0000
  C   C5        1.0  0.48818119060078413  0.13624145568255128  0.8213600214812614  1.0000
  C   C6        1.0  0.011815403534335205  0.6362396611993971  0.178639375804174  1.0000
  C   C7        1.0  0.5118160634501907  0.8637614901813747  0.17864043425984016  1.0000
  C   C8        1.0  0.9881805911103073  0.36375915154339106  0.821358279888649  1.0000
  C   C9        1.0  0.7576710544602678  0.10116862083452109  0.533121561534628  1.0000
  C   C10       1.0  0.7423305092079604  0.6011655524634064  0.4668811408930083  1.0000
  C   C11       1.0  0.24232866874736916  0.8988301919351682  0.46687966065857006  1.0000
  C   C12       1.0  0.25767289294644513  0.3988291272074561  0.533118814173001  1.0000
  C   C13       1.0  0.6278643193580821  0.3158920694200588  0.7188459078117972  1.0000
  C   C14       1.0  0.8721343791918273  0.8158903524441  0.2811568297500172  1.0000
  C   C15       1.0  0.3721353826138626  0.6841108764462972  0.2811532428387977  1.0000
  C   C16       1.0  0.12786534402575006  0.18411052687828539  0.7188443924474013  1.0000
  C   C17       1.0  0.340429949916846  0.18381048844079825  0.9567579595827737  1.0000
  C   C18       1.0  0.15956587089737442  0.6838085147659922  0.0432415941364752  1.0000
  C   C19       1.0  0.6595685280946101  0.8161924574243425  0.0432418436130746  1.0000
  C   C20       1.0  0.8404325929188448  0.3161892647116033  0.9567568280147823  1.0000
  C   C21       1.0  0.4346748290864256  0.23106532501655147  0.8863325670148611  1.0000
  C   C22       1.0  0.06532022955474301  0.7310633325022167  0.1136685228884957  1.0000
  C   C23       1.0  0.5653211939188695  0.7689376208432462  0.11366785075447439  1.0000
  C   C24       1.0  0.9346782342664499  0.26893548025172004  0.8863298992648723  1.0000
  C   C25       1.0  0.7097268941256093  0.29869311395169246  0.6387898403688723  1.0000
  C   C26       1.0  0.7902765702035811  0.798692571632749  0.36121366931043036  1.0000
  C   C27       1.0  0.29027528410311026  0.7013087986523772  0.3612107672571767  1.0000
  C   C28       1.0  0.20972562218558014  0.20130727442444393  0.6387883193454228  1.0000
  C   C29       1.0  0.35990004513229223  0.9559415421910985  0.8949777073875893  1.0000
  C   C30       1.0  0.14009593213781812  0.4559413106650608  0.10502288254156159  1.0000
  C   C31       1.0  0.6401009020507402  0.04406037040885019  0.10502286226669358  1.0000
  C   C32       1.0  0.8599013077179126  0.5440564688113128  0.8949761921549493  1.0000
  C   C33       1.0  0.2985948324806032  0.04427983091618869  0.960402229308279  1.0000
  C   C34       1.0  0.20140336011526475  0.5442780963031594  0.0395989396415075  1.0000
  C   C35       1.0  0.7014048836567569  0.9557220816796318  0.039598302374244596  1.0000
  C   C36       1.0  0.7985951178663699  0.45571864990390043  0.9604008635416718  1.0000
  C   C37       1.0  0.6365717732725359  0.13479586419008163  0.45044238817681037  1.0000
  C   C38       1.0  0.8634264066732557  0.6347952997606398  0.5495589567350194  1.0000
  C   C39       1.0  0.3634242568080097  0.8652050151199333  0.549558720105324  1.0000
  C   C40       1.0  0.13657577153060171  0.3652014464616968  0.4504416508804708  1.0000
  N   N1        1.0  0.7066490159777248  0.16158551267652393  0.6181037298429928  1.0000
  N   N2        1.0  0.7933506598841834  0.6615861962297273  0.38189845304456327  1.0000
  N   N3        1.0  0.29335193119537456  0.8384143333707282  0.3818968398070695  1.0000
  N   N4        1.0  0.2066515112444307  0.3384126165423922  0.6181014640581353  1.0000
  N   N5        1.0  0.6257313940030045  0.08848740900559446  0.6800725802367535  1.0000
  N   N6        1.0  0.8742638640861743  0.5884870628875872  0.3199271184437649  1.0000
  N   N7        1.0  0.37426586712322074  0.9115134703085415  0.31992856601713976  1.0000
  N   N8        1.0  0.12573582370048092  0.41151278314391243  0.680070651166467  1.0000
  N   N9        1.0  0.4539592891977052  0.9997421494538582  0.8279311157484344  1.0000
  N   N10       1.0  0.046037102451549614  0.49974187205688747  0.17206896266868196  1.0000
  N   N11       1.0  0.5460429032013892  0.0002597631560306  0.17207087291164666  1.0000
  N   N12       1.0  0.9539576611523943  0.5002579739581208  0.8279286550544851  1.0000
  Cl  Cl1       1.0  0.41538381283854886  0.6173977259212791  0.8232572795144718  1.0000
  Cl  Cl2       1.0  0.08461876229300466  0.11739670279777667  0.17674292113750303  1.0000
  Cl  Cl3       1.0  0.5846133987012793  0.3826052199252031  0.1767390331245338  1.0000
  Cl  Cl4       1.0  0.9153871161579376  0.8826052098215768  0.8232584909208569  1.0000
  O   O1        1.0  0.4903038056826362  0.16772390541854776  0.4652211868921795  1.0000
  O   O2        1.0  0.0096968128795254  0.6677250720439857  0.534781215045683  1.0000
  O   O3        1.0  0.5096946935844004  0.8322790404553116  0.5347806878547132  1.0000
  O   O4        1.0  0.9903065892947609  0.33227374073226196  0.4652187400287814  1.0000
  O   O5        1.0  0.6933609938126751  0.12524307242618699  0.3702659667016519  1.0000
  O   O6        1.0  0.8066395492204921  0.6252428118828205  0.6297347245967941  1.0000
  O   O7        1.0  0.30663872938999504  0.8747547070671613  0.6297352554894359  1.0000
  O   O8        1.0  0.19336015981179602  0.37475496760470844  0.3702651165602617  1.0000
