data_image0
_chemical_formula_structural       ZnSiH16C24N4O8F6
_chemical_formula_sum              "Zn1 Si1 H16 C24 N4 O8 F6"
_cell_length_a       7.8941809430556775
_cell_length_b       13.960760695336614
_cell_length_c       13.960710985370769
_cell_angle_alpha    89.99926685734069
_cell_angle_beta     89.99961600958528
_cell_angle_gamma    89.99973372071648

_space_group_name_H-M_alt    "P 1"
_space_group_IT_number       1

loop_
  _space_group_symop_operation_xyz
  'x, y, z'

loop_
  _atom_site_type_symbol
  _atom_site_label
  _atom_site_symmetry_multiplicity
  _atom_site_fract_x
  _atom_site_fract_y
  _atom_site_fract_z
  _atom_site_occupancy
  Zn  Zn1       1.0  0.500016001149959  0.4999926441111667  0.5000062441125976  1.0000
  Si  Si1       1.0  1.3527374804300007e-05  0.4999960597849834  0.5000021380722615  1.0000
  H   H1        1.0  0.23440692809548844  0.6613573528708443  0.4999928007887249  1.0000
  H   H2        1.0  0.76561719943458  0.6613503214597287  0.49998324055376747  1.0000
  H   H3        1.0  0.23440213577834615  0.3386371161561286  0.4999511714278881  1.0000
  H   H4        1.0  0.7656149395974554  0.33862578589142345  0.5001120896393587  1.0000
  H   H5        1.0  0.23441683667193305  0.5000090952036657  0.6613624053390693  1.0000
  H   H6        1.0  0.7656258411051624  0.5000149569825252  0.6613671709418654  1.0000
  H   H7        1.0  0.23439729348279312  0.5000519886590168  0.3386503308482887  1.0000
  H   H8        1.0  0.7656062988385274  0.49987949346787985  0.3386436368578103  1.0000
  H   H9        1.0  0.7859068800426032  0.9157375834764776  0.4999751295390951  1.0000
  H   H10       1.0  0.21413508556791783  0.915746091749362  0.5000442159877139  1.0000
  H   H11       1.0  0.7858804476943747  0.08423919523540492  0.5001645373432169  1.0000
  H   H12       1.0  0.21410358824080333  0.08424913822700117  0.4999012624955768  1.0000
  H   H13       1.0  0.7858974317458449  0.5000204699942615  0.9157596219680073  1.0000
  H   H14       1.0  0.21413070513453655  0.49994660498956023  0.9157563630488139  1.0000
  H   H15       1.0  0.7858784966047454  0.4998245115701393  0.08425254510851939  1.0000
  H   H16       1.0  0.21410923474805807  0.5001016302485225  0.0842585957950845  1.0000
  C   C1        1.0  0.3516323191268499  0.702525467611629  0.4999937571049884  1.0000
  C   C2        1.0  0.34683843805693476  0.8023724676059486  0.5000010062708498  1.0000
  C   C3        1.0  0.5000206399775707  0.8549159974176984  0.4999989593255307  1.0000
  C   C4        1.0  0.6532008102910681  0.8023671163098596  0.49999400325834387  1.0000
  C   C5        1.0  0.6483952154131531  0.7025215594660067  0.4999874878127173  1.0000
  C   C6        1.0  0.5000125568727257  0.9559541879787189  0.5000061921790007  1.0000
  C   C7        1.0  0.4999979105196104  0.04403396539488821  0.5000134590259435  1.0000
  C   C8        1.0  0.4999961611456173  0.14507860257072017  0.5000235570102518  1.0000
  C   C9        1.0  0.3468147244836786  0.19761530705510916  0.4999719257817645  1.0000
  C   C10       1.0  0.35162411956461176  0.2974716082812279  0.49998059003944206  1.0000
  C   C11       1.0  0.6483882820221895  0.29746698323134513  0.5000695881037842  1.0000
  C   C12       1.0  0.6531808962599116  0.19761282019037907  0.5000802463834759  1.0000
  C   C13       1.0  0.35164090344865434  0.5000072701474778  0.7025334480375066  1.0000
  C   C14       1.0  0.34683548220856864  0.4999987573827978  0.8023815234037812  1.0000
  C   C15       1.0  0.5000176107589881  0.5000018340718029  0.8549186840636905  1.0000
  C   C16       1.0  0.6531978543103918  0.5000062992936165  0.8023859810431375  1.0000
  C   C17       1.0  0.6484050664325026  0.5000090923151601  0.7025321927775606  1.0000
  C   C18       1.0  0.5000081198308594  0.49999259207123703  0.955964397464804  1.0000
  C   C19       1.0  0.49999474716118913  0.49998768218474504  0.044039495294612194  1.0000
  C   C20       1.0  0.49999665699846935  0.49997700753910823  0.1450923716431589  1.0000
  C   C21       1.0  0.3468176799248397  0.5000298457790463  0.197625790590692  1.0000
  C   C22       1.0  0.35161680158388725  0.5000220386741887  0.29748316035633576  1.0000
  C   C23       1.0  0.6483822317878278  0.4999257286473976  0.2974826220178031  1.0000
  C   C24       1.0  0.6531762523892297  0.49991561787552985  0.1976223697611417  1.0000
  N   N1        1.0  0.5000152601843341  0.6551704348465606  0.4999880602252418  1.0000
  N   N2        1.0  0.5000078748176905  0.34481628597223585  0.5000244280068884  1.0000
  N   N3        1.0  0.5000213770413495  0.5000124237898405  0.6551831545453624  1.0000
  N   N4        1.0  0.5000042914611456  0.4999757296082734  0.34483004996890537  1.0000
  O   O1        1.0  0.806125899761483  0.8467434696520827  0.4999941579191329  1.0000
  O   O2        1.0  0.19391039115092212  0.8467513064965004  0.5000103119253508  1.0000
  O   O3        1.0  0.8061038758026201  0.1532375624375959  0.500123230315765  1.0000
  O   O4        1.0  0.19388583506515292  0.15324611701716154  0.499914467410278  1.0000
  O   O5        1.0  0.8061241485953375  0.5000001166679269  0.8467616667746611  1.0000
  O   O6        1.0  0.19390864020676457  0.4999864648356791  0.8467584809291322  1.0000
  O   O7        1.0  0.8061018278831471  0.4998648765545396  0.1532540081921283  1.0000
  O   O8        1.0  0.19388505157833447  0.5000840200109451  0.1532587001144066  1.0000
  F   F1        1.0  0.2264144691335234  0.49999437792350676  0.5000053083965241  1.0000
  F   F2        1.0  0.7736162664205397  0.4999980732795207  0.5000000168261707  1.0000
  F   F3        1.0  3.1381803012200005e-05  0.5858329058175327  0.41417071670484507  1.0000
  F   F4        1.0  3.2734797770000037e-06  0.4141577811482123  0.5858349920268394  1.0000
  F   F5        1.0  1.5121178762500003e-05  0.5858260771503438  0.5858396240833628  1.0000
  F   F6        1.0  2.4601128480100003e-05  0.4141653261077566  0.41416536833864365  1.0000
