data_image0
_chemical_formula_structural       Na2H20C10Cl2O10
_chemical_formula_sum              "Na2 H20 C10 Cl2 O10"
_cell_length_a       5.9824527570049595
_cell_length_b       6.885719616548033
_cell_length_c       9.816776516090979
_cell_angle_alpha    106.81077259815329
_cell_angle_beta     89.99998797663484
_cell_angle_gamma    90.00014020494989

_space_group_name_H-M_alt    "P 1"
_space_group_IT_number       1

loop_
  _space_group_symop_operation_xyz
  'x, y, z'

loop_
  _atom_site_type_symbol
  _atom_site_label
  _atom_site_symmetry_multiplicity
  _atom_site_fract_x
  _atom_site_fract_y
  _atom_site_fract_z
  _atom_site_occupancy
  Na  Na1       1.0  0.20327610204441976  0.0704495111869861  0.9292715224368281  1.0000
  Na  Na2       1.0  0.7032746765871634  0.9295486556979711  0.07072851551610163  1.0000
  H   H1        1.0  0.592749445130451  0.7144497254434512  0.29602094190331474  1.0000
  H   H2        1.0  0.0927548741801303  0.28554970118234024  0.7039793644624552  1.0000
  H   H3        1.0  0.3429195122238866  0.030875434016998306  0.48705392576078316  1.0000
  H   H4        1.0  0.8429180519297075  0.9691276062009279  0.5129460567730674  1.0000
  H   H5        1.0  0.2734640307854974  0.7021729817041732  0.09642664709330258  1.0000
  H   H6        1.0  0.7734706395583473  0.2978268689276007  0.9035747394241441  1.0000
  H   H7        1.0  0.0956090699448069  0.8592696581655305  0.2873486412691904  1.0000
  H   H8        1.0  0.5956086250308203  0.1407297782950678  0.7126526853660734  1.0000
  H   H9        1.0  0.9584116115166806  0.28694584482415303  0.16262943822123077  1.0000
  H   H10       1.0  0.45840980760309696  0.7130529161831091  0.8373706856317751  1.0000
  H   H11       1.0  0.08089014096405119  0.22137332977698773  0.3746001367898302  1.0000
  H   H12       1.0  0.5808897954298331  0.778627586337237  0.6254004712064116  1.0000
  H   H13       1.0  0.5567537058979042  0.3496023098271692  0.11802606891851039  1.0000
  H   H14       1.0  0.05675338794242889  0.6503955094937482  0.8819718810874094  1.0000
  H   H15       1.0  0.29790681628828247  0.45699990766690485  0.2897314459789513  1.0000
  H   H16       1.0  0.7979041280342114  0.5430015074365784  0.710267196467633  1.0000
  H   H17       1.0  0.679771807152072  0.3770796105152667  0.3719408337824248  1.0000
  H   H18       1.0  0.17976815310616698  0.6229200123799501  0.6280574632654989  1.0000
  H   H19       1.0  0.45679966195634586  0.35094658710527676  0.4869370316588188  1.0000
  H   H20       1.0  0.9567939840832053  0.6490567182953909  0.5130629892159888  1.0000
  C   C1        1.0  0.4178282021903568  0.9605167307031692  0.38179593661492817  1.0000
  C   C2        1.0  0.9178258396494952  0.03948344654492791  0.618202440583083  1.0000
  C   C3        1.0  0.23991455068424727  0.9449531781064592  0.26574145955149214  1.0000
  C   C4        1.0  0.73991553625644  0.0550481083224028  0.7342592019860064  1.0000
  C   C5        1.0  0.16418032540236277  0.15932904360209219  0.2706188504710311  1.0000
  C   C6        1.0  0.6641801157579792  0.8406720632838897  0.7293807662600428  1.0000
  C   C7        1.0  0.3599965234680552  0.3000194432674732  0.2662120110219917  1.0000
  C   C8        1.0  0.8599942564778474  0.6999805993106634  0.7337863467050171  1.0000
  C   C9        1.0  0.5302209849188626  0.2888100539325649  0.37963668303469683  1.0000
  C   C10       1.0  0.030215902956719297  0.7111892207086187  0.6203615636615538  1.0000
  Cl  Cl1       1.0  0.3310854003851986  0.44003900552676367  0.8579750411917926  1.0000
  Cl  Cl2       1.0  0.8310846137200089  0.5599594621653381  0.14202605910033836  1.0000
  O   O1        1.0  0.5039514849870201  0.7736192263335299  0.38393121781996337  1.0000
  O   O2        1.0  0.003955109259905499  0.22638758861489092  0.616073644693131  1.0000
  O   O3        1.0  0.3310325762881021  0.8410505178367348  0.12863832108535433  1.0000
  O   O4        1.0  0.8310338013925076  0.158946438988437  0.8713645121804275  1.0000
  O   O5        1.0  0.009800503809415799  0.1471889425150152  0.1569735402768231  1.0000
  O   O6        1.0  0.5097969474796499  0.8528102877582382  0.843025718852118  1.0000
  O   O7        1.0  0.4578509745887445  0.2383106385311962  0.1264229079095216  1.0000
  O   O8        1.0  0.9578505025466554  0.7616866040606992  0.8735769101306728  1.0000
  O   O9        1.0  0.601639575260549  0.08358905884604438  0.3592057986919031  1.0000
  O   O10       1.0  0.10163671891248777  0.9164119024009808  0.6407937969822298  1.0000
