data_image0
_chemical_formula_structural       CdH40C34S2N14O2
_chemical_formula_sum              "Cd1 H40 C34 S2 N14 O2"
_cell_length_a       9.341008319863947
_cell_length_b       9.452122466880832
_cell_length_c       11.272741219863653
_cell_angle_alpha    109.428016625177
_cell_angle_beta     96.61129927272536
_cell_angle_gamma    91.92926596303776

_space_group_name_H-M_alt    "P 1"
_space_group_IT_number       1

loop_
  _space_group_symop_operation_xyz
  'x, y, z'

loop_
  _atom_site_type_symbol
  _atom_site_label
  _atom_site_symmetry_multiplicity
  _atom_site_fract_x
  _atom_site_fract_y
  _atom_site_fract_z
  _atom_site_occupancy
  Cd  Cd1       1.0  0.5000001118582132  0.5000001948127135  0.5000001968285164  1.0000
  H   H1        1.0  0.6514373756171067  0.06220348747269361  0.9892977717445322  1.0000
  H   H2        1.0  0.34856376780018644  0.9377946558894905  0.010702079908540432  1.0000
  H   H3        1.0  0.8348194910937748  0.3816441934861529  0.3812646963196756  1.0000
  H   H4        1.0  0.1651795720435842  0.6183550671838418  0.6187343872790338  1.0000
  H   H5        1.0  0.4129230723731253  0.22048344238792336  0.19885507939178387  1.0000
  H   H6        1.0  0.5870791353371629  0.7795147060517067  0.8011413240144026  1.0000
  H   H7        1.0  0.8589427645917735  0.0168551497701159  0.13222684556479442  1.0000
  H   H8        1.0  0.14105838225266606  0.9831429933360243  0.8677738934349437  1.0000
  H   H9        1.0  0.9694586251707802  0.17899130118423298  0.23054681675726849  1.0000
  H   H10       1.0  0.0305437545487806  0.8210090965476765  0.7694537791793226  1.0000
  H   H11       1.0  0.0318102789052404  0.22381090230695116  0.7357719587510305  1.0000
  H   H12       1.0  0.9681867899568244  0.776190600316987  0.2642284530585216  1.0000
  H   H13       1.0  0.10870320334870334  0.29966143341862755  0.13693269990609744  1.0000
  H   H14       1.0  0.8912979366414431  0.7003367101996075  0.8630662644003098  1.0000
  H   H15       1.0  0.8483766553036672  0.03281711182144421  0.6088330949747631  1.0000
  H   H16       1.0  0.15162041355839756  0.9671843908024942  0.39116731683478195  1.0000
  H   H17       1.0  0.7217208331428536  0.9513490332331854  0.6779764987673789  1.0000
  H   H18       1.0  0.27827731372077835  0.04865247344398681  0.3220240141819489  1.0000
  H   H19       1.0  0.4552812495346359  0.29859572395302075  0.9252960695684113  1.0000
  H   H20       1.0  0.5447187333035898  0.7014012904537309  0.07470247202634543  1.0000
  H   H21       1.0  0.32143679523959884  0.1635238938251433  0.8207448194679049  1.0000
  H   H22       1.0  0.6785612690465398  0.8364764879498452  0.1792544845628967  1.0000
  H   H23       1.0  0.35163369341609746  0.18130142517721734  0.9833410965429156  1.0000
  H   H24       1.0  0.6483630554174197  0.8186955770698033  0.016657141632499893  1.0000
  H   H25       1.0  0.14786111999146098  0.5301278324717345  0.8709044447376332  1.0000
  H   H26       1.0  0.8521404226047194  0.46987593642560205  0.12909790212144404  1.0000
  H   H27       1.0  0.20452660595233138  0.37256815626841433  0.7535245121709695  1.0000
  H   H28       1.0  0.7954738517879958  0.6274356090877761  0.24647595885498677  1.0000
  H   H29       1.0  0.3353582647296278  0.5073223745695757  0.8624792717522214  1.0000
  H   H30       1.0  0.6646431161387125  0.49267914426733467  0.13752154461645463  1.0000
  H   H31       1.0  0.2954071887418833  0.42497809070497533  0.15471477456780047  1.0000
  H   H32       1.0  0.7045917229490611  0.5750189191364325  0.8452854405805115  1.0000
  H   H33       1.0  0.1961670295767277  0.5585314289998067  0.10671791239184361  1.0000
  H   H34       1.0  0.8038330392661377  0.441466710053092  0.8932827254681188  1.0000
  H   H35       1.0  0.38059465165921574  0.5399057883998637  0.083911848559687  1.0000
  H   H36       1.0  0.6194054929068569  0.46009347606732126  0.9160882235254707  1.0000
  H   H37       1.0  0.7807333023471299  0.3269280036311883  0.6164306208138443  1.0000
  H   H38       1.0  0.21926583651343626  0.6730723824530926  0.3835678970100675  1.0000
  H   H39       1.0  0.33824978758400437  0.2113115683585107  0.5981959504291512  1.0000
  H   H40       1.0  0.6617505978602621  0.7886910713273423  0.40180597371827537  1.0000
  C   C1        1.0  0.7420894869007384  0.3211089611081519  0.3142086576042829  1.0000
  C   C2        1.0  0.25790957966376027  0.6788902993057917  0.6857913133410991  1.0000
  C   C3        1.0  0.5296457463724024  0.2374373045241853  0.21883617068176878  1.0000
  C   C4        1.0  0.47035531446739737  0.7625597139358078  0.7811624720527706  1.0000
  C   C5        1.0  0.8787380643375255  0.1387293050742358  0.15386532302623832  1.0000
  C   C6        1.0  0.12126315480297475  0.8612699637022414  0.8461339628520367  1.0000
  C   C7        1.0  0.9125471344294309  0.17201800966167005  0.03786063531887147  1.0000
  C   C8        1.0  0.08745400898786221  0.8279801337005209  0.9621392163342012  1.0000
  C   C9        1.0  0.8221668031763867  0.11209345802136991  0.9209128804013179  1.0000
  C   C10       1.0  0.17783333796253933  0.887905806701859  0.0790863043371743  1.0000
  C   C11       1.0  0.8677242069959802  0.13035919606800658  0.811718565157179  1.0000
  C   C12       1.0  0.13227493529172557  0.8696411897602231  0.18828084001339826  1.0000
  C   C13       1.0  0.9986202391812145  0.21274304530157204  0.822278458308276  1.0000
  C   C14       1.0  0.0013789856839850176  0.7872584654288489  0.1777221557808347  1.0000
  C   C15       1.0  0.08760063876825798  0.27899364544892086  0.9384690397039325  1.0000
  C   C16       1.0  0.9124004254986813  0.7210033727550279  0.06153049037727236  1.0000
  C   C17       1.0  0.041643067108409995  0.2551379548246331  0.04471167255730533  1.0000
  C   C18       1.0  0.9583581554592296  0.7448613136957932  0.955288500667635  1.0000
  C   C19       1.0  0.7782047988889146  0.0573191868229799  0.6838305386351282  1.0000
  C   C20       1.0  0.2217922699731432  0.9426823158009583  0.3161698731744168  1.0000
  C   C21       1.0  0.23395854346277634  0.3621666433880931  0.947457360015534  1.0000
  C   C22       1.0  0.7660415976761498  0.6378326213351427  0.052541824722958104  1.0000
  C   C23       1.0  0.3468400410787709  0.24462925948800768  0.9174476874204988  1.0000
  C   C24       1.0  0.6531579440570211  0.7553699971287388  0.08255129503842808  1.0000
  C   C25       1.0  0.2294143223007268  0.44727659744768283  0.8526094377224854  1.0000
  C   C26       1.0  0.7705870585676137  0.5527249213892276  0.14739137864619073  1.0000
  C   C27       1.0  0.27836093917915855  0.4771754067548102  0.08110408396903786  1.0000
  C   C28       1.0  0.7216402868156278  0.5228238615095717  0.9188969766025682  1.0000
  C   C29       1.0  0.678353348427393  0.2715421992677847  0.6200728852068667  1.0000
  C   C30       1.0  0.32164695786651976  0.7284593152598333  0.3799287173686921  1.0000
  C   C31       1.0  0.4551386562822087  0.21042491699964222  0.6122989921069718  1.0000
  C   C32       1.0  0.5448606511604837  0.7895777186329767  0.3877028309006718  1.0000
  C   C33       1.0  0.17151926530983988  0.3323120754930429  0.4471562820259366  1.0000
  C   C34       1.0  0.8284857521692499  0.6676950807826996  0.5528482203147506  1.0000
  S   S1        1.0  0.04377195224235209  0.26196866808470537  0.5017848067132749  1.0000
  S   S2        1.0  0.9562214868632565  0.7380271965882983  0.498213693817597  1.0000
  N   N1        1.0  0.6025022386850907  0.34222560822561837  0.3247324169662492  1.0000
  N   N2        1.0  0.39749789559954957  0.6577736570097131  0.6752649930789121  1.0000
  N   N3        1.0  0.6169035320660398  0.1534650853520745  0.14369814891845323  1.0000
  N   N4        1.0  0.383097683647314  0.846534183680454  0.8563002496131492  1.0000
  N   N5        1.0  0.7515489208993174  0.20766157281990158  0.20635850797435754  1.0000
  N   N6        1.0  0.24845337966989683  0.792337699753773  0.7936417663903585  1.0000
  N   N7        1.0  0.6643310513505724  0.14767326687854881  0.652777049387119  1.0000
  N   N8        1.0  0.3356672640951928  0.8523304893469684  0.3472267687459408  1.0000
  N   N9        1.0  0.5470553715314067  0.3144062838722305  0.5938683608832636  1.0000
  N   N10       1.0  0.45294601276408014  0.6855952347086286  0.40613334283207797  1.0000
  N   N11       1.0  0.5221133810158631  0.10696699569420788  0.6484666572140229  1.0000
  N   N12       1.0  0.4778848552795479  0.8930356353730601  0.3515368393471761  1.0000
  N   N13       1.0  0.266365706449271  0.38218281477990257  0.40678976614358947  1.0000
  N   N14       1.0  0.7336270641150904  0.6178186706068587  0.5932137904935078  1.0000
  O   O1        1.0  0.6939223907060846  0.03212460298630051  0.9073249471840089  1.0000
  O   O2        1.0  0.30607875271120827  0.9678735403758839  0.09267490446906394  1.0000
