data_image0
_chemical_formula_structural       Zn2H16C35Br4N4O13
_chemical_formula_sum              "Zn2 H16 C35 Br4 N4 O13"
_cell_length_a       9.849226785294942
_cell_length_b       10.985956090189505
_cell_length_c       17.119183493908956
_cell_angle_alpha    91.87967021647454
_cell_angle_beta     95.62738208431998
_cell_angle_gamma    91.59397646640527

_space_group_name_H-M_alt    "P 1"
_space_group_IT_number       1

loop_
  _space_group_symop_operation_xyz
  'x, y, z'

loop_
  _atom_site_type_symbol
  _atom_site_label
  _atom_site_symmetry_multiplicity
  _atom_site_fract_x
  _atom_site_fract_y
  _atom_site_fract_z
  _atom_site_occupancy
  Zn  Zn1       1.0  0.35708573263141125  0.4982451569767363  0.5061768211445071  1.0000
  Zn  Zn2       1.0  0.6406512128846843  0.49525322037064967  0.5044309249988217  1.0000
  H   H1        1.0  0.28407613104206325  0.8176972385757677  0.39519631203685895  1.0000
  H   H2        1.0  0.20260413350307263  0.8520711253793181  0.48190837488925825  1.0000
  H   H3        1.0  0.18044675548011924  0.0660404082734658  0.4410722052408716  1.0000
  H   H4        1.0  0.8751638953710242  0.6420587955060881  0.5873383521612825  1.0000
  H   H5        1.0  0.13446509059365755  0.24300930621762976  0.4351518941872854  1.0000
  H   H6        1.0  0.42000790056162174  0.3063829540184884  0.8972985320304832  1.0000
  H   H7        1.0  0.8856653883640535  0.2182230229114026  0.45017659348237526  1.0000
  H   H8        1.0  0.6283824069857432  0.3909431577423277  0.1258796161709554  1.0000
  H   H9        1.0  0.6519795525233433  0.6453382939639382  0.9037338586081491  1.0000
  H   H10       1.0  0.6315156488618143  0.42592213842215176  0.269827207893954  1.0000
  H   H11       1.0  0.7113872214964018  0.14041612898093803  0.5629097890808198  1.0000
  H   H12       1.0  0.193807929307205  0.014011026585045301  0.29794967466453676  1.0000
  H   H13       1.0  0.1007938220951345  0.4393337963321431  0.311110243862622  1.0000
  H   H14       1.0  0.7099920094140445  0.27054716480994057  0.3478557515022375  1.0000
  H   H15       1.0  0.1304673530779894  0.6251501099529975  0.11072871037571731  1.0000
  H   H16       1.0  0.11044381434655291  0.5849301556970372  0.23433304856604312  1.0000
  C   C1        1.0  0.5041636371455526  0.2595690268525033  0.4887946688583257  1.0000
  C   C2        1.0  0.32775754995866185  0.5524083889911252  0.21523647947139327  1.0000
  C   C3        1.0  0.46985543736420965  0.3771126526534019  0.8662404580936285  1.0000
  C   C4        1.0  0.47155937186656166  0.3704538398106862  0.7852132188332848  1.0000
  C   C5        1.0  0.5334678732069448  0.4787205491477237  0.9078861521483362  1.0000
  C   C6        1.0  0.5306550494562572  0.46370990864402023  0.7438860884403768  1.0000
  C   C7        1.0  0.5971935575984447  0.5617448812144091  0.7880429125594405  1.0000
  C   C8        1.0  0.6016445935936332  0.5688067062964137  0.8694538544041494  1.0000
  C   C9        1.0  0.4045698552448657  0.0420027756766075  0.4773203293073324  1.0000
  C   C10       1.0  0.5094695985864349  0.12600925961556436  0.501542333483826  1.0000
  C   C11       1.0  0.6275796920426941  0.07794303385427531  0.540765801594958  1.0000
  C   C12       1.0  0.4467557276207756  0.5186638992394919  0.35313993127710575  1.0000
  C   C13       1.0  0.6403042011802997  0.9529657638537472  0.5515315130948297  1.0000
  C   C14       1.0  0.5348493890177082  0.8666109269362821  0.5256571075942349  1.0000
  C   C15       1.0  0.4172161271588806  0.9182294455399568  0.4902555677923389  1.0000
  C   C16       1.0  0.28158755991449885  0.8822100966368253  0.44519560663189145  1.0000
  C   C17       1.0  0.27318965662438893  0.0228085526413153  0.4242250199691712  1.0000
  C   C18       1.0  0.9245470640820981  0.4136446553157428  0.47032102795211733  1.0000
  C   C19       1.0  0.9293431374651179  0.5760319665810769  0.5542224299437495  1.0000
  C   C20       1.0  0.07295370387220149  0.5814452776642085  0.5572324721569828  1.0000
  C   C21       1.0  0.064697346427927  0.42427093559514634  0.46948870187215874  1.0000
  C   C22       1.0  0.0732901608901955  0.3179865126589831  0.4120749134268352  1.0000
  C   C23       1.0  0.5386097762423462  0.730738780768917  0.5255433044491725  1.0000
  C   C24       1.0  0.9118396018464452  0.2987160134759535  0.41745318944244053  1.0000
  C   C25       1.0  0.5155752419293692  0.46450761955679803  0.6555460899660519  1.0000
  C   C26       1.0  0.43824224517528887  0.5117000188469518  0.26493643346073276  1.0000
  C   C27       1.0  0.5452100254137875  0.4548318819841057  0.23131515770224814  1.0000
  C   C28       1.0  0.5445291460229313  0.4360588429399642  0.15080016834699714  1.0000
  C   C29       1.0  0.43516538555775236  0.4759789599018518  0.1009197738881156  1.0000
  C   C30       1.0  0.32576738217579765  0.5347001672662375  0.1328662374709495  1.0000
  C   C31       1.0  0.2874981336658494  0.03902386711370549  0.33780021193062754  1.0000
  C   C32       1.0  0.1139582327559623  0.3446435431415935  0.3299901337245501  1.0000
  C   C33       1.0  0.8166015229728174  0.30305497632917877  0.3427508706772216  1.0000
  C   C34       1.0  0.21595459401983422  0.5859483350119846  0.08056591544190181  1.0000
  C   C35       1.0  0.21646547720281004  0.6240930482963236  0.24679727438145702  1.0000
  Br  Br1       1.0  0.39249403521400694  0.2289123079238138  0.7288395483656205  1.0000
  Br  Br2       1.0  0.8106579106687875  0.9070647598431734  0.6045077537019239  1.0000
  Br  Br3       1.0  0.16584615722320714  0.697637407908175  0.6270605634979562  1.0000
  Br  Br4       1.0  0.677827675766558  0.6938157170062453  0.7375361527166222  1.0000
  N   N1        1.0  0.43230512866058757  0.45473824994188305  0.0192863397204732  1.0000
  N   N2        1.0  0.5323381865404713  0.502481733700705  0.9896163977792867  1.0000
  N   N3        1.0  0.852740557070888  0.49032609469907124  0.510211325073378  1.0000
  N   N4        1.0  0.14409239876722782  0.5064217203064415  0.5130719195209608  1.0000
  O   O1        1.0  0.3895745958647154  0.3102958296760434  0.48942329322714073  1.0000
  O   O2        1.0  0.6183088335171973  0.3130267538715614  0.48005001628505545  1.0000
  O   O3        1.0  0.3356589392714682  0.5133787427324705  0.3858235049503379  1.0000
  O   O4        1.0  0.566372023525048  0.5241549333846792  0.3889479709398672  1.0000
  O   O5        1.0  0.42198759728016466  0.6763616345937393  0.5202705390390181  1.0000
  O   O6        1.0  0.6525378876418841  0.6787649166252977  0.526650891379731  1.0000
  O   O7        1.0  0.3947213342859115  0.4762259208438024  0.6241227374567089  1.0000
  O   O8        1.0  0.6229523918782222  0.457289262959641  0.6207203775846821  1.0000
  O   O9        1.0  0.3934659563776891  0.07088416588290869  0.31214118256657747  1.0000
  O   O10       1.0  0.1601266366373153  0.26621515647905614  0.2893846740807079  1.0000
  O   O11       1.0  0.8528394898237579  0.3419363790384864  0.28191791585457804  1.0000
  O   O12       1.0  0.2132084254130788  0.5880293955025236  0.008915239808743498  1.0000
  O   O13       1.0  0.2375844313299211  0.7220323495965602  0.28242976129510583  1.0000
