data_image0
_chemical_formula_structural       Al6H17C72I3O40
_chemical_formula_sum              "Al6 H17 C72 I3 O40"
_cell_length_a       12.660306147541263
_cell_length_b       12.716474808514286
_cell_length_c       26.787022180064497
_cell_angle_alpha    82.18603573502605
_cell_angle_beta     82.34813327583927
_cell_angle_gamma    65.4707992838341

_space_group_name_H-M_alt    "P 1"
_space_group_IT_number       1

loop_
  _space_group_symop_operation_xyz
  'x, y, z'

loop_
  _atom_site_type_symbol
  _atom_site_label
  _atom_site_symmetry_multiplicity
  _atom_site_fract_x
  _atom_site_fract_y
  _atom_site_fract_z
  _atom_site_occupancy
  Al  Al1       1.0  0.3945810753290359  0.4218707482870555  0.5104981054541399  1.0000
  Al  Al2       1.0  0.6408575086496953  0.4430044771833081  0.4918681635715672  1.0000
  Al  Al3       1.0  0.4231944065248285  0.6637081941974898  0.4977061267669783  1.0000
  Al  Al4       1.0  0.9286024130175435  0.9355454443305573  0.9765424064994905  1.0000
  Al  Al5       1.0  0.8961256486429291  0.6957260476480158  0.9966828563951184  1.0000
  Al  Al6       1.0  0.6805448000991774  0.9183384436255507  0.9907186200547005  1.0000
  H   H1        1.0  0.8297904677697686  0.09827733012176049  0.27478861608987165  1.0000
  H   H2        1.0  0.47585915203646295  0.7570406296378637  0.784943886314011  1.0000
  H   H3        1.0  0.5792560685812376  0.8567039182699002  0.7022887265748922  1.0000
  H   H4        1.0  0.7679833624872215  0.4673028435753181  0.7874145643384838  1.0000
  H   H5        1.0  0.7883923365652876  0.7737396453308917  0.7519955081399277  1.0000
  H   H6        1.0  0.3052574888366805  0.768797260300886  0.24908240553817515  1.0000
  H   H7        1.0  0.3441872923005533  0.5748318162544735  0.19702031225444475  1.0000
  H   H8        1.0  0.4580715494377399  0.30519484252477713  0.19977949247016372  1.0000
  H   H9        1.0  0.4990399255219841  0.13708936529417307  0.2848834774085206  1.0000
  H   H10       1.0  0.8270525558749428  0.822303503439876  0.20818488258941412  1.0000
  H   H11       1.0  0.44222135162510784  0.5003113140958461  0.7049057959230183  1.0000
  H   H12       1.0  0.9989104367761142  0.4504429012136626  0.6514829824926169  1.0000
  H   H13       1.0  0.814727341949293  0.8002903017695786  0.33570234776719593  1.0000
  H   H14       1.0  0.8537168759023785  0.6257982698199952  0.21438384204781613  1.0000
  H   H15       1.0  0.5421909633107519  0.5675260100943547  0.27746480022663184  1.0000
  H   H16       1.0  0.3093222404230004  0.3002271827911471  0.5535701067529645  1.0000
  H   H17       1.0  0.026698551006468604  0.04549058224934298  0.9935632053911408  1.0000
  C   C1        1.0  0.5902341068451166  0.31514918835092226  0.43066998808888013  1.0000
  C   C2        1.0  0.6365507807863363  0.6969654367777027  0.2675386844468478  1.0000
  C   C3        1.0  0.6316044072112846  0.6849480779886788  0.3181686493245054  1.0000
  C   C4        1.0  0.6245621516322614  0.6688678680907074  0.3644621712608044  1.0000
  C   C5        1.0  0.06106897416523793  0.7469699662525996  0.2730990621674324  1.0000
  C   C6        1.0  0.12052399626034577  0.7973706350749052  0.22650021785243984  1.0000
  C   C7        1.0  0.08698017820659476  0.7079766458513178  0.10391006051685281  1.0000
  C   C8        1.0  0.2299989784195091  0.6605208942573881  0.39022033622238445  1.0000
  C   C9        1.0  0.0840499395383246  0.6375850180275151  0.24506900841934962  1.0000
  C   C10       1.0  0.14158642850610179  0.6891654867638692  0.19688011557715163  1.0000
  C   C11       1.0  0.20633128851154936  0.5734225634258507  0.2662474566323852  1.0000
  C   C12       1.0  0.6008637234291568  0.6364227801316034  0.4169329228576332  1.0000
  C   C13       1.0  0.18491417823740625  0.6819359692832804  0.29561369934361903  1.0000
  C   C14       1.0  0.26391245637982047  0.6237677441117384  0.21927530285180555  1.0000
  C   C15       1.0  0.24240604390447362  0.7312403135181356  0.2476456911320214  1.0000
  C   C16       1.0  0.11586231406644736  0.695397160560212  0.1466309388144751  1.0000
  C   C17       1.0  0.20603944299625  0.6757377375122217  0.3465540619343771  1.0000
  C   C18       1.0  0.5627866488654545  0.1669385219319039  0.26373556297373574  1.0000
  C   C19       1.0  0.5405164309568561  0.25822883069866975  0.21688203202501202  1.0000
  C   C20       1.0  0.688730533447753  0.11666305664905251  0.09497809218516552  1.0000
  C   C21       1.0  0.611878389617985  0.27023122711892705  0.38226543380702793  1.0000
  C   C22       1.0  0.6784755748721806  0.0860429649787946  0.23608346669010427  1.0000
  C   C23       1.0  0.2790614940816382  0.6291230611591628  0.43833322434866784  1.0000
  C   C24       1.0  0.6569093374935021  0.1776437447834098  0.18749906094492272  1.0000
  C   C25       1.0  0.7468371685578603  0.14587540401917207  0.25824623362052535  1.0000
  C   C26       1.0  0.6302206236837619  0.22555674174730458  0.2876404781801511  1.0000
  C   C27       1.0  0.7235670885853763  0.23716062521150855  0.21161190883931627  1.0000
  C   C28       1.0  0.6058116842045109  0.3186768718339295  0.2399114993060324  1.0000
  C   C29       1.0  0.6722061260273192  0.14807865236106468  0.1373699606209371  1.0000
  C   C30       1.0  0.6196142106407477  0.24917719733893762  0.33859496423058033  1.0000
  C   C31       1.0  0.6213158985866869  0.7703679210008333  0.721726691229428  1.0000
  C   C32       1.0  0.5641924211089487  0.7160460192290473  0.7670474525295106  1.0000
  C   C33       1.0  0.6939340264893658  0.6985152823511596  0.889398892607993  1.0000
  C   C34       1.0  0.6019202148942709  0.3003776789126462  0.5735132428175903  1.0000
  C   C35       1.0  0.6472710625382588  0.6391670162441655  0.5995434719743643  1.0000
  C   C36       1.0  0.7362740717296815  0.7253043844351481  0.7485490190096513  1.0000
  C   C37       1.0  0.6788906919445237  0.6705060763820041  0.7954595679940584  1.0000
  C   C38       1.0  0.7837548609213059  0.6096219787625898  0.7228360196931548  1.0000
  C   C39       1.0  0.6682392839877379  0.65469534930088  0.6943411947796606  1.0000
  C   C40       1.0  0.726168029189793  0.5545091414012973  0.7687220691631325  1.0000
  C   C41       1.0  0.6122347102762546  0.5983880470874041  0.7415028265028669  1.0000
  C   C42       1.0  0.6862112729955498  0.6831814150659027  0.8463076835191858  1.0000
  C   C43       1.0  0.659108453366933  0.6464103809076818  0.6431922841264  1.0000
  C   C44       1.0  0.09834939857476842  0.695543631600117  0.8664258737618911  1.0000
  C   C45       1.0  0.6166524808875166  0.6176498297979194  0.5536941249084679  1.0000
  C   C46       1.0  0.12925315290008402  0.6814975953752479  0.8215655184821887  1.0000
  C   C47       1.0  0.1594294239674809  0.6694082865376032  0.772158551845216  1.0000
  C   C48       1.0  0.18273367680414035  0.6617982800281439  0.7262476899317607  1.0000
  C   C49       1.0  0.21043036004471813  0.6524233241627329  0.6765516669397231  1.0000
  C   C50       1.0  0.23888218297799563  0.6433207573424298  0.6312091677010303  1.0000
  C   C51       1.0  0.7070066282948062  0.1007610967393475  0.8571794511716819  1.0000
  C   C52       1.0  0.6928109512112072  0.13184796202080656  0.8122782549260847  1.0000
  C   C53       1.0  0.6783220376025695  0.16276911582607304  0.7629804816437942  1.0000
  C   C54       1.0  0.6660917160248515  0.18829550827616257  0.7173685154305363  1.0000
  C   C55       1.0  0.650124925565734  0.21841397114345534  0.6681397557200413  1.0000
  C   C56       1.0  0.288730675704997  0.618978492852392  0.5805144442454592  1.0000
  C   C57       1.0  0.6337887692479924  0.2476699480427271  0.6232633898182487  1.0000
  C   C58       1.0  0.03454301613925279  0.7364705653143844  0.0566869651239514  1.0000
  C   C59       1.0  0.7033160155197178  0.7408261139859037  0.07186222719601433  1.0000
  C   C60       1.0  0.7199025164376422  0.0601142503872367  0.04903095034593011  1.0000
  C   C61       1.0  0.04318833440189007  0.7273262567063411  0.9157528618815649  1.0000
  C   C62       1.0  0.7160319036335281  0.7293414095968201  0.9350857712472733  1.0000
  C   C63       1.0  0.733242362347333  0.0488179968740781  0.907612816794938  1.0000
  C   C64       1.0  0.6681630505141669  0.7187899344338148  0.12411031626185584  1.0000
  C   C65       1.0  0.6507448277396577  0.7104635782301969  0.17034352572289183  1.0000
  C   C66       1.0  0.6391459352539711  0.7024336003155724  0.22101340618090867  1.0000
  C   C67       1.0  0.7186196755206068  0.958099590947235  0.23980796791668987  1.0000
  C   C68       1.0  0.5423591255329043  0.5284320025454292  0.742927721715148  1.0000
  C   C69       1.0  0.9066175402183202  0.5501307841774192  0.7018096973050592  1.0000
  C   C70       1.0  0.9530242237658513  0.8131994943578746  0.30442322604664446  1.0000
  C   C71       1.0  0.99742273798779  0.5883797442603438  0.24210167327745324  1.0000
  C   C72       1.0  0.5664013524755231  0.4460784205221557  0.23791085648201724  1.0000
  I   I1        1.0  0.05659875377185836  0.9703931694148621  0.19420811927336962  1.0000
  I   I2        1.0  0.8470498004933303  0.2956288426875134  0.17110875451255236  1.0000
  I   I3        1.0  0.2775601925247742  0.4034668512921724  0.30158448610053074  1.0000
  O   O1        1.0  0.29665324506494517  0.5288783083651226  0.4591158190845165  1.0000
  O   O2        1.0  0.6839336237248758  0.5235771021961922  0.5339525169748144  1.0000
  O   O3        1.0  0.5205488797280465  0.6913543935632519  0.5369558783622639  1.0000
  O   O4        1.0  0.3154678519644847  0.6981564802337203  0.5536447036942463  1.0000
  O   O5        1.0  0.48720298798048844  0.5107833203207264  0.4999445359951126  1.0000
  O   O6        1.0  0.8208410756604392  0.03840495837506099  0.027587134834462308  1.0000
  O   O7        1.0  0.015528682556201483  0.835796657506627  0.03449942879998251  1.0000
  O   O8        1.0  0.007229181911888812  0.6587005218751327  0.04223213213157352  1.0000
  O   O9        1.0  0.8020703842496316  0.6682044355351521  0.05481356718347291  1.0000
  O   O10       1.0  0.636286696982175  0.8339356655173944  0.04835202360067111  1.0000
  O   O11       1.0  0.642350683648658  0.03199033629571351  0.03458615815905831  1.0000
  O   O12       1.0  0.49307867944794725  0.33185969911524876  0.4551391295704193  1.0000
  O   O13       1.0  0.8341598355018504  0.024521479458549305  0.9197136932536268  1.0000
  O   O14       1.0  0.026682082326303137  0.8265972601780832  0.9267516988339398  1.0000
  O   O15       1.0  0.011304220395189213  0.6526796919499561  0.94354609983958  1.0000
  O   O16       1.0  0.8067375549145482  0.6584845141727624  0.956737607260685  1.0000
  O   O17       1.0  0.6465698821536421  0.8286001158366787  0.949789491872089  1.0000
  O   O18       1.0  0.6512675110655194  0.028213208045123395  0.9353655770870548  1.0000
  O   O19       1.0  0.8339047572794197  0.8487210891436378  0.9885110689637533  1.0000
  O   O20       1.0  0.6714460319387712  0.33898497311242437  0.4444741488995448  1.0000
  O   O21       1.0  0.6725547827611604  0.5392247963005657  0.4355718821290254  1.0000
  O   O22       1.0  0.5063493579846963  0.7050887081199304  0.43900298918001823  1.0000
  O   O23       1.0  0.30572092236435117  0.7050092474886538  0.45477934120503266  1.0000
  O   O24       1.0  0.30590516982700683  0.5213079626915658  0.5672439396091705  1.0000
  O   O25       1.0  0.49962176305234596  0.32253901364121157  0.5635479123058715  1.0000
  O   O26       1.0  0.6795250077350588  0.324552276257684  0.5440965262565882  1.0000
  O   O27       1.0  0.6858605116874799  0.9050454917223192  0.2758909842319781  1.0000
  O   O28       1.0  0.7960355499325189  0.90812026906854  0.20156122121790795  1.0000
  O   O29       1.0  0.5310835060971469  0.4653642725340885  0.7799875623088754  1.0000
  O   O30       1.0  0.49022486996450704  0.5454302463589754  0.6996729515466387  1.0000
  O   O31       1.0  0.9891377102778022  0.5564352010409265  0.7181487730777579  1.0000
  O   O32       1.0  0.915993450309358  0.4870382719173775  0.6631898399928107  1.0000
  O   O33       1.0  0.9244824834078639  0.9132487748980792  0.313571940421035  1.0000
  O   O34       1.0  0.8915012167847464  0.7484281620520221  0.32123935519155833  1.0000
  O   O35       1.0  0.003574094757361448  0.4933237940378632  0.25993051535053274  1.0000
  O   O36       1.0  0.9071920818776462  0.6638869456778946  0.21441511766504823  1.0000
  O   O37       1.0  0.541025649562428  0.5101855585308926  0.19887408723936775  1.0000
  O   O38       1.0  0.563103961426165  0.48360697487005666  0.28318916584152737  1.0000
  O   O39       1.0  0.30756728906538194  0.3431994743876955  0.5208132846319488  1.0000
  O   O40       1.0  0.016047835363423205  0.013475112374003093  0.9648430879134866  1.0000
