data_image0
_chemical_formula_structural       Cd2H36C52N12O16
_chemical_formula_sum              "Cd2 H36 C52 N12 O16"
_cell_length_a       8.517413842493088
_cell_length_b       11.650538964003452
_cell_length_c       14.916
_cell_angle_alpha    98.79880840901043
_cell_angle_beta     100.27333336363253
_cell_angle_gamma    104.67897254466727

_space_group_name_H-M_alt    "P 1"
_space_group_IT_number       1

loop_
  _space_group_symop_operation_xyz
  'x, y, z'

loop_
  _atom_site_type_symbol
  _atom_site_label
  _atom_site_symmetry_multiplicity
  _atom_site_fract_x
  _atom_site_fract_y
  _atom_site_fract_z
  _atom_site_occupancy
  Cd  Cd1       1.0  0.11871659298063256  0.41834579283920437  0.4183340074262176  1.0000
  Cd  Cd2       1.0  0.8812800477645837  0.5816519400630966  0.5816660500239124  1.0000
  H   H1        1.0  0.7590647316423826  0.3183217075093694  0.28169372790268454  1.0000
  H   H2        1.0  0.2409326285676201  0.6816778397242513  0.7183032674839395  1.0000
  H   H3        1.0  0.6161081934135524  0.3280047937311252  0.1207733030504059  1.0000
  H   H4        1.0  0.3838934658444799  0.6719965678338083  0.8792230060773107  1.0000
  H   H5        1.0  0.04860049877241576  0.6196630882528851  0.1233845972776351  1.0000
  H   H6        1.0  0.9514047400688453  0.38033827331204856  0.8766160989177578  1.0000
  H   H7        1.0  0.17497164991304004  0.5946733959022481  0.2811599386566925  1.0000
  H   H8        1.0  0.8250280966857844  0.4053261513313728  0.7188419927047889  1.0000
  H   H9        1.0  0.8141855925039677  0.555690673293924  0.9853114693730518  1.0000
  H   H10       1.0  0.18581797941327236  0.4443125026023224  0.014687262573197302  1.0000
  H   H11       1.0  0.3760747324606655  0.26279500481615503  0.8547428190763071  1.0000
  H   H12       1.0  0.6239269267973668  0.7372063567487785  0.1452588534196053  1.0000
  H   H13       1.0  0.4459260198582129  0.5286389934051527  0.5759585844620786  1.0000
  H   H14       1.0  0.5540737267406115  0.4713605538284682  0.4240413356363248  1.0000
  H   H15       1.0  0.5735814467694523  0.510808652418781  0.7337815080696473  1.0000
  H   H16       1.0  0.42641829982937196  0.48919089481483974  0.26621774160773976  1.0000
  H   H17       1.0  0.149911256145316  0.19938231106750948  0.708111074986796  1.0000
  H   H18       1.0  0.8500888501859123  0.8006181433317676  0.2918903309744678  1.0000
  H   H19       1.0  0.037292350733196096  0.23198040178256457  0.5505964765075716  1.0000
  H   H20       1.0  0.9627070361332316  0.7680182382854  0.44940463941208014  1.0000
  H   H21       1.0  0.3960695481155909  0.2394164386721798  0.19872573456899542  1.0000
  H   H22       1.0  0.6039305582156373  0.7605840157270976  0.8012736601291977  1.0000
  H   H23       1.0  0.41038531190044836  0.0797117391061803  0.06724892352484349  1.0000
  H   H24       1.0  0.5896168210871975  0.9202878081274404  0.9327512396012522  1.0000
  H   H25       1.0  0.949754579559361  0.8453359672230147  0.09513974893352639  1.0000
  H   H26       1.0  0.0502475534282851  0.1546635800105989  0.9048617550346236  1.0000
  H   H27       1.0  0.9378754200387718  0.0063628599175019  0.2266735187631639  1.0000
  H   H28       1.0  0.062125879486863746  0.9936375944817754  0.7733280087119426  1.0000
  H   H29       1.0  0.5759766827878892  0.7721993647980554  0.4846590990880557  1.0000
  H   H30       1.0  0.42401995795732017  0.22779836810425275  0.5153402879410507  1.0000
  H   H31       1.0  0.7720961726963935  0.9768849662957988  0.5670228509398072  1.0000
  H   H32       1.0  0.22790166124323008  0.0231127666065092  0.4329766576031489  1.0000
  H   H33       1.0  0.3972616850655299  0.048208597338998495  0.7080689932386051  1.0000
  H   H34       1.0  0.6027377018008977  0.9517900427289658  0.2919321226810466  1.0000
  H   H35       1.0  0.20147882712042534  0.8441602805316748  0.6260588936807281  1.0000
  H   H36       1.0  0.7985193665515878  0.1558383595362898  0.3739414303040576  1.0000
  C   C1        1.0  0.8174456622757873  0.3831568370080447  0.2433353879647058  1.0000
  C   C2        1.0  0.18255289112862266  0.6168427102255762  0.7566617289357609  1.0000
  C   C3        1.0  0.7388640644468082  0.3889726760344273  0.1553129025704365  1.0000
  C   C4        1.0  0.26113759481122395  0.6110286855305062  0.8446840769783037  1.0000
  C   C5        1.0  0.8217469323602344  0.4742108683224444  0.10955245055636453  1.0000
  C   C6        1.0  0.1782583064810268  0.5257904932424893  0.8904469047969812  1.0000
  C   C7        1.0  0.9800620519946364  0.5512999915145258  0.15568401516782876  1.0000
  C   C8        1.0  0.01994163391981364  0.4487004628847514  0.8443164144929157  1.0000
  C   C9        1.0  0.051106291655173705  0.5381923549379763  0.243527068754787  1.0000
  C   C10       1.0  0.9488953676028588  0.4618090066269643  0.7564739333201018  1.0000
  C   C11       1.0  0.7495693575387464  0.48205512975766135  0.01559156507143915  1.0000
  C   C12       1.0  0.2504362410349117  0.5179471389729287  0.9844072648816891  1.0000
  C   C13       1.0  0.4378592729612549  0.3414308454532531  0.8282948321849517  1.0000
  C   C14       1.0  0.5621411931023701  0.6585705161116806  0.17170537795506388  1.0000
  C   C15       1.0  0.383898823380754  0.4570400367686388  0.6076400136849074  1.0000
  C   C16       1.0  0.6161005634856735  0.5429586032993257  0.3923604318137137  1.0000
  C   C17       1.0  0.4551826832810945  0.4465659020940648  0.6957666036281154  1.0000
  C   C18       1.0  0.5448186162445339  0.5534345523052124  0.30423358300494396  1.0000
  C   C19       1.0  0.3718996804892356  0.3530008362413568  0.7342672425410371  1.0000
  C   C20       1.0  0.6281004258419927  0.6469996181579205  0.2657334929992032  1.0000
  C   C21       1.0  0.22052548390689  0.2724907913571073  0.6807910120601833  1.0000
  C   C22       1.0  0.7794746224243381  0.7275096630421698  0.3192103939010806  1.0000
  C   C23       1.0  0.1566900485426288  0.29017870733535023  0.5932322872863978  1.0000
  C   C24       1.0  0.8433096980562027  0.7098208398982706  0.40676897365406006  1.0000
  C   C25       1.0  0.1578771027797217  0.2265746016330965  0.2972697313521664  1.0000
  C   C26       1.0  0.8421245564783105  0.7734267599318372  0.7027306003016989  1.0000
  C   C27       1.0  0.1668926941427884  0.13081056622806386  0.2198140597841274  1.0000
  C   C28       1.0  0.8331082456504504  0.869188981005557  0.7801846409860786  1.0000
  C   C29       1.0  0.2999581453220799  0.152497268421925  0.1752310051879249  1.0000
  C   C30       1.0  0.700040767814734  0.8475031859773523  0.8247689384174421  1.0000
  C   C31       1.0  0.30789647907788975  0.0651317726684795  0.10262454814754558  1.0000
  C   C32       1.0  0.6921048204477458  0.9348686817307978  0.8973756384855134  1.0000
  C   C33       1.0  0.18014740527938497  0.9558305585647986  0.07571346708301971  1.0000
  C   C34       1.0  0.8198535345138466  0.04416898866882239  0.924287244950257  1.0000
  C   C35       1.0  0.04628960519953299  0.9317906686569373  0.11901754038064641  1.0000
  C   C36       1.0  0.9537128875205099  0.06820978574234  0.8809841086083025  1.0000
  C   C37       1.0  0.040392573543307705  0.0202969244074893  0.19122213254727427  1.0000
  C   C38       1.0  0.9596102789091387  0.9797044371574443  0.8087789910414642  1.0000
  C   C39       1.0  0.26820476790474856  0.6712499704981809  0.5039732496932032  1.0000
  C   C40       1.0  0.7317910393784502  0.32874866956978366  0.4960254904218431  1.0000
  C   C41       1.0  0.37860604067833487  0.7966964661969911  0.5503264796925721  1.0000
  C   C42       1.0  0.6213913195316749  0.20330308103662986  0.4496725269571229  1.0000
  C   C43       1.0  0.5382815362968287  0.834073505592599  0.5330143890465777  1.0000
  C   C44       1.0  0.4617151044483805  0.16592422730970918  0.4669849979825287  1.0000
  C   C45       1.0  0.6468359818937799  0.946828753751376  0.5782820185380472  1.0000
  C   C46       1.0  0.3531606588514293  0.0531689791509322  0.4217173684910662  1.0000
  C   C47       1.0  0.5924515635230919  0.021290270801792098  0.640900031587897  1.0000
  C   C48       1.0  0.4075462704165318  0.9787074621005089  0.35910014737608265  1.0000
  C   C49       1.0  0.43357903039534307  0.9867014058691197  0.6587247670111438  1.0000
  C   C50       1.0  0.5664191632766773  0.013297234198844897  0.3412755569736419  1.0000
  C   C51       1.0  0.32593643070929096  0.8735225113485683  0.6128711983318454  1.0000
  C   C52       1.0  0.6740609295007118  0.1264770358850527  0.3871291491599037  1.0000
  N   N1        1.0  0.9713927367421888  0.4558534640894081  0.286514204473697  1.0000
  N   N2        1.0  0.02860498320021067  0.5441469903098692  0.7134849471968039  1.0000
  N   N3        1.0  0.6134608932239162  0.4020957344271493  0.9676128180852004  1.0000
  N   N4        1.0  0.3865435121553347  0.5979065343034405  0.03238723119613242  1.0000
  N   N5        1.0  0.5668480728916805  0.4244446675505457  0.880053304394835  1.0000
  N   N6        1.0  0.4331539460987486  0.5755576011800443  0.11994650185881278  1.0000
  N   N7        1.0  0.2366974670835233  0.3811674227224557  0.5573826872848215  1.0000
  N   N8        1.0  0.7633007265884899  0.6188312173455016  0.4426176366999642  1.0000
  N   N9        1.0  0.184975575638262  0.8628605933830185  0.9984501100950283  1.0000
  N   N10       1.0  0.8150241709605623  0.13713895385060226  0.0015504804244059814  1.0000
  N   N11       1.0  0.7073115086761632  0.13908119552202436  0.6905570735090265  1.0000
  N   N12       1.0  0.29268751845786767  0.8609165373802838  0.3094432269687957  1.0000
  O   O1        1.0  0.036646478654027696  0.20226891218776186  0.33719269681564157  1.0000
  O   O2        1.0  0.9633548208716078  0.7977315422115153  0.6628081602384411  1.0000
  O   O3        1.0  0.2705599258014928  0.3280038865654689  0.3180252142375437  1.0000
  O   O4        1.0  0.7294413737241358  0.6719965678338083  0.6819743019744847  1.0000
  O   O5        1.0  0.2939464867739757  0.8900347406354711  0.9537188222014238  1.0000
  O   O6        1.0  0.7060529000924518  0.1099638994324934  0.0462816232972045  1.0000
  O   O7        1.0  0.07881035866261499  0.7622958373216733  0.9815730901524802  1.0000
  O   O8        1.0  0.9211897476686061  0.237704617077604  0.0184283158087837  1.0000
  O   O9        1.0  0.3176658708041131  0.6101006550634978  0.4422768894654254  1.0000
  O   O10       1.0  0.6823263568958565  0.38989798500446676  0.5577208156870626  1.0000
  O   O11       1.0  0.13492860144805263  0.6297353485414448  0.5301186551716484  1.0000
  O   O12       1.0  0.8650691184943469  0.37026510585783257  0.46988250776193036  1.0000
  O   O13       1.0  0.8428234135035169  0.17275064887788008  0.6680946301853368  1.0000
  O   O14       1.0  0.15717764028693879  0.8272461768587644  0.3319064387203881  1.0000
  O   O15       1.0  0.6648055658488872  0.19957463018676688  0.7530898675816573  1.0000
  O   O16       1.0  0.3351926278231332  0.8004240098811977  0.24690978598209773  1.0000
