data_image0
_chemical_formula_structural       Co4H32C36N8O8
_chemical_formula_sum              "Co4 H32 C36 N8 O8"
_cell_length_a       9.022651353780136
_cell_length_b       9.472949661053393
_cell_length_c       10.697795156498504
_cell_angle_alpha    90.00038457600228
_cell_angle_beta     98.47508977772593
_cell_angle_gamma    89.99993670450455

_space_group_name_H-M_alt    "P 1"
_space_group_IT_number       1

loop_
  _space_group_symop_operation_xyz
  'x, y, z'

loop_
  _atom_site_type_symbol
  _atom_site_label
  _atom_site_symmetry_multiplicity
  _atom_site_fract_x
  _atom_site_fract_y
  _atom_site_fract_z
  _atom_site_occupancy
  Co  Co1       1.0  0.1393322457984283  0.7745412054460842  0.8495536220483118  1.0000
  Co  Co2       1.0  0.3606645103572887  0.2745421237213037  0.15044308582736224  1.0000
  Co  Co3       1.0  0.8606654657761085  0.2254589606072414  0.15044649133763247  1.0000
  Co  Co4       1.0  0.6393343159463285  0.7254590979658386  0.8495562265149134  1.0000
  H   H1        1.0  0.2893603788871387  0.4759490629407849  0.915430853763475  1.0000
  H   H2        1.0  0.2106363138831071  0.9759486098537521  0.0845633043292366  1.0000
  H   H3        1.0  0.7106362121449834  0.5240447692881459  0.08456912516837181  1.0000
  H   H4        1.0  0.7893670004068624  0.024049444924543195  0.9154374812272297  1.0000
  H   H5        1.0  0.18278388924552763  0.42927623361343575  0.36223882768079824  1.0000
  H   H6        1.0  0.3172150539102958  0.9292756459852144  0.6377553230218993  1.0000
  H   H7        1.0  0.8172149661272813  0.5707260437288253  0.6377651620753471  1.0000
  H   H8        1.0  0.6827804165781471  0.07072452006818958  0.3622445214933379  1.0000
  H   H9        1.0  0.0174905765118254  0.6069045074115991  0.4437027540057842  1.0000
  H   H10       1.0  0.4825095863022001  0.10690415930871919  0.5562952358810807  1.0000
  H   H11       1.0  0.982508267233058  0.3930998811983882  0.5562993647923095  1.0000
  H   H12       1.0  0.5174903547313362  0.8930896729129993  0.44370327539252946  1.0000
  H   H13       1.0  0.9084724262329829  0.8047711768412212  0.3088126078419934  1.0000
  H   H14       1.0  0.5915306896882626  0.30476906951090393  0.6911891118012151  1.0000
  H   H15       1.0  0.09152863534264812  0.19523215611710037  0.6911860378950863  1.0000
  H   H16       1.0  0.4084793478609186  0.6952194845304972  0.308812480339256  1.0000
  H   H17       1.0  0.9669159651355983  0.8357089404431047  0.09015520516766172  1.0000
  H   H18       1.0  0.5330871562492163  0.33570538114946646  0.9098485685587151  1.0000
  H   H19       1.0  0.033086228611225  0.164290169972638  0.9098454459565702  1.0000
  H   H20       1.0  0.46691950804279264  0.6642863397971864  0.09015074932077033  1.0000
  H   H21       1.0  0.5132479515856828  0.6420839349055212  0.5902015257068243  1.0000
  H   H22       1.0  0.9867563172945353  0.14207402711704017  0.40979936538946765  1.0000
  H   H23       1.0  0.48675426541573324  0.35792362062363736  0.4098028673709991  1.0000
  H   H24       1.0  0.0132413768384225  0.8579261389256484  0.5901979415500307  1.0000
  H   H25       1.0  0.3259790244277879  0.6175411989923346  0.5073115542092951  1.0000
  H   H26       1.0  0.1740300947982405  0.11753222761526419  0.4926866386121845  1.0000
  H   H27       1.0  0.6740298867628027  0.38246424524404427  0.4926889680636606  1.0000
  H   H28       1.0  0.8259664787916704  0.8824679384274743  0.5073105338919675  1.0000
  H   H29       1.0  0.41292050146456927  0.4840994783618482  0.6104715234025733  1.0000
  H   H30       1.0  0.087088515655914  0.9840919577821056  0.3895241617010896  1.0000
  H   H31       1.0  0.5870861802675548  0.5159070215191052  0.389530600967099  1.0000
  H   H32       1.0  0.9129091784770436  0.015908208260590598  0.6104731452384086  1.0000
  C   C1        1.0  0.23777555288826585  0.516004491143562  0.9938205455552805  1.0000
  C   C2        1.0  0.2622201516791875  0.016003357287338798  0.006177304025314388  1.0000
  C   C3        1.0  0.7622188377541618  0.48399567493468254  0.006185712899650774  1.0000
  C   C4        1.0  0.7377786804386018  0.983994697491134  0.9938229437897379  1.0000
  C   C5        1.0  0.16640430929788858  0.5322392532505872  0.17911088694332733  1.0000
  C   C6        1.0  0.33359474785000737  0.032238946124436986  0.8208865265585175  1.0000
  C   C7        1.0  0.833595637549088  0.4677588015242975  0.8208885598249296  1.0000
  C   C8        1.0  0.6663996079092556  0.967761219932555  0.17911411900351482  1.0000
  C   C9        1.0  0.13608500192145803  0.5166796420024083  0.30290691178093004  1.0000
  C   C10       1.0  0.36391293197006286  0.016676255387814403  0.6970893396956728  1.0000
  C   C11       1.0  0.8639082565499905  0.4833226353436044  0.6970973412805962  1.0000
  C   C12       1.0  0.6360847563493479  0.9833207437391205  0.30290703175230504  1.0000
  C   C13       1.0  0.04367682539683669  0.616849291039095  0.3477974605989261  1.0000
  C   C14       1.0  0.45632335287731257  0.11684864004398317  0.6522033945974854  1.0000
  C   C15       1.0  0.9563253741637324  0.3831508750175983  0.6522041260105881  1.0000
  C   C16       1.0  0.5436777319546025  0.8831462478292665  0.34779899304319883  1.0000
  C   C17       1.0  0.9834318555822392  0.7305533562063643  0.27179448975228143  1.0000
  C   C18       1.0  0.5165712634993367  0.23054843640076672  0.728204919616914  1.0000
  C   C19       1.0  0.0165669881625377  0.26945208804102083  0.7282076290489388  1.0000
  C   C20       1.0  0.48343761862331996  0.7694432845316326  0.2717909252046837  1.0000
  C   C21       1.0  0.015217529529564898  0.7486332701563326  0.14912567816460862  1.0000
  C   C22       1.0  0.4847826108591989  0.24863198571051012  0.850874086105854  1.0000
  C   C23       1.0  0.9847846525896388  0.2513647846149211  0.8508731019922069  1.0000
  C   C24       1.0  0.515218473972716  0.7513629021627465  0.1491283015348301  1.0000
  C   C25       1.0  0.10729764674093899  0.6482503791205189  0.10333670323885971  1.0000
  C   C26       1.0  0.3927002667490526  0.14824847682718453  0.8966612625023131  1.0000
  C   C27       1.0  0.8927000764612102  0.35175084257728867  0.8966652811145083  1.0000
  C   C28       1.0  0.6072985421129785  0.8517527448493283  0.10333524339350929  1.0000
  C   C29       1.0  0.33972275547375824  0.6604145475657146  0.7061075791228006  1.0000
  C   C30       1.0  0.16028075830799074  0.16041041674814238  0.2938911307892624  1.0000
  C   C31       1.0  0.6602771913724793  0.3395908966710052  0.29389186766732683  1.0000
  C   C32       1.0  0.8397180505542535  0.8395886936535603  0.7061053751003143  1.0000
  C   C33       1.0  0.40161482683217997  0.598808154639194  0.5955218458489142  1.0000
  C   C34       1.0  0.098390940311063  0.09879964482268379  0.4044767682675784  1.0000
  C   C35       1.0  0.5983896138137439  0.4011994008792498  0.4044800096531703  1.0000
  C   C36       1.0  0.9016056390927076  0.9012005212236004  0.5955213397187151  1.0000
  N   N1        1.0  0.15594890352798527  0.6355364377361992  0.9863296239972147  1.0000
  N   N2        1.0  0.3440490066813098  0.13553528002793058  0.013667331009152402  1.0000
  N   N3        1.0  0.8440488080467645  0.3644616170423091  0.013670489382484188  1.0000
  N   N4        1.0  0.6559498138084479  0.864465941655666  0.9863310458509745  1.0000
  N   N5        1.0  0.2492554844144408  0.44994355681833986  0.10660724780885293  1.0000
  N   N6        1.0  0.25074121353748774  0.949941805382586  0.8933867563512836  1.0000
  N   N7        1.0  0.7507399802601425  0.5500566092315181  0.893391661224236  1.0000
  N   N8        1.0  0.7492564980371554  0.0500573050333273  0.10661335703154151  1.0000
  O   O1        1.0  0.19910937890959698  0.6850616018024663  0.6962982165701775  1.0000
  O   O2        1.0  0.30089299779029943  0.18505951805427398  0.3036986338362412  1.0000
  O   O3        1.0  0.8008894415799473  0.31494173115594026  0.30370016029620234  1.0000
  O   O4        1.0  0.6991058226996641  0.8149395923545198  0.6962997430176403  1.0000
  O   O5        1.0  0.4252387033102564  0.6853923363793509  0.8101486262010908  1.0000
  O   O6        1.0  0.07476257603598668  0.18539172378208946  0.1898518336605619  1.0000
  O   O7        1.0  0.5747590082637473  0.3146131078609926  0.1898514872004782  1.0000
  O   O8        1.0  0.9252373533694038  0.8146063309821655  0.8101448066612421  1.0000
