data_image0
_chemical_formula_structural       H32Pb2C44S2N6O12
_chemical_formula_sum              "H32 Pb2 C44 S2 N6 O12"
_cell_length_a       9.975689599988955
_cell_length_b       10.11178387133141
_cell_length_c       10.864173429038114
_cell_angle_alpha    90.26395351014689
_cell_angle_beta     87.99840490382148
_cell_angle_gamma    67.39772211825345

_space_group_name_H-M_alt    "P 1"
_space_group_IT_number       1

loop_
  _space_group_symop_operation_xyz
  'x, y, z'

loop_
  _atom_site_type_symbol
  _atom_site_label
  _atom_site_symmetry_multiplicity
  _atom_site_fract_x
  _atom_site_fract_y
  _atom_site_fract_z
  _atom_site_occupancy
  H   H1        1.0  0.8376308658024596  0.9082762457622026  0.16848003571183773  1.0000
  H   H2        1.0  0.1623639486263784  0.09168040603753272  0.8315345235098379  1.0000
  H   H3        1.0  0.9777973326264376  0.784343385160909  0.34944220004538823  1.0000
  H   H4        1.0  0.022219287502288382  0.21563690332799726  0.6505687994288608  1.0000
  H   H5        1.0  0.3666940570584671  0.6088289823490882  0.11584748658854244  1.0000
  H   H6        1.0  0.6333080772381267  0.39117559758560816  0.8841471327451701  1.0000
  H   H7        1.0  0.568173148557193  0.7323997385708907  0.8743562906398668  1.0000
  H   H8        1.0  0.43177667258083113  0.2676201654788386  0.12566540857604022  1.0000
  H   H9        1.0  0.7032419578274299  0.8786206618601184  0.9554951969131128  1.0000
  H   H10       1.0  0.2968078150219212  0.12133727755684726  0.04446353034379771  1.0000
  H   H11       1.0  0.6680764660871362  0.11059816878397301  0.853530533891423  1.0000
  H   H12       1.0  0.33196177506368946  0.8893685273119729  0.14643948217450037  1.0000
  H   H13       1.0  0.4998979738855168  0.1905558684914652  0.6817301307493439  1.0000
  H   H14       1.0  0.5000377122706609  0.8094793290404142  0.3183083967260246  1.0000
  H   H15       1.0  0.338689164630523  0.25753172153783777  0.5615738777195675  1.0000
  H   H16       1.0  0.6613326835176422  0.7424662618996508  0.4384082897264535  1.0000
  H   H17       1.0  0.16068581469336607  0.3181255184640008  0.3995105474376076  1.0000
  H   H18       1.0  0.8393082139943713  0.681886758840264  0.6004952758391086  1.0000
  H   H19       1.0  0.04982641611778861  0.1399428081722647  0.34093855652454863  1.0000
  H   H20       1.0  0.9501481783596829  0.8600804132626436  0.6590824358880455  1.0000
  H   H21       1.0  0.13988850284783874  0.9017809260639426  0.44434621370097466  1.0000
  H   H22       1.0  0.8601479913526545  0.0982081488090927  0.5556162954962361  1.0000
  H   H23       1.0  0.018021087320036558  0.8664026470455043  0.8728231590774628  1.0000
  H   H24       1.0  0.9819583407752644  0.13358811335822904  0.12718324677351234  1.0000
  H   H25       1.0  0.5866164621391975  0.6443193246678334  0.13139146801189133  1.0000
  H   H26       1.0  0.41337511323682463  0.3557296236354048  0.8686242378849941  1.0000
  H   H27       1.0  0.7539412519173538  0.610083895828822  0.950750213124337  1.0000
  H   H28       1.0  0.2460465853519266  0.389926247466967  0.04925763907537832  1.0000
  H   H29       1.0  0.11002394149465998  0.4223798109804305  0.19344450951582817  1.0000
  H   H30       1.0  0.8899691710792224  0.5776119490386691  0.8065550687639272  1.0000
  H   H31       1.0  0.9261321073078219  0.46389413313929856  0.3635922025636162  1.0000
  H   H32       1.0  0.0738643502626886  0.5360815095746432  0.6364055796560353  1.0000
  Pb  Pb1       1.0  0.3830454263660456  0.6840639099045661  0.650154335416822  1.0000
  Pb  Pb2       1.0  0.6169940100348086  0.31595042014681246  0.3498364175008959  1.0000
  C   C1        1.0  0.2508898619713732  0.7289955270391673  0.905141941358977  1.0000
  C   C2        1.0  0.7490894415082252  0.2710034513345149  0.09484598613665442  1.0000
  C   C3        1.0  0.17472560547176394  0.7453405815168209  0.027581160377394595  1.0000
  C   C4        1.0  0.8252689952181953  0.25465760381312214  0.9724174020075014  1.0000
  C   C5        1.0  0.023071612775488904  0.8272446157590138  0.04183093485460892  1.0000
  C   C6        1.0  0.9769225250561179  0.1727494950023569  0.9581787220053715  1.0000
  C   C7        1.0  0.9533158223239369  0.8425496465107399  0.15865209905020816  1.0000
  C   C8        1.0  0.04668462828446706  0.15742841351188733  0.8413584416884919  1.0000
  C   C9        1.0  0.03143342007451368  0.7749064848591941  0.25898667533562053  1.0000
  C   C10       1.0  0.9685763967327645  0.22507584943126352  0.7410208107444591  1.0000
  C   C11       1.0  0.18043741238788166  0.6904621800390061  0.24424923353426214  1.0000
  C   C12       1.0  0.8195758633899641  0.3095318425886333  0.7557516143881529  1.0000
  C   C13       1.0  0.25147274101539807  0.6759251160579467  0.12936940894277882  1.0000
  C   C14       1.0  0.7485294864480988  0.32407411779775697  0.8706261738087663  1.0000
  C   C15       1.0  0.5574879886145824  0.8344460371180702  0.8347458214534953  1.0000
  C   C16       1.0  0.4424848021078489  0.1655640828191167  0.16526428433848392  1.0000
  C   C17       1.0  0.6301865005953929  0.9162624217065555  0.8798852117650926  1.0000
  C   C18       1.0  0.36982416473864527  0.0837205873361384  0.12010199211242421  1.0000
  C   C19       1.0  0.6099489899179745  0.045329069192639806  0.8229678283601063  1.0000
  C   C20       1.0  0.39005851675324243  0.9546593649972197  0.17702309841317293  1.0000
  C   C21       1.0  0.5156070060076985  0.08975273369502901  0.7262262726729247  1.0000
  C   C22       1.0  0.48437090137185373  0.9102596254920955  0.273787356353978  1.0000
  C   C23       1.0  0.44404036735428304  0.0025035120170145  0.6872331858087933  1.0000
  C   C24       1.0  0.5559411853296367  0.9975098433492918  0.312775731896089  1.0000
  C   C25       1.0  0.3379979027255331  0.0446161767316369  0.5878821627530897  1.0000
  C   C26       1.0  0.6620076820896654  0.9553873074849902  0.41211053015150173  1.0000
  C   C27       1.0  0.2953991873033672  0.17899540617161594  0.5327030351627047  1.0000
  C   C28       1.0  0.7046132863345773  0.8210059048132052  0.4672867256651828  1.0000
  C   C29       1.0  0.19214590071990761  0.21416651493731817  0.44253408275494627  1.0000
  C   C30       1.0  0.8078583458102242  0.7858402922938694  0.557464142219523  1.0000
  C   C31       1.0  0.1327509532959397  0.11553120373068988  0.40940961460292874  1.0000
  C   C32       1.0  0.8672465747682807  0.884479905038212  0.5905905991184569  1.0000
  C   C33       1.0  0.1815676845841878  0.9835532304731273  0.4673879022447808  1.0000
  C   C34       1.0  0.8184540664939632  0.0164425154325158  0.5325896838417209  1.0000
  C   C35       1.0  0.7038026228425236  0.5973984022141323  0.1425035066560412  1.0000
  C   C36       1.0  0.2961897108695197  0.40262576195677724  0.8575068651846749  1.0000
  C   C37       1.0  0.7981964288591713  0.5784628820732677  0.040817250368768  1.0000
  C   C38       1.0  0.20179343578809755  0.4215472327828421  0.9591887053306253  1.0000
  C   C39       1.0  0.9487345254492465  0.5127445803876682  0.053871595189058014  1.0000
  C   C40       1.0  0.05125548122280329  0.48726011557214827  0.9461316408019514  1.0000
  C   C41       1.0  0.9953356903388908  0.47198597248673474  0.1734236672960776  1.0000
  C   C42       1.0  0.004656595020399876  0.528015495464622  0.8265786130642002  1.0000
  C   C43       1.0  0.892670860838095  0.4961466298708574  0.27007511272767465  1.0000
  C   C44       1.0  0.10732394230323913  0.5038484287075987  0.729928073653028  1.0000
  S   S1        1.0  0.2784127808899513  0.5953006606084869  0.37026922496107073  1.0000
  S   S2        1.0  0.72161339646091  0.4046987963050768  0.6297321440146747  1.0000
  N   N1        1.0  0.4678458080820748  0.8755543765237943  0.7409140191173408  1.0000
  N   N2        1.0  0.5321264311639666  0.12446221536823288  0.2590978880616532  1.0000
  N   N3        1.0  0.2812489825358853  0.9485986358673769  0.5540293825013195  1.0000
  N   N4        1.0  0.7187723346617146  0.0513981995054564  0.44594912682691773  1.0000
  N   N5        1.0  0.7484050644095175  0.5565283567362299  0.2565131009865809  1.0000
  N   N6        1.0  0.2515885181831977  0.44348502823955027  0.7434945663134304  1.0000
  O   O1        1.0  0.3852556519011756  0.6532455243929789  0.8920049133467245  1.0000
  O   O2        1.0  0.6147341447944824  0.3467879028374626  0.10798611675449621  1.0000
  O   O3        1.0  0.1737095122875302  0.7938663038874623  0.8129756212981789  1.0000
  O   O4        1.0  0.8262543676526803  0.2060852942215305  0.18700760719258372  1.0000
  O   O5        1.0  0.9439334575166852  0.8899389056835503  0.9453578940715701  1.0000
  O   O6        1.0  0.05605482129875839  0.1100649294963105  0.054656443775094515  1.0000
  O   O7        1.0  0.31499542064975117  0.4414213000733938  0.3422165727518731  1.0000
  O   O8        1.0  0.6850219940938799  0.5585773045774759  0.6577979319229074  1.0000
  O   O9        1.0  0.18159081613178063  0.6486741497591738  0.4804321922049298  1.0000
  O   O10       1.0  0.8184461705792571  0.3513436631611881  0.5195724072852458  1.0000
  O   O11       1.0  0.41207892163974685  0.625583065702827  0.37620465171661277  1.0000
  O   O12       1.0  0.587956687390573  0.37440538903094017  0.6237809020278108  1.0000
