data_image0
_chemical_formula_structural       Zn6H6C24N66
_chemical_formula_sum              "Zn6 H6 C24 N66"
_cell_length_a       14.680769600738278
_cell_length_b       14.680775740306302
_cell_length_c       14.680784472966819
_cell_angle_alpha    109.52230976383629
_cell_angle_beta     109.5222481751912
_cell_angle_gamma    109.52216457333591

_space_group_name_H-M_alt    "P 1"
_space_group_IT_number       1

loop_
  _space_group_symop_operation_xyz
  'x, y, z'

loop_
  _atom_site_type_symbol
  _atom_site_label
  _atom_site_symmetry_multiplicity
  _atom_site_fract_x
  _atom_site_fract_y
  _atom_site_fract_z
  _atom_site_occupancy
  Zn  Zn1       1.0  0.2002756675708142  0.4472991126936847  0.6929459390495013  1.0000
  Zn  Zn2       1.0  0.6929453540181354  0.20027535793975898  0.44729854444867084  1.0000
  Zn  Zn3       1.0  0.4472980570631933  0.6929450870663204  0.20027490178416232  1.0000
  Zn  Zn4       1.0  0.7997248778086004  0.5527016844116376  0.30705460459528666  1.0000
  Zn  Zn5       1.0  0.30705519062199466  0.7997247169830004  0.5527024396231467  1.0000
  Zn  Zn6       1.0  0.5527016484200473  0.30705456709664253  0.7997243003986513  1.0000
  H   H1        1.0  0.7071010463382592  0.7059490823054377  0.06776802011081175  1.0000
  H   H2        1.0  0.0677678330896256  0.7071026160003129  0.7059501608321738  1.0000
  H   H3        1.0  0.7059494671979107  0.06776810774351104  0.7071019043968859  1.0000
  H   H4        1.0  0.2928978307663712  0.2940501618777631  0.9322334943496955  1.0000
  H   H5        1.0  0.9322327148254601  0.2928989050842505  0.29405062474670274  1.0000
  H   H6        1.0  0.2940502444137607  0.9322322739920352  0.2928989044422465  1.0000
  C   C1        1.0  0.450840376619503  0.5833823929282718  0.9504911894229053  1.0000
  C   C2        1.0  0.4725301540441221  0.5163618506178195  0.8744989467970044  1.0000
  C   C3        1.0  0.3477883802610933  0.5707478064688659  0.948077460043976  1.0000
  C   C4        1.0  0.39965941244759756  0.41145254315116386  0.7693763894410213  1.0000
  C   C5        1.0  0.9504920039788515  0.45084170520752315  0.5833843524178234  1.0000
  C   C6        1.0  0.8744992858046956  0.4725313599016303  0.5163635406299107  1.0000
  C   C7        1.0  0.9480782176240294  0.3477897401436607  0.5707495124002404  1.0000
  C   C8        1.0  0.7693766332366323  0.3996601643822829  0.4114531699225453  1.0000
  C   C9        1.0  0.5833835481240257  0.9504916815860229  0.45084057701811286  1.0000
  C   C10       1.0  0.5163636182876203  0.8744999208283133  0.4725321231845712  1.0000
  C   C11       1.0  0.5707485334491693  0.9480780415379898  0.34778926471498284  1.0000
  C   C12       1.0  0.4114546059227847  0.7693773902044754  0.39965997345366583  1.0000
  C   C13       1.0  0.5491593306601175  0.41661726303136265  0.049508695121019755  1.0000
  C   C14       1.0  0.5274687184106668  0.48363811035792986  0.12550008015312392  1.0000
  C   C15       1.0  0.6522104914543974  0.42925143232431395  0.05192200733318219  1.0000
  C   C16       1.0  0.600340291239263  0.5885471092151207  0.23062213038068077  1.0000
  C   C17       1.0  0.0495102089360699  0.549159922637358  0.4166156608382749  1.0000
  C   C18       1.0  0.12550209080679758  0.5274691285942267  0.4836364958864436  1.0000
  C   C19       1.0  0.05192315898747069  0.6522107483522034  0.4292505241161137  1.0000
  C   C20       1.0  0.23062391034640933  0.6003406309263682  0.588546691361131  1.0000
  C   C21       1.0  0.41661699292334475  0.04950838974338718  0.5491590423314675  1.0000
  C   C22       1.0  0.48363608899200017  0.12549973513132068  0.5274677613593609  1.0000
  C   C23       1.0  0.4292520093945739  0.0519220315880915  0.6522110369957161  1.0000
  C   C24       1.0  0.5885459351245784  0.23062268112493461  0.6003396458959216  1.0000
  N   N1        1.0  0.5496730139890644  0.6692209007706112  0.03990255681632235  1.0000
  N   N2        1.0  0.6237627931495595  0.652145564566496  0.015529834456735577  1.0000
  N   N3        1.0  0.5842621096237154  0.563330262273503  0.9189040790399831  1.0000
  N   N4        1.0  0.4279412102913937  0.3339745737022001  0.7333693826581396  1.0000
  N   N5        1.0  0.3398428013605184  0.2503165514217187  0.63102313432708  1.0000
  N   N6        1.0  0.2609726135320898  0.2749928806803794  0.6058335880595536  1.0000
  N   N7        1.0  0.2957085256975772  0.3754993254225525  0.6913701373484784  1.0000
  N   N8        1.0  0.3377496155884714  0.6095689950137029  0.03899524499449566  1.0000
  N   N9        1.0  0.22902611459684152  0.5817019430922415  0.0018281667336026311  1.0000
  N   N10       1.0  0.1750175277484232  0.5275757271917031  0.893171782760362  1.0000
  N   N11       1.0  0.24735195924741046  0.5192186410419525  0.8568092084853801  1.0000
  N   N12       1.0  0.03990265835045649  0.5496739053291719  0.6692223967824447  1.0000
  N   N13       1.0  0.015529451003892799  0.6237636373397991  0.6521465085890056  1.0000
  N   N14       1.0  0.9189038605840878  0.58426159242066  0.5633304044370676  1.0000
  N   N15       1.0  0.7333698607440553  0.42794063135745836  0.3339739723453618  1.0000
  N   N16       1.0  0.6310248437045871  0.3398420598058536  0.2503177042521116  1.0000
  N   N17       1.0  0.6058338897109293  0.260972418722531  0.2749936346181981  1.0000
  N   N18       1.0  0.6913705983511349  0.2957087547378663  0.3754999955267023  1.0000
  N   N19       1.0  0.03899555621893569  0.3377504272903095  0.6095686033949123  1.0000
  N   N20       1.0  0.0018285388998436002  0.2290263285596339  0.5817022141556335  1.0000
  N   N21       1.0  0.8931720374514355  0.1750189872818027  0.5275758094111324  1.0000
  N   N22       1.0  0.8568090341307124  0.2473529157399028  0.5192195703227397  1.0000
  N   N23       1.0  0.6692220408656977  0.03990288848724777  0.5496732592096548  1.0000
  N   N24       1.0  0.6521450988493882  0.015529814057096388  0.6237635437087904  1.0000
  N   N25       1.0  0.5633299669722263  0.9189040010650872  0.5842614753654588  1.0000
  N   N26       1.0  0.3339764281543793  0.7333699809463  0.4279429248007958  1.0000
  N   N27       1.0  0.2503174165209217  0.6310229749543622  0.33984302136693145  1.0000
  N   N28       1.0  0.27499375095930384  0.6058342524167841  0.26097266348293147  1.0000
  N   N29       1.0  0.3755001792729687  0.6913716225271074  0.2957083987071131  1.0000
  N   N30       1.0  0.6095678484144356  0.03899467252795567  0.3377496155772803  1.0000
  N   N31       1.0  0.5817018194168426  0.001828787203145063  0.22902713041334977  1.0000
  N   N32       1.0  0.527575368042477  0.8931721493031617  0.1750182291546593  1.0000
  N   N33       1.0  0.519219433570747  0.8568088344676354  0.24735297312958682  1.0000
  N   N34       1.0  0.4503258569871348  0.330777615840006  0.9600973509878657  1.0000
  N   N35       1.0  0.376236078565931  0.34785367422668406  0.9844696329204224  1.0000
  N   N36       1.0  0.4157384390306689  0.43667198099363  0.08109626611185661  1.0000
  N   N37       1.0  0.5720576603670082  0.6660253854768783  0.2666289619308769  1.0000
  N   N38       1.0  0.6601569066583933  0.7496838267204778  0.3689763097898221  1.0000
  N   N39       1.0  0.739026258922692  0.7250070802953701  0.3941654388905746  1.0000
  N   N40       1.0  0.7042920117570332  0.6245007423135148  0.30862811727887857  1.0000
  N   N41       1.0  0.6622492586626905  0.39043096775871794  0.9610044643167511  1.0000
  N   N42       1.0  0.7709735901471078  0.4182969888881516  0.9981714758762409  1.0000
  N   N43       1.0  0.8249813457634472  0.4724235133981479  0.1068283669779077  1.0000
  N   N44       1.0  0.7526460769039574  0.48078018058478045  0.14318984172501115  1.0000
  N   N45       1.0  0.9600995520287866  0.45032699853646113  0.33077737453957207  1.0000
  N   N46       1.0  0.9844710875078062  0.3762357100103699  0.3478528688264929  1.0000
  N   N47       1.0  0.08109668225965548  0.41573848070542146  0.4366698972736316  1.0000
  N   N48       1.0  0.2666298447391923  0.5720590228054974  0.6660252298374515  1.0000
  N   N49       1.0  0.3689757019926247  0.6601572947310146  0.7496844026078477  1.0000
  N   N50       1.0  0.3941658211614509  0.7390272408304456  0.7250076146479643  1.0000
  N   N51       1.0  0.3086299462889883  0.7042913201848932  0.6245009885451084  1.0000
  N   N52       1.0  0.9610049830320548  0.662249642242429  0.3904303335935566  1.0000
  N   N53       1.0  0.9981728413044094  0.7709741635295728  0.41829918708295827  1.0000
  N   N54       1.0  0.10682934528848878  0.8249822287866453  0.472425833761541  1.0000
  N   N55       1.0  0.14319234607354758  0.7526475763493039  0.48078183091585197  1.0000
  N   N56       1.0  0.3307793382814666  0.9600983239878571  0.4503270192407882  1.0000
  N   N57       1.0  0.34785377719815347  0.9844701505119956  0.3762368479635683  1.0000
  N   N58       1.0  0.436670575871517  0.08109607206099409  0.4157388263452404  1.0000
  N   N59       1.0  0.6660257876140037  0.26663092830936114  0.572058893604563  1.0000
  N   N60       1.0  0.7496831237871574  0.368976374192485  0.660157038409686  1.0000
  N   N61       1.0  0.7250059563203164  0.3941654035428427  0.7390272210610005  1.0000
  N   N62       1.0  0.6245003668457372  0.30862989676077757  0.704291704510652  1.0000
  N   N63       1.0  0.3904318639365201  0.9610064313901534  0.6622507528348223  1.0000
  N   N64       1.0  0.4182978990625514  0.9981730442875543  0.7709748446550648  1.0000
  N   N65       1.0  0.47242434430848584  0.10682895461494721  0.8249821392574432  1.0000
  N   N66       1.0  0.4807819430407463  0.14319165402822165  0.7526470633867676  1.0000
