data_image0
_chemical_formula_structural       Zn2H24C40N6O12
_chemical_formula_sum              "Zn2 H24 C40 N6 O12"
_cell_length_a       14.815826684603113
_cell_length_b       15.91388334605211
_cell_length_c       19.17094115893
_cell_angle_alpha    89.98605833169704
_cell_angle_beta     90.00001887423731
_cell_angle_gamma    89.99831920965973

_space_group_name_H-M_alt    "P 1"
_space_group_IT_number       1

loop_
  _space_group_symop_operation_xyz
  'x, y, z'

loop_
  _atom_site_type_symbol
  _atom_site_label
  _atom_site_symmetry_multiplicity
  _atom_site_fract_x
  _atom_site_fract_y
  _atom_site_fract_z
  _atom_site_occupancy
  Zn  Zn1       1.0  0.40586703868427787  0.49714652287599387  0.5045800523994117  1.0000
  Zn  Zn2       1.0  0.5941272053575162  0.4971433166631201  0.5045790363305542  1.0000
  H   H1        1.0  0.35527224773193217  0.5155025715100763  0.725355535916748  1.0000
  H   H2        1.0  0.08442097228067519  0.3646571207562062  0.4884938122073237  1.0000
  H   H3        1.0  0.9155841779082435  0.3646576781903264  0.4884918458598122  1.0000
  H   H4        1.0  0.0844160657129862  0.6343661732247057  0.5173069998718064  1.0000
  H   H5        1.0  0.367286484618475  0.8084351288362368  0.3800204056145731  1.0000
  H   H6        1.0  0.30575838464057625  0.8924221053375233  0.3381981090051198  1.0000
  H   H7        1.0  0.25122451375035126  0.8260688544263673  0.4012313281052684  1.0000
  H   H8        1.0  0.632596980749348  0.18836118176432134  0.3813710019438404  1.0000
  H   H9        1.0  0.6936728300507438  0.10535632726846698  0.3378798109235106  1.0000
  H   H10       1.0  0.7486454725387544  0.1699567412711431  0.4018872883500393  1.0000
  H   H11       1.0  0.3063107120229418  0.1053748230795861  0.3378959254408471  1.0000
  H   H12       1.0  0.6446141088370609  0.5150507573641506  0.2832103381333297  1.0000
  H   H13       1.0  0.3673772204304626  0.18836920414859296  0.3813980880817455  1.0000
  H   H14       1.0  0.25133268945753423  0.16996291615352283  0.40191068956113446  1.0000
  H   H15       1.0  0.694210553215747  0.8924035965316293  0.3381757351713972  1.0000
  H   H16       1.0  0.6326992818065803  0.8084239548098608  0.3800162708744281  1.0000
  H   H17       1.0  0.7487667811273581  0.8260645625142046  0.401204797210795  1.0000
  H   H18       1.0  0.35538421353352595  0.5150522071477043  0.2832024720009798  1.0000
  H   H19       1.0  0.6447336521519632  0.5155055206138641  0.725352448050977  1.0000
  H   H20       1.0  0.3546987973127997  0.5434415226774477  0.8541398167952821  1.0000
  H   H21       1.0  0.6453081729386196  0.5429989309247462  0.1541799339629222  1.0000
  H   H22       1.0  0.3546973219359372  0.5430016562231614  0.1541725892675743  1.0000
  H   H23       1.0  0.6453116731157279  0.5434425711880451  0.8541356858297604  1.0000
  H   H24       1.0  0.9155785963274212  0.6343705009608769  0.5173050335649663  1.0000
  C   C1        1.0  0.4999962416263486  0.6604657260870326  0.49374250977044903  1.0000
  C   C2        1.0  0.953162294786061  0.5760235425525408  0.5108952285668451  1.0000
  C   C3        1.0  0.09333837249439368  0.49949645236392837  0.5028722395324579  1.0000
  C   C4        1.0  0.9066584968300191  0.49949662593136424  0.5028697489789096  1.0000
  C   C5        1.0  0.18923042974324739  0.4990726638765964  0.5035279286913692  1.0000
  C   C6        1.0  0.8107651032149831  0.4990742072712279  0.5035248888088262  1.0000
  C   C7        1.0  0.5000034731894232  0.5026538482838419  0.6402083174037188  1.0000
  C   C8        1.0  0.49999802517275066  0.5024564075681894  0.36796502119992175  1.0000
  C   C9        1.0  0.41821093448509566  0.5215453517126818  0.7542868982645601  1.0000
  C   C10       1.0  0.5818311456032603  0.5211527812796035  0.2540694147521165  1.0000
  C   C11       1.0  0.4181689989020043  0.5211531385530109  0.25406573974026264  1.0000
  C   C12       1.0  0.49999461227937997  0.3345359890278701  0.49329769273140306  1.0000
  C   C13       1.0  0.5817974863285825  0.5215462541718453  0.7542843138053144  1.0000
  C   C14       1.0  0.4179346498698067  0.5369475869886741  0.825643501236037  1.0000
  C   C15       1.0  0.5821184204293957  0.5365601133186786  0.1827407909219119  1.0000
  C   C16       1.0  0.41788661262663135  0.5365611067755083  0.18273711583459123  1.0000
  C   C17       1.0  0.5820780386905042  0.5369478537622001  0.8256398736047643  1.0000
  C   C18       1.0  0.500008238472553  0.5457018281599916  0.8618911772963288  1.0000
  C   C19       1.0  0.5000020338993209  0.5453647322973225  0.1465658102832492  1.0000
  C   C20       1.0  0.49999992652583797  0.5145307904268106  0.7178817346089588  1.0000
  C   C21       1.0  0.49999850076788016  0.5142122685050765  0.2903586272459577  1.0000
  C   C22       1.0  0.500003766641285  0.5630567402407961  0.0715738540723834  1.0000
  C   C23       1.0  0.49998972333008845  0.17271699024909992  0.4584358902039085  1.0000
  C   C24       1.0  0.5000059520959964  0.5632513729982662  0.9368913389008711  1.0000
  C   C25       1.0  0.4168199091985869  0.04167107931450429  0.43960700728962376  1.0000
  C   C26       1.0  0.5831607973759176  0.9535026889752842  0.4399903725062799  1.0000
  C   C27       1.0  0.41683393265954993  0.9535043362835154  0.43999712957954523  1.0000
  C   C28       1.0  0.5831670225122138  0.041670688493241015  0.43960025023286425  1.0000
  C   C29       1.0  0.4999897332482205  0.08597968561988976  0.4436526833452277  1.0000
  C   C30       1.0  0.5000004236860603  0.9092310801587331  0.4443329133695073  1.0000
  C   C31       1.0  0.3148951320462032  0.8566356432773573  0.3869496350888682  1.0000
  C   C32       1.0  0.6848506501818504  0.13984062813661072  0.3872804713798104  1.0000
  C   C33       1.0  0.3151298023986016  0.13984882663208253  0.3873018045638759  1.0000
  C   C34       1.0  0.5000004400776347  0.8224381320576625  0.45915649536958364  1.0000
  C   C35       1.0  0.6850965469973288  0.8566280651330374  0.3869329965863315  1.0000
  C   C36       1.0  0.49999485398177523  0.7485835437874825  0.47610687348988995  1.0000
  C   C37       1.0  0.499989917265367  0.2465063828909493  0.4755714759664045  1.0000
  C   C38       1.0  0.0468301482636519  0.5760240148512638  0.5108961408148077  1.0000
  C   C39       1.0  0.9531842691373029  0.4230124911609466  0.4946205071117832  1.0000
  C   C40       1.0  0.04681837493973259  0.4230117069964691  0.49462194096410883  1.0000
  N   N1        1.0  0.5798123168221848  0.5753873224444633  0.9699613249982662  1.0000
  N   N2        1.0  0.4202091688453109  0.5752529828247007  0.0385714204134189  1.0000
  N   N3        1.0  0.5797993187065416  0.5752501685926887  0.0385724866960473  1.0000
  N   N4        1.0  0.42019854358422043  0.5753895087789473  0.9699597370826113  1.0000
  N   N5        1.0  0.7325021880976693  0.4981639002414511  0.5042525314832957  1.0000
  N   N6        1.0  0.2674994481788815  0.49817152311212  0.5042587238272418  1.0000
  O   O1        1.0  0.4229258290618318  0.6256354386756442  0.5002389342094986  1.0000
  O   O2        1.0  0.6644902323707099  0.0821715524592008  0.44290726694148214  1.0000
  O   O3        1.0  0.33549340322747406  0.08217102702515429  0.44291973832964976  1.0000
  O   O4        1.0  0.66440361274379  0.9128504559159013  0.44348794730408514  1.0000
  O   O5        1.0  0.5770960767029506  0.3692698782512309  0.49983662144709484  1.0000
  O   O6        1.0  0.4228812597520886  0.3692694753485171  0.499840772134803  1.0000
  O   O7        1.0  0.5770657261597166  0.6256339569746956  0.5002363483590315  1.0000
  O   O8        1.0  0.4233571130028437  0.49880528030369925  0.6101680066910548  1.0000
  O   O9        1.0  0.5766816273254775  0.4986959516818601  0.3978242465274775  1.0000
  O   O10       1.0  0.4233024032622764  0.498698052636513  0.3978226595120519  1.0000
  O   O11       1.0  0.5766404936120326  0.49880318098376353  0.610168550447014  1.0000
  O   O12       1.0  0.3355971206018893  0.9128499254589356  0.44350824306196307  1.0000
