data_image0
_chemical_formula_structural       Ag4H30C40I2N4O8
_chemical_formula_sum              "Ag4 H30 C40 I2 N4 O8"
_cell_length_a       9.130351302192013
_cell_length_b       9.11527990604876
_cell_length_c       13.446326881434299
_cell_angle_alpha    88.9733495770492
_cell_angle_beta     71.23819006207522
_cell_angle_gamma    69.27123781705113

_space_group_name_H-M_alt    "P 1"
_space_group_IT_number       1

loop_
  _space_group_symop_operation_xyz
  'x, y, z'

loop_
  _atom_site_type_symbol
  _atom_site_label
  _atom_site_symmetry_multiplicity
  _atom_site_fract_x
  _atom_site_fract_y
  _atom_site_fract_z
  _atom_site_occupancy
  Ag  Ag1       1.0  0.9894986094884783  0.10969164037010157  0.926588699126029  1.0000
  Ag  Ag2       1.0  0.010500029364436586  0.890308581309405  0.07341475942880754  1.0000
  Ag  Ag3       1.0  0.1997449568720597  0.2674465842438634  0.9855596942152972  1.0000
  Ag  Ag4       1.0  0.800257599146093  0.7325525095118478  0.014439944432233223  1.0000
  H   H1        1.0  0.4194104713365122  0.21290129281282316  0.5794804868422858  1.0000
  H   H2        1.0  0.5805903769689493  0.7871048957728563  0.42051571773786384  1.0000
  H   H3        1.0  0.2022575549990719  0.03955479879207499  0.1615218924545658  1.0000
  H   H4        1.0  0.7977452061252706  0.9604466733441437  0.8384799020273873  1.0000
  H   H5        1.0  0.7637318327852471  0.2714990827089777  0.7196254230275371  1.0000
  H   H6        1.0  0.23626909701962256  0.7285011727525796  0.2803738139484651  1.0000
  H   H7        1.0  0.6354671514492908  0.43690069735099246  0.2898723762958327  1.0000
  H   H8        1.0  0.36453378510912426  0.5630995594852022  0.7101298339748041  1.0000
  H   H9        1.0  0.8443006689199207  0.4417137636123554  0.1172990716821545  1.0000
  H   H10       1.0  0.15569999285158787  0.5582900503730599  0.8827031536237941  1.0000
  H   H11       1.0  0.22938519022071094  0.2214847963241978  0.7595041098453805  1.0000
  H   H12       1.0  0.7706172842980263  0.778520230555628  0.24049249640629008  1.0000
  H   H13       1.0  0.5633481769247481  0.2722812232649047  0.8939608201033806  1.0000
  H   H14       1.0  0.4366548488561932  0.7277166896601485  0.10603649940131284  1.0000
  H   H15       1.0  0.5559959547673828  0.30031101955622563  0.4365442998014829  1.0000
  H   H16       1.0  0.44400430185688566  0.6996880386991433  0.5634558438065868  1.0000
  H   H17       1.0  0.6741813090859878  0.097426125614497  0.4308610527005357  1.0000
  H   H18       1.0  0.32582057375155676  0.9025717709350186  0.5691394925790618  1.0000
  H   H19       1.0  0.007650066655145299  0.013632907541136798  0.33291426043599165  1.0000
  H   H20       1.0  0.9923485637558472  0.986367312420085  0.6670854815005498  1.0000
  H   H21       1.0  0.4278315823319189  0.39233321116039116  0.052921162913705216  1.0000
  H   H22       1.0  0.5721666479969939  0.6076622541017613  0.9470787272959315  1.0000
  H   H23       1.0  0.7397492299437118  0.3646389277343117  0.5231738438314864  1.0000
  H   H24       1.0  0.26025351936193886  0.6353625419962937  0.47682274738487257  1.0000
  H   H25       1.0  0.8520412160153796  0.16373875844639937  0.5174026449659479  1.0000
  H   H26       1.0  0.14796201318337412  0.8362615325155076  0.4825960870495152  1.0000
  H   H27       1.0  0.03351608447611913  0.4860984848955851  0.3522923904175883  1.0000
  H   H28       1.0  0.9664834955907721  0.5138993754662735  0.6477071731752346  1.0000
  H   H29       1.0  0.5011721995511991  0.09513317660884717  0.2979749321521653  1.0000
  H   H30       1.0  0.4988284639086942  0.9048706377202218  0.7020280364774436  1.0000
  C   C1        1.0  0.45731705978535325  0.22732745545109606  0.6464295829418348  1.0000
  C   C2        1.0  0.5426826405115506  0.7726787157280625  0.3535676174422449  1.0000
  C   C3        1.0  0.6088074806400171  0.24404834559650365  0.6323041619129199  1.0000
  C   C4        1.0  0.39119384587016276  0.7559566638768016  0.3676934401426806  1.0000
  C   C5        1.0  0.07552395966006029  0.12540038981302357  0.19304950187353143  1.0000
  C   C6        1.0  0.924477451726304  0.8745986872234963  0.8069526192252354  1.0000
  C   C7        1.0  0.6467844573335881  0.25998422787812087  0.7237457826517186  1.0000
  C   C8        1.0  0.35321579422552685  0.7400148293462716  0.2762521309853767  1.0000
  C   C9        1.0  0.7606483198300822  0.3473063337612813  0.2652553132196473  1.0000
  C   C10       1.0  0.23935511447486849  0.652696335581133  0.7347455746302457  1.0000
  C   C11       1.0  0.8758118727158434  0.35177863085944944  0.16926420641536313  1.0000
  C   C12       1.0  0.12419223983486931  0.6482252367201295  0.8307380047734368  1.0000
  C   C13       1.0  0.349285136329243  0.23169595556302613  0.7475535130338287  1.0000
  C   C14       1.0  0.6507166650088935  0.7683078741106043  0.252443999849909  1.0000
  C   C15       1.0  0.8039735538061097  0.225765217570732  0.3275587864521867  1.0000
  C   C16       1.0  0.19602440511266636  0.774233805527956  0.6724426054400824  1.0000
  C   C17       1.0  0.5338045907374962  0.26221042335770756  0.8224857235967917  1.0000
  C   C18       1.0  0.46619681051856077  0.737788651616853  0.17751193756003408  1.0000
  C   C19       1.0  0.6803177899812097  0.21606283934573156  0.43046769009362157  1.0000
  C   C20       1.0  0.31968226491363066  0.783933841216445  0.5695317843273388  1.0000
  C   C21       1.0  0.9662100536948516  0.11340517455533926  0.2895947221180393  1.0000
  C   C22       1.0  0.03378858009291018  0.886595046093198  0.710406506465823  1.0000
  C   C23       1.0  0.37951163045202924  0.3604338707424262  0.1319066161064981  1.0000
  C   C24       1.0  0.620484298794615  0.6395615586757302  0.8680930357400172  1.0000
  C   C25       1.0  0.4821533806576711  0.23459526590453803  0.16875825252273563  1.0000
  C   C26       1.0  0.5178459279990832  0.7654061522938558  0.8312428127527198  1.0000
  C   C27       1.0  0.6611509717847923  0.14552350281717708  0.10264421197117461  1.0000
  C   C28       1.0  0.33884813683092574  0.8544755380316785  0.8973569274408248  1.0000
  C   C29       1.0  0.7269637377424303  0.24852683163718572  0.5253494314006772  1.0000
  C   C30       1.0  0.2730378652430474  0.7514746210305744  0.4746488989432578  1.0000
  C   C31       1.0  0.157913639930868  0.4136998946220557  0.3007995650767867  1.0000
  C   C32       1.0  0.8420854669964583  0.5862991458831387  0.6992008310115525  1.0000
  C   C33       1.0  0.21825599553335454  0.4505931384046348  0.19783553417487815  1.0000
  C   C34       1.0  0.7817394605737249  0.5494034711568573  0.8021649501671603  1.0000
  C   C35       1.0  0.1106299622077387  0.5898072996380818  0.15899946641317797  1.0000
  C   C36       1.0  0.88936596872729  0.4101881301237355  0.8410009287569978  1.0000
  C   C37       1.0  0.42043949224837707  0.19441459196536923  0.2709903905344291  1.0000
  C   C38       1.0  0.5795600911952902  0.8055832690838046  0.7290106597057078  1.0000
  C   C39       1.0  0.25924593817745734  0.2843200401078292  0.33519469168272314  1.0000
  C   C40       1.0  0.7407554715205226  0.7156790365850297  0.6648066860923904  1.0000
  I   I1        1.0  0.16634149718036179  0.22981686402108178  0.4912512645956468  1.0000
  I   I2        1.0  0.8336587628206829  0.7701821949216023  0.5087503656597434  1.0000
  N   N1        1.0  0.03150342292406799  0.24306538557237192  0.1335203513415877  1.0000
  N   N2        1.0  0.9684979884622962  0.7569336914641481  0.8664817697571792  1.0000
  N   N3        1.0  0.3855082032052621  0.25010423874619647  0.8351228086045951  1.0000
  N   N4        1.0  0.6144929249522662  0.7498983937212457  0.16487561091120992  1.0000
  O   O1        1.0  0.7121021686027049  0.18036471296302634  0.00890779025508695  1.0000
  O   O2        1.0  0.2878967365952008  0.8196319498489827  0.9910919366461428  1.0000
  O   O3        1.0  0.7466787060615941  0.044749366796935384  0.14866660457343542  1.0000
  O   O4        1.0  0.2533206042835443  0.955252051745113  0.8513352040256734  1.0000
  O   O5        1.0  0.03605267980060495  0.7182571200006789  0.22052397848054991  1.0000
  O   O6        1.0  0.963940950052155  0.281738273917135  0.7794761783265117  1.0000
  O   O7        1.0  0.10425685043345813  0.5707758793524674  0.06733996471816543  1.0000
  O   O8        1.0  0.8957423295513535  0.4292172263103282  0.9326597471477458  1.0000
