data_image0
_chemical_formula_structural       Zn4H26C45BrN5O13
_chemical_formula_sum              "Zn4 H26 C45 Br1 N5 O13"
_cell_length_a       15.617993428299346
_cell_length_b       19.118745537688397
_cell_length_c       19.346761843999335
_cell_angle_alpha    95.09329740599868
_cell_angle_beta     102.10992483275923
_cell_angle_gamma    97.01290008937303

_space_group_name_H-M_alt    "P 1"
_space_group_IT_number       1

loop_
  _space_group_symop_operation_xyz
  'x, y, z'

loop_
  _atom_site_type_symbol
  _atom_site_label
  _atom_site_symmetry_multiplicity
  _atom_site_fract_x
  _atom_site_fract_y
  _atom_site_fract_z
  _atom_site_occupancy
  Zn  Zn1       1.0  0.42967828056049484  0.5526267304076953  0.5513265480306303  1.0000
  Zn  Zn2       1.0  0.5680705745217622  0.44784245659830907  0.5718717758847591  1.0000
  Zn  Zn3       1.0  0.5772458079719132  0.556373150786307  0.4567604829505073  1.0000
  Zn  Zn4       1.0  0.41746325618258595  0.42753622641236444  0.424124572213593  1.0000
  H   H1        1.0  0.8390597423752556  0.5378370700584799  0.6806511699168285  1.0000
  H   H2        1.0  0.35647803317881016  0.42426934387660264  0.06889348716596544  1.0000
  H   H3        1.0  0.14198524814343474  0.531854136768992  0.6782921918998002  1.0000
  H   H4        1.0  0.36557048223490807  0.41376531756553453  0.19891581729815755  1.0000
  H   H5        1.0  0.6239710737689421  0.47279375242293764  0.785359769693031  1.0000
  H   H6        1.0  0.6443123355919484  0.48111931270408814  0.9181771220496915  1.0000
  H   H7        1.0  0.5792050525318899  0.5870776913074921  0.25143162547118453  1.0000
  H   H8        1.0  0.0035935396553199305  0.5427810269059068  0.7126950559819535  1.0000
  H   H9        1.0  0.8411300806886289  0.5043535698126224  0.45915045045538977  1.0000
  H   H10       1.0  0.1524092879623851  0.43436698278777197  0.3358267691001729  1.0000
  H   H11       1.0  0.9050679151492319  0.46559779544774943  0.3887415314816638  1.0000
  H   H12       1.0  0.5734036969217371  0.10391801180540484  0.5846397467729292  1.0000
  H   H13       1.0  0.9882626584064129  0.4302603811333442  0.30027337943381144  1.0000
  H   H14       1.0  0.22720236345200112  0.5098048355543342  0.587854432011689  1.0000
  H   H15       1.0  0.572464286444934  0.23571157009721608  0.5903783406478953  1.0000
  H   H16       1.0  0.6131816460853869  0.6486365202657469  0.16730095964335595  1.0000
  H   H17       1.0  0.4952664098189602  0.6492644202126743  0.03398850424768095  1.0000
  H   H18       1.0  0.5945952106213073  0.6216145576198145  0.018134956721439766  1.0000
  H   H19       1.0  0.5982915436910334  0.7048621907014411  0.07023726975561576  1.0000
  H   H20       1.0  0.4493639522755686  0.9010467528102314  0.6056335793411592  1.0000
  H   H21       1.0  0.4498376811785293  0.7689302109426922  0.6017323782638685  1.0000
  H   H22       1.0  0.4375448487368488  0.21132844067778936  0.3700026767157213  1.0000
  H   H23       1.0  0.579825893732732  0.904799332388194  0.43094950953388905  1.0000
  H   H24       1.0  0.44551379518478024  0.08003802240800444  0.36255601857419617  1.0000
  H   H25       1.0  0.5864578752856106  0.7738107098720949  0.430817025661618  1.0000
  H   H26       1.0  0.3799360027670744  0.5315229563321681  0.8977798921776173  1.0000
  C   C1        1.0  0.5012550667697867  0.30884579334030354  0.4857406359516504  1.0000
  C   C2        1.0  0.878533331155154  0.511005353850841  0.5141026320020147  1.0000
  C   C3        1.0  0.8769141339797388  0.5311103204511841  0.6397928375886154  1.0000
  C   C4        1.0  0.5173685584875258  0.6857081532743623  0.5137646991298939  1.0000
  C   C5        1.0  0.1607101815198533  0.4732288251159888  0.44465462244917137  1.0000
  C   C6        1.0  0.5176440148292656  0.7639866385695556  0.5157570442424915  1.0000
  C   C7        1.0  0.5553310535500985  0.8021086290422591  0.4679564161840661  1.0000
  C   C8        1.0  0.5519404073226326  0.8743249200100038  0.46800835763974663  1.0000
  C   C9        1.0  0.5126351120462902  0.9094790202928429  0.5175160161890491  1.0000
  C   C10       1.0  0.47802271831915993  0.8720668070638811  0.5671485758064139  1.0000
  C   C11       1.0  0.4787321755828842  0.79937646270313  0.5651608785982492  1.0000
  C   C12       1.0  0.02321611043105069  0.44809729705853835  0.3551517897514316  1.0000
  C   C13       1.0  0.5443765943261384  0.12826952212302706  0.5381292786023482  1.0000
  C   C14       1.0  0.5434626578405644  0.20088821099454895  0.5412174245212642  1.0000
  C   C15       1.0  0.5079695701546001  0.08485595197006293  0.4734755949943904  1.0000
  C   C16       1.0  0.49053693385962305  0.49824135674992237  0.6889165551501508  1.0000
  C   C17       1.0  0.5040066083559865  0.2307840432634479  0.4807546188416227  1.0000
  C   C18       1.0  0.4677731813379111  0.18732148714730817  0.4163676251136793  1.0000
  C   C19       1.0  0.4717615422959725  0.11484639524350368  0.41223007799520434  1.0000
  C   C20       1.0  0.4756947753218483  0.49908141317148863  0.23225427257101933  1.0000
  C   C21       1.0  0.5313198048520251  0.5508754030143381  0.2105830160157539  1.0000
  C   C22       1.0  0.526497025380202  0.559234887547888  0.13807342373446124  1.0000
  C   C23       1.0  0.9766118012819691  0.46830423962675394  0.405218986533015  1.0000
  C   C24       1.0  0.46480908012616606  0.5084649125456693  0.08653525093200899  1.0000
  C   C25       1.0  0.4047186152141932  0.4595486718584568  0.11017294998228523  1.0000
  C   C26       1.0  0.4099949788856209  0.45329777040794295  0.1813762199005638  1.0000
  C   C27       1.0  0.43354668954276593  0.5195830980137263  0.8727635586719275  1.0000
  C   C28       1.0  0.4848500627591364  0.4941493476925772  0.3101490446047778  1.0000
  C   C29       1.0  0.4246447508231554  0.5180438172845145  0.7996407640535852  1.0000
  C   C30       1.0  0.5128185568339277  0.5061070389850075  0.915555941603671  1.0000
  C   C31       1.0  0.49317084415566376  0.5010491804431184  0.7668555996856983  1.0000
  C   C32       1.0  0.571516403395627  0.48662553993929714  0.8109693583386319  1.0000
  C   C33       1.0  0.582732219407035  0.49071917596972997  0.8842929023299251  1.0000
  C   C34       1.0  0.0195544284396192  0.49013776880546805  0.47710534579992014  1.0000
  C   C35       1.0  0.7344195790123111  0.5184973630196911  0.5479569288924112  1.0000
  C   C36       1.0  0.2595774940188776  0.47860665917758644  0.4602799278491006  1.0000
  C   C37       1.0  0.9674461488152275  0.5331344041997569  0.6571690964159134  1.0000
  C   C38       1.0  0.832283967520489  0.5212818914270017  0.5673404451149369  1.0000
  C   C39       1.0  0.11521405937559595  0.45018959525799584  0.37491701880716033  1.0000
  C   C40       1.0  0.5658490550164359  0.6496502551024791  0.057964683459580606  1.0000
  C   C41       1.0  0.11354646424859285  0.4921428800236713  0.49779515928130996  1.0000
  C   C42       1.0  0.9701922054164529  0.507784214947286  0.5307016815910333  1.0000
  C   C43       1.0  0.015447407870574676  0.5213579011021924  0.6038021216046304  1.0000
  C   C44       1.0  0.10874511066617741  0.5215351027126972  0.6220659323215332  1.0000
  C   C45       1.0  0.15607129455874974  0.5086561278454839  0.5717152656239008  1.0000
  Br  Br1       1.0  0.3137983451294418  0.536968036821904  0.7475629517467015  1.0000
  N   N1        1.0  0.5075136368697672  0.9828383944119429  0.5227816782780226  1.0000
  N   N2        1.0  0.5072155360343658  0.010552282682546403  0.4656802747276745  1.0000
  N   N3        1.0  0.45642703095202114  0.49965370772838485  0.013061888341795209  1.0000
  N   N4        1.0  0.5273734724600061  0.5107792855257147  0.9904484559699969  1.0000
  N   N5        1.0  0.5777076240186078  0.617018943574735  0.12329706539895828  1.0000
  O   O1        1.0  0.49697979531875097  0.4954129719008481  0.4994513576733227  1.0000
  O   O2        1.0  0.6916212046909892  0.494739432177326  0.5926067062659827  1.0000
  O   O3        1.0  0.2923070630594539  0.4325047144047079  0.42571975481699564  1.0000
  O   O4        1.0  0.7004478997754973  0.5390937379539057  0.48845164875335473  1.0000
  O   O5        1.0  0.3035973640409324  0.5300242244566747  0.5054976794360543  1.0000
  O   O6        1.0  0.44495501472933807  0.5389469721490486  0.6528200648293279  1.0000
  O   O7        1.0  0.4299022543054605  0.4479686593715827  0.32815768705560805  1.0000
  O   O8        1.0  0.5539472634143294  0.3464778020425501  0.539328383262401  1.0000
  O   O9        1.0  0.5642535410714518  0.6571912818786957  0.4755052816629758  1.0000
  O   O10       1.0  0.4466617386235114  0.3312374966141293  0.4367042964629847  1.0000
  O   O11       1.0  0.46935905778968845  0.6536507779970863  0.5504722753676887  1.0000
  O   O12       1.0  0.5370656460422937  0.4553057984566993  0.6651689208337432  1.0000
  O   O13       1.0  0.5471658178664995  0.5366475374362454  0.3524605062600872  1.0000
