data_image0
_chemical_formula_structural       Zn4H50C72S3N20O9F6
_chemical_formula_sum              "Zn4 H50 C72 S3 N20 O9 F6"
_cell_length_a       20.312394087853015
_cell_length_b       20.33335343288832
_cell_length_c       21.637040395956518
_cell_angle_alpha    107.78773547697998
_cell_angle_beta     108.71415277283155
_cell_angle_gamma    109.89106311843018

_space_group_name_H-M_alt    "P 1"
_space_group_IT_number       1

loop_
  _space_group_symop_operation_xyz
  'x, y, z'

loop_
  _atom_site_type_symbol
  _atom_site_label
  _atom_site_symmetry_multiplicity
  _atom_site_fract_x
  _atom_site_fract_y
  _atom_site_fract_z
  _atom_site_occupancy
  Zn  Zn1       1.0  0.3891564571085055  0.38320506870343957  0.4867890452713013  1.0000
  Zn  Zn2       1.0  0.6129501802380234  0.6096967264717534  0.5088782697708822  1.0000
  Zn  Zn3       1.0  0.4051757105703047  0.49661752554922606  0.3982692848447158  1.0000
  Zn  Zn4       1.0  0.6131015973834195  0.5194394972849707  0.6137025494520286  1.0000
  H   H1        1.0  0.24704536904476984  0.2202224046217083  0.34137849277019683  1.0000
  H   H2        1.0  0.6716596529555758  0.5012236839901122  0.4205910078515273  1.0000
  H   H3        1.0  0.4328775158196621  0.0220625408488004  0.45398182596118625  1.0000
  H   H4        1.0  0.40107086012251597  0.8977843332002065  0.4485545915868342  1.0000
  H   H5        1.0  0.37654123955317703  0.9211218856706295  0.5206891799688405  1.0000
  H   H6        1.0  0.5856292862475458  0.13748633578133249  0.6885686806935567  1.0000
  H   H7        1.0  0.48145075193203724  0.09477924559966057  0.6519883942619487  1.0000
  H   H8        1.0  0.581259419357295  0.017137824724393593  0.6755255374024287  1.0000
  H   H9        1.0  0.6434129642374201  0.11773692109393608  0.6008660042968259  1.0000
  H   H10       1.0  0.6204830323133663  0.9886410099836312  0.5736298131162343  1.0000
  H   H11       1.0  0.4799897806286992  0.9793827571067126  0.6531859164294502  1.0000
  H   H12       1.0  0.5887336456409002  0.7521755674104397  0.5969074550338574  1.0000
  H   H13       1.0  0.9682858439638978  0.30636389323187524  0.41061996878762835  1.0000
  H   H14       1.0  0.4181873298331666  0.37348381164520117  0.2788578911923523  1.0000
  H   H15       1.0  0.8709069749921526  0.3116526797239273  0.44491329624562326  1.0000
  H   H16       1.0  0.9624063945985029  0.5297231186168361  0.5277797471748683  1.0000
  H   H17       1.0  0.048840260080737524  0.43917886201095496  0.5284290271053392  1.0000
  H   H18       1.0  0.07572757155185876  0.5284937960706486  0.5220583979651322  1.0000
  H   H19       1.0  0.8939653512976662  0.5088131488869932  0.40125990633788416  1.0000
  H   H20       1.0  0.9508903974802365  0.4290933973335098  0.3152784585046361  1.0000
  H   H21       1.0  0.8118448886609002  0.289353778270069  0.35351686572816016  1.0000
  H   H22       1.0  0.9170450870364916  0.30359630168349827  0.3260166038366705  1.0000
  H   H23       1.0  0.6196093970340186  0.6556921710859951  0.7394400395628791  1.0000
  H   H24       1.0  0.6471278655027889  0.371664210074492  0.5729715952324881  1.0000
  H   H25       1.0  0.4053707535273007  0.3587277912498975  0.14906310629648795  1.0000
  H   H26       1.0  0.41048357221240644  0.33953283811591456  0.03188007731172593  1.0000
  H   H27       1.0  0.37230655023849113  0.334606260438008  0.8439214489878352  1.0000
  H   H28       1.0  0.6620134412929986  0.48342386560399575  0.2691247651029798  1.0000
  H   H29       1.0  0.6671188244198447  0.4676211115667214  0.15285125899650606  1.0000
  H   H30       1.0  0.6214735284555816  0.5166514835266723  0.8638235354360971  1.0000
  H   H31       1.0  0.7240096536487785  0.7714172984364113  0.8645927049847231  1.0000
  H   H32       1.0  0.6412637712032564  0.5784278666437148  0.3545566303443906  1.0000
  H   H33       1.0  0.7981656840910532  0.8950176128539126  0.9829931934983874  1.0000
  H   H34       1.0  0.7402880285479726  0.8035057120892688  0.6602992992313046  1.0000
  H   H35       1.0  0.9642347571220642  0.04580484849252289  0.17967966185495504  1.0000
  H   H36       1.0  0.10305948677736856  0.14698911545500684  0.27696202449032364  1.0000
  H   H37       1.0  0.7261805765266088  0.9100813427474959  0.7471611659658918  1.0000
  H   H38       1.0  0.9709536153997363  0.1793115594915093  0.059347342683572925  1.0000
  H   H39       1.0  0.10925251858091659  0.28020050280039743  0.15513250424312724  1.0000
  H   H40       1.0  0.7746660377704231  0.487980652511851  0.6221506845214222  1.0000
  H   H41       1.0  0.2290690079362108  0.3819410663687037  0.25339584273806537  1.0000
  H   H42       1.0  0.37263724726994946  0.412081625822907  0.6440198426750782  1.0000
  H   H43       1.0  0.8128852195276224  0.32869164371179943  0.20307496683175688  1.0000
  H   H44       1.0  0.6054916750271387  0.46599493845236845  0.04466267469025807  1.0000
  H   H45       1.0  0.22800432004129334  0.36360957445667447  0.4865201849892316  1.0000
  H   H46       1.0  0.3385512757476263  0.11314094737762297  0.44295019117049605  1.0000
  H   H47       1.0  0.6282704431565732  0.5105880383539584  0.765041849362788  1.0000
  H   H48       1.0  0.5482331351385737  0.9508105946679561  0.4818540568119969  1.0000
  H   H49       1.0  0.584163100979481  0.0817816407104033  0.5056165589144541  1.0000
  H   H50       1.0  0.3926692404457413  0.038498859952696286  0.5153884714665224  1.0000
  C   C1        1.0  0.25576788008467594  0.268881859649305  0.3281669805884704  1.0000
  C   C2        1.0  0.2550991835035461  0.4126951942949901  0.4765569668708665  1.0000
  C   C3        1.0  0.5670182274010216  0.4891471769852487  0.7263129750098968  1.0000
  C   C4        1.0  0.6895897330203622  0.5046744176767247  0.4748436525274683  1.0000
  C   C5        1.0  0.4341917140015994  0.666373945115275  0.4359301920606383  1.0000
  C   C6        1.0  0.49703112608263916  0.4563924755236569  0.7317136452268186  1.0000
  C   C7        1.0  0.4834096259980499  0.7348925662372068  0.5042880006070333  1.0000
  C   C8        1.0  0.22098331714986594  0.4544043206560389  0.44950013315270343  1.0000
  C   C9        1.0  0.6912525395970874  0.7604093225243886  0.7288056349274611  1.0000
  C   C10       1.0  0.5845082754740717  0.0734069836452491  0.553516738616608  1.0000
  C   C11       1.0  0.4370189905326214  0.023293844861342398  0.5063247402627269  1.0000
  C   C12       1.0  0.7395424925872476  0.47815584205064704  0.5082934556154726  1.0000
  C   C13       1.0  0.4222523394982216  0.942856367962747  0.5043883220601088  1.0000
  C   C14       1.0  0.4841385048847471  0.8078730471500534  0.5273044099494512  1.0000
  C   C15       1.0  0.5210841278420092  0.08978253175068569  0.5695562460189976  1.0000
  C   C16       1.0  0.4728585084484962  0.42948923999925626  0.30806909838794627  1.0000
  C   C17       1.0  0.5671364891583436  0.9887956838008094  0.5396518699728574  1.0000
  C   C18       1.0  0.500219211769938  0.9511168669840301  0.5579296687788967  1.0000
  C   C19       1.0  0.5238573009552284  0.007638232646129898  0.6374113891481558  1.0000
  C   C20       1.0  0.5289284495816347  0.0872102601343272  0.6423213485098174  1.0000
  C   C21       1.0  0.4893579886614175  0.8731064774199523  0.5466933866980523  1.0000
  C   C22       1.0  0.5300657852787934  0.164169937432284  0.5708395522828908  1.0000
  C   C23       1.0  0.5312837904684429  0.45851509867443946  0.2874616791765375  1.0000
  C   C24       1.0  0.5334433953870175  0.2214028037680293  0.5621135481625714  1.0000
  C   C25       1.0  0.8696680094599215  0.3312668269398599  0.40282440477541565  1.0000
  C   C26       1.0  0.955816681378721  0.47007605913379535  0.5068839588885439  1.0000
  C   C27       1.0  0.026959812663108054  0.4686183287545943  0.49861553417694177  1.0000
  C   C28       1.0  0.583973421747217  0.3506978929680074  0.5534278684618954  1.0000
  C   C29       1.0  0.14327232988625133  0.44224964210546597  0.42961326614926065  1.0000
  C   C30       1.0  0.8769329573273268  0.41421442576045553  0.43239597940180374  1.0000
  C   C31       1.0  0.9389073733179886  0.33490965939723333  0.3856722232948258  1.0000
  C   C32       1.0  0.002751230301264169  0.42185010935266826  0.4164704699704059  1.0000
  C   C33       1.0  0.9632821785467411  0.4572460538617661  0.3728213794809391  1.0000
  C   C34       1.0  0.527151653554874  0.2822218626956782  0.5472165063722442  1.0000
  C   C35       1.0  0.8876780120996131  0.4492663849665489  0.37939285092633657  1.0000
  C   C36       1.0  0.07502740158486884  0.428102408193581  0.4133923386807082  1.0000
  C   C37       1.0  0.8153051555767163  0.420939588551107  0.450022645857004  1.0000
  C   C38       1.0  0.7802093326347829  0.4458020512687284  0.47851791713692643  1.0000
  C   C39       1.0  0.49439298182796415  0.44183258393544367  0.7923587500584118  1.0000
  C   C40       1.0  0.5871186215393891  0.5341314192051954  0.3476138882777065  1.0000
  C   C41       1.0  0.5659444118914223  0.47565630809575776  0.8579017281219025  1.0000
  C   C42       1.0  0.5715103422320951  0.45957491203694895  0.9163501839481326  1.0000
  C   C43       1.0  0.4998218076352501  0.4076160753734469  0.9125409603142457  1.0000
  C   C44       1.0  0.4270957031713182  0.37417752841252394  0.8476371166979889  1.0000
  C   C45       1.0  0.43632806918813566  0.4382198279912685  0.6637242044978747  1.0000
  C   C46       1.0  0.42528639018443204  0.3913942561237532  0.7905418456518943  1.0000
  C   C47       1.0  0.46492488079479705  0.37067038754491227  0.08413886771943171  1.0000
  C   C48       1.0  0.46272967840508267  0.3815832313528416  0.14975023277187918  1.0000
  C   C49       1.0  0.5389197414452553  0.4066942339841759  0.0864407426859088  1.0000
  C   C50       1.0  0.5332875662815795  0.4280751076205647  0.2181382767431117  1.0000
  C   C51       1.0  0.6068467255155029  0.45365014560901784  0.21765080217434024  1.0000
  C   C52       1.0  0.45652584456455253  0.28615989505091477  0.5182871670865694  1.0000
  C   C53       1.0  0.6101396362277639  0.44411583970702395  0.15279554452819605  1.0000
  C   C54       1.0  0.11763502359537631  0.2197091123810537  0.2219731000629892  1.0000
  C   C55       1.0  0.07759666494195731  0.22927925049098263  0.1613078037734041  1.0000
  C   C56       1.0  0.5387662454042896  0.71558127782162  0.5417470560839134  1.0000
  C   C57       1.0  0.0003429144780469047  0.1736058030968053  0.10773264630981319  1.0000
  C   C58       1.0  0.959849393567481  0.10550503303696249  0.11302037488469804  1.0000
  C   C59       1.0  0.9968526333358767  0.0981481667886754  0.17577056827360596  1.0000
  C   C60       1.0  0.07460599253879956  0.15436483934337278  0.22934321988334713  1.0000
  C   C61       1.0  0.7799369067850818  0.8966943265435957  0.9305865544394931  1.0000
  C   C62       1.0  0.7389824785130938  0.828141215351948  0.8643449765470518  1.0000
  C   C63       1.0  0.8054171768249178  0.9716280131332837  0.932848572349293  1.0000
  C   C64       1.0  0.7425790369615157  0.49742760614165604  0.5777713365664354  1.0000
  C   C65       1.0  0.7220778887449982  0.8311033578636894  0.7969029448601787  1.0000
  C   C66       1.0  0.7409676362295343  0.9047690541790273  0.7978521106085309  1.0000
  C   C67       1.0  0.28436681774999795  0.5095686701296602  0.44822588205889263  1.0000
  C   C68       1.0  0.7809939197796892  0.9727836752185866  0.8645876748463264  1.0000
  C   C69       1.0  0.24639383035406584  0.3508141456148408  0.28268329357706523  1.0000
  C   C70       1.0  0.20115062908374878  0.2756523283365979  0.27411780911168643  1.0000
  C   C71       1.0  0.6450623254050639  0.6808327885438814  0.7096540519667797  1.0000
  C   C72       1.0  0.7060869099051175  0.7560558838528947  0.6687685094761591  1.0000
  S   S1        1.0  0.8005957575277378  0.4007499646220012  0.28902987725741264  1.0000
  S   S2        1.0  0.6727538648534122  0.5018264095903575  0.987718214098024  1.0000
  S   S3        1.0  0.3625301466114479  0.23005751835709987  0.5051966960702146  1.0000
  N   N1        1.0  0.32738133824905447  0.33482231705327337  0.36655578829837043  1.0000
  N   N2        1.0  0.5475258502122458  0.4163023372507411  0.027935616510980255  1.0000
  N   N3        1.0  0.8883320456045992  0.0384867513537586  0.055251014912201336  1.0000
  N   N4        1.0  0.6657004969427972  0.5377502242881959  0.5207883482715302  1.0000
  N   N5        1.0  0.8633785799985888  0.04346137595847919  0.9956651725155724  1.0000
  N   N6        1.0  0.4928214693699998  0.4836159381100983  0.3751541852209357  1.0000
  N   N7        1.0  0.5496735472758232  0.3917894474360181  0.5309959535878974  1.0000
  N   N8        1.0  0.5633282437033316  0.5486168073620733  0.39893303914844574  1.0000
  N   N9        1.0  0.4713526622637332  0.35085959029144215  0.5080368085252686  1.0000
  N   N10       1.0  0.6984827657196179  0.5331936267354891  0.5847405560853929  1.0000
  N   N11       1.0  0.32081466091833016  0.38515099738854985  0.33756399017754285  1.0000
  N   N12       1.0  0.5239096711068711  0.6430476962579804  0.49890300103840696  1.0000
  N   N13       1.0  0.4672162565030504  0.45800749161140425  0.6218185380683963  1.0000
  N   N14       1.0  0.349934698805363  0.5022184890400183  0.47056761794499374  1.0000
  N   N15       1.0  0.6335084690881914  0.6334233932793795  0.6435658636163594  1.0000
  N   N16       1.0  0.671948132352206  0.6800762027777196  0.618596434787328  1.0000
  N   N17       1.0  0.330718037328559  0.4417904312594558  0.48905986940518886  1.0000
  N   N18       1.0  0.5481797864995244  0.48877997276738944  0.6609025957547985  1.0000
  N   N19       1.0  0.45758948168316493  0.6119522190887423  0.4320536513007482  1.0000
  N   N20       1.0  0.4882233634323327  0.3856388307066326  0.9641446118491359  1.0000
  O   O1        1.0  0.7295431491225203  0.3727361721334148  0.2957040051042696  1.0000
  O   O2        1.0  0.814946302238809  0.4512595119582982  0.25493433283567407  1.0000
  O   O3        1.0  0.8047185795459767  0.3230905669602961  0.24382857550031645  1.0000
  O   O4        1.0  0.6836093717165284  0.4329461895692076  0.9791001551165762  1.0000
  O   O5        1.0  0.7223856887990363  0.5605509532052436  0.9745101507068412  1.0000
  O   O6        1.0  0.6696995086210649  0.5374405266011308  0.05785825077555269  1.0000
  O   O7        1.0  0.3664881310168866  0.2112864069377167  0.5644207280845704  1.0000
  O   O8        1.0  0.3176273560138299  0.269582329995572  0.4847956859779217  1.0000
  O   O9        1.0  0.3219046555947784  0.14941604544218012  0.4304119124034997  1.0000
  F   F1        1.0  0.28315319471980865  0.5639609310090066  0.4258580657357242  1.0000
  F   F2        1.0  0.37155792092877243  0.6525429948567022  0.3779341858669126  1.0000
  F   F3        1.0  0.9483761094764631  0.44431415158741316  0.5592711687807181  1.0000
  F   F4        1.0  0.01585364983675662  0.538417446428113  0.40204912613855004  1.0000
  F   F5        1.0  0.3536368841971295  0.3570575164687852  0.7293953119811503  1.0000
  F   F6        1.0  0.8001878844562142  0.043160189607512195  0.863569372373419  1.0000
