data_image0
_chemical_formula_structural       Sr2H10C14N2O10
_chemical_formula_sum              "Sr2 H10 C14 N2 O10"
_cell_length_a       6.585004039504754
_cell_length_b       6.70342811130117
_cell_length_c       10.049334299021433
_cell_angle_alpha    96.15737226980607
_cell_angle_beta     93.34414897654246
_cell_angle_gamma    116.99529943459294

_space_group_name_H-M_alt    "P 1"
_space_group_IT_number       1

loop_
  _space_group_symop_operation_xyz
  'x, y, z'

loop_
  _atom_site_type_symbol
  _atom_site_label
  _atom_site_symmetry_multiplicity
  _atom_site_fract_x
  _atom_site_fract_y
  _atom_site_fract_z
  _atom_site_occupancy
  Sr  Sr1       1.0  0.2941681885647398  0.1123586889180004  0.3864476447067275  1.0000
  Sr  Sr2       1.0  0.7058362358617032  0.8876387992579636  0.6135520927631289  1.0000
  H   H1        1.0  0.3227033372525698  0.38412857452453153  0.0647928619203384  1.0000
  H   H2        1.0  0.677288348686837  0.6158708631948145  0.9352085426443751  1.0000
  H   H3        1.0  0.23496778527314185  0.45311311571013857  0.8311432128266673  1.0000
  H   H4        1.0  0.7650348092549137  0.5468963621530065  0.168858194846436  1.0000
  H   H5        1.0  0.1892820338096968  0.0353553819807004  0.0201398313901748  1.0000
  H   H6        1.0  0.8107209975620153  0.9646455343871454  0.9798600687640046  1.0000
  H   H7        1.0  0.050330836528914284  0.726834175798608  0.5385513426235062  1.0000
  H   H8        1.0  0.9496675669176968  0.2731634301010787  0.4614491877226996  1.0000
  H   H9        1.0  0.8830248485880859  0.6033302910836653  0.4030536904864519  1.0000
  H   H10       1.0  0.11697518406145949  0.3966707007718568  0.5969471051880006  1.0000
  C   C1        1.0  0.32686723511515947  0.6863909922208439  0.16057092663420042  1.0000
  C   C2        1.0  0.6731208856636357  0.31359475968415046  0.8394265247688536  1.0000
  C   C3        1.0  0.29971857042725975  0.5304692392867097  0.04880920599491391  1.0000
  C   C4        1.0  0.7002800930996146  0.46953845482794776  0.9511879737133456  1.0000
  C   C5        1.0  0.24809964665745818  0.5674884583981595  0.9205376371094544  1.0000
  C   C6        1.0  0.7519058285186591  0.432517536903447  0.0794626610370912  1.0000
  C   C7        1.0  0.2118899135703599  0.7546159285666149  0.9080911139311425  1.0000
  C   C8        1.0  0.7880980065129819  0.2453851989813955  0.09190827300340491  1.0000
  C   C9        1.0  0.22715531316640644  0.8942055307775902  0.02655757576988552  1.0000
  C   C10       1.0  0.7728403277062483  0.10579896475750421  0.9734442781091629  1.0000
  C   C11       1.0  0.4057525067614094  0.6605175319336496  0.299282930116874  1.0000
  C   C12       1.0  0.5942458496141825  0.33948000746273277  0.7007156039009316  1.0000
  C   C13       1.0  0.14833078666086397  0.7999118036398298  0.7721892460462668  1.0000
  C   C14       1.0  0.8516660585858916  0.2000857568745715  0.227809236649577  1.0000
  N   N1        1.0  0.28779898919803054  0.8655660876463926  0.14979128596327482  1.0000
  N   N2        1.0  0.712205718051088  0.13443504036498416  0.8502156526622571  1.0000
  O   O1        1.0  0.4443028080179304  0.817951897701583  0.3955205674723955  1.0000
  O   O2        1.0  0.5557007539429222  0.18203734936195562  0.6044865946343663  1.0000
  O   O3        1.0  0.4331932539663514  0.4880505190339123  0.3104998868664381  1.0000
  O   O4        1.0  0.5668078183087246  0.5119433050393737  0.689490550475419  1.0000
  O   O5        1.0  0.059818798648940824  0.9318361532014809  0.7685552242730154  1.0000
  O   O6        1.0  0.9401867710657754  0.06817321592232871  0.2314442897156184  1.0000
  O   O7        1.0  0.18589768402198112  0.6970160469263506  0.6686540580016782  1.0000
  O   O8        1.0  0.8141038597564078  0.3029849238111595  0.3313467889947361  1.0000
  O   O9        1.0  0.9572145335413682  0.7502468197230742  0.46306348277433784  1.0000
  O   O10       1.0  0.042788473898284  0.2497508225775107  0.5369401960303506  1.0000
