data_image0
_chemical_formula_structural       CdH36C38S2N4O6
_chemical_formula_sum              "Cd1 H36 C38 S2 N4 O6"
_cell_length_a       8.799327093353018
_cell_length_b       10.834704922630097
_cell_length_c       11.248850443148115
_cell_angle_alpha    113.77142309089008
_cell_angle_beta     93.70718293267706
_cell_angle_gamma    106.78113442621962

_space_group_name_H-M_alt    "P 1"
_space_group_IT_number       1

loop_
  _space_group_symop_operation_xyz
  'x, y, z'

loop_
  _atom_site_type_symbol
  _atom_site_label
  _atom_site_symmetry_multiplicity
  _atom_site_fract_x
  _atom_site_fract_y
  _atom_site_fract_z
  _atom_site_occupancy
  Cd  Cd1       1.0  0.49999955760199555  0.4999996758549586  0.9999997304924616  1.0000
  H   H1        1.0  0.9942638682264261  0.1588922202821124  0.16778440233566266  1.0000
  H   H2        1.0  0.005731994170155012  0.84111628640499  0.832224999401248  1.0000
  H   H3        1.0  0.43008203513029036  0.5202620981982876  0.390094204696659  1.0000
  H   H4        1.0  0.5699190826309746  0.47974242945333156  0.6099057904005462  1.0000
  H   H5        1.0  0.28152940598322834  0.6350004171839602  0.5498771906558629  1.0000
  H   H6        1.0  0.7184802066191197  0.3650084195800218  0.4501302464894791  1.0000
  H   H7        1.0  0.839645873949209  0.2738119292587839  0.32531778296679187  1.0000
  H   H8        1.0  0.1603576888004454  0.7261987588935596  0.6746972719239464  1.0000
  H   H9        1.0  0.3205864400672382  0.4678114269278169  0.7267391915645758  1.0000
  H   H10       1.0  0.6794172807307177  0.5321845406150274  0.27326098040044394  1.0000
  H   H11       1.0  0.22172508522384496  0.2981854149023135  0.4868906370232151  1.0000
  H   H12       1.0  0.7782801828634405  0.7018116288040943  0.5131109265668952  1.0000
  H   H13       1.0  0.3760029672656985  0.9922754530748109  0.5694695727159882  1.0000
  H   H14       1.0  0.6239919562685189  0.007718128554984101  0.43053282024006717  1.0000
  H   H15       1.0  0.46063247443857597  0.17130980420349567  0.8081558574340731  1.0000
  H   H16       1.0  0.5393593768894646  0.8286815442116833  0.1918472770392936  1.0000
  H   H17       1.0  0.3020874998864044  0.9512867706160504  0.33709822717997157  1.0000
  H   H18       1.0  0.6979158401852105  0.0487114032323461  0.6628992711379665  1.0000
  H   H19       1.0  0.2654783646922567  0.086254153655652  0.3019898954822722  1.0000
  H   H20       1.0  0.7345261810941893  0.9137471611087375  0.6980124891568094  1.0000
  H   H21       1.0  0.987234531450433  0.020522677481203296  0.3602862952716989  1.0000
  H   H22       1.0  0.012767650186177005  0.9794755143600112  0.6397093840804825  1.0000
  H   H23       1.0  0.02514396542848371  0.8784257685551253  0.38064806669244416  1.0000
  H   H24       1.0  0.9748520382370389  0.12156807818810483  0.6193438085431139  1.0000
  H   H25       1.0  0.8637942572240219  0.7847717142588451  0.15568971212000082  1.0000
  H   H26       1.0  0.1362094742367788  0.21523087442971436  0.8443033766776579  1.0000
  H   H27       1.0  0.9990357634083721  0.919310138095582  0.12558706840098197  1.0000
  H   H28       1.0  0.0009679792386734002  0.08069241014923281  0.8744077827804303  1.0000
  H   H29       1.0  0.1896673320912682  0.8580773453213338  0.9997956310158498  1.0000
  H   H30       1.0  0.8103340631853085  0.14192201933467885  0.0001951584542893706  1.0000
  H   H31       1.0  0.3543753920619324  0.7012517680902447  0.9128801982950134  1.0000
  H   H32       1.0  0.6456252255059809  0.29874540825303336  0.08711144585644347  1.0000
  H   H33       1.0  0.19805130942502566  0.4844208303766565  0.13804335985215496  1.0000
  H   H34       1.0  0.8019505443581849  0.5155827064570317  0.8619535944002121  1.0000
  H   H35       1.0  0.021354114997713197  0.6277776154057548  0.22910805624199065  1.0000
  H   H36       1.0  0.9786457802693534  0.3722238319955052  0.7708844089584372  1.0000
  C   C1        1.0  0.0551138143377301  0.264578135553414  0.2506937880780312  1.0000
  C   C2        1.0  0.9448870121871238  0.73542827485376  0.7493176324420999  1.0000
  C   C3        1.0  0.2999253199305585  0.46776724325479085  0.3747896521000839  1.0000
  C   C4        1.0  0.7000781675736649  0.5322403870981277  0.6252179294758945  1.0000
  C   C5        1.0  0.21373088925417258  0.5326866846368433  0.4652090550238411  1.0000
  C   C6        1.0  0.7862752816018954  0.4673220847743238  0.5347982123754915  1.0000
  C   C7        1.0  0.045761596378703494  0.4657924807096521  0.4510588263290315  1.0000
  C   C8        1.0  0.9542437942338469  0.5342107797049778  0.5489532779312325  1.0000
  C   C9        1.0  0.969097614696473  0.3304537300297453  0.3413339588256931  1.0000
  C   C10       1.0  0.030905523105261054  0.6695526646136826  0.6586802184340781  1.0000
  C   C11       1.0  0.2212089413415796  0.33335101834130393  0.2669119743099913  1.0000
  C   C12       1.0  0.7787918211240809  0.6666522938226933  0.7330937352791267  1.0000
  C   C13       1.0  0.3274249041055413  0.36003997022083206  0.6886169797502146  1.0000
  C   C14       1.0  0.6725761333405629  0.6399548582637705  0.3113835063914576  1.0000
  C   C15       1.0  0.27437392278154255  0.2656590988028356  0.5545595779185817  1.0000
  C   C16       1.0  0.7256278979663408  0.734337897772633  0.44544093473363927  1.0000
  C   C17       1.0  0.2926562643810939  0.1308311569768392  0.506830628972935  1.0000
  C   C18       1.0  0.7073420729337982  0.8691625931151422  0.4931675277697635  1.0000
  C   C19       1.0  0.3605482959095241  0.09639136880339548  0.6002499519068606  1.0000
  C   C20       1.0  0.6394485164885211  0.9036012242375335  0.3997503379782401  1.0000
  C   C21       1.0  0.4087856017178595  0.19588748990289417  0.7332580192052232  1.0000
  C   C22       1.0  0.5912089105895433  0.8041050784580293  0.2667412763239908  1.0000
  C   C23       1.0  0.23661875709584732  0.0279325198623326  0.36269628538291687  1.0000
  C   C24       1.0  0.7633838413606923  0.9720666650258705  0.6373033725879791  1.0000
  C   C25       1.0  0.05315804366496472  0.9445652357199917  0.32664331869911206  1.0000
  C   C26       1.0  0.9468429795366404  0.055432974114033605  0.6733505416873128  1.0000
  C   C27       1.0  0.992130876553219  0.8507178033683048  0.17643309707909077  1.0000
  C   C28       1.0  0.00787361330201009  0.14928371361482817  0.8235604756412368  1.0000
  C   C29       1.0  0.08855791805787303  0.7547986477185373  0.11990752410987672  1.0000
  C   C30       1.0  0.9114407938668451  0.24519957787922664  0.8800835795369081  1.0000
  C   C31       1.0  0.18375715114419933  0.7728370062035594  0.02917148442305264  1.0000
  C   C32       1.0  0.8162415775598859  0.22716115872858467  0.9708222627993662  1.0000
  C   C33       1.0  0.27760489105799013  0.686962928682142  0.9821508726290273  1.0000
  C   C34       1.0  0.7223965154048244  0.3130363955301263  0.017841679224858402  1.0000
  C   C35       1.0  0.1907513244020009  0.5671643822738375  0.10873853763927596  1.0000
  C   C36       1.0  0.8092512933687672  0.4328380626325411  0.8912597817276333  1.0000
  C   C37       1.0  0.0930152359638896  0.6480613848139782  0.15911199005636684  1.0000
  C   C38       1.0  0.9069846399889556  0.3519368025691064  0.8408818137480549  1.0000
  S   S1        1.0  0.33385683414644524  0.25022211563123165  0.1516605363562817  1.0000
  S   S2        1.0  0.6661331862604386  0.7497800014273325  0.8483406853760725  1.0000
  N   N1        1.0  0.39457996822292785  0.32655315283103886  0.777156706012512  1.0000
  N   N2        1.0  0.6054149441250516  0.6734404692425002  0.22284392455979665  1.0000
  N   N3        1.0  0.2826204777722765  0.5860449931624742  0.021842118064228092  1.0000
  N   N4        1.0  0.7173782677111689  0.4139531111040425  0.9781542727338174  1.0000
  O   O1        1.0  0.232941099497765  0.09908238039301406  0.07794879652728777  1.0000
  O   O2        1.0  0.7670504626053258  0.9009208330509823  0.9220529356382839  1.0000
  O   O3        1.0  0.3537379431191781  0.3253525438033904  0.06522256751421197  1.0000
  O   O4        1.0  0.6462551301796607  0.674648546451614  0.9347792513048174  1.0000
  O   O5        1.0  0.4889846292548867  0.2792223338545127  0.23270287903007156  1.0000
  O   O6        1.0  0.5110064606204574  0.720773427171764  0.7672949081491324  1.0000
