data_image0
_chemical_formula_structural       Cu6H24C30S6N6
_chemical_formula_sum              "Cu6 H24 C30 S6 N6"
_cell_length_a       10.540455728773559
_cell_length_b       10.540424036136022
_cell_length_c       10.241514695578106
_cell_angle_alpha    95.69455158266562
_cell_angle_beta     115.01523631779534
_cell_angle_gamma    119.52003907155924

_space_group_name_H-M_alt    "P 1"
_space_group_IT_number       1

loop_
  _space_group_symop_operation_xyz
  'x, y, z'

loop_
  _atom_site_type_symbol
  _atom_site_label
  _atom_site_symmetry_multiplicity
  _atom_site_fract_x
  _atom_site_fract_y
  _atom_site_fract_z
  _atom_site_occupancy
  Cu  Cu1       1.0  0.527864857081724  0.2778658260077053  0.24999910599094471  1.0000
  Cu  Cu2       1.0  0.4721341153584716  0.7221322657882397  0.7499979902976648  1.0000
  Cu  Cu3       1.0  0.6566609032680334  0.6333296222702247  0.11306868015881838  1.0000
  Cu  Cu4       1.0  0.0202625752234979  0.5435935994030316  0.3869342000797005  1.0000
  Cu  Cu5       1.0  0.3433390385882973  0.3666703490391044  0.8869329867136528  1.0000
  Cu  Cu6       1.0  0.9797416278908316  0.4564108004459798  0.6130717933950507  1.0000
  H   H1        1.0  0.2281179625514298  0.4186597561148489  0.47755815047096917  1.0000
  H   H2        1.0  0.441101399510238  0.7505599560090915  0.02244901779720007  1.0000
  H   H3        1.0  0.7718948786222768  0.5813475224574989  0.5224530312458312  1.0000
  H   H4        1.0  0.5588962092049171  0.24944218541146046  0.9775574505657546  1.0000
  H   H5        1.0  0.3858821513710923  0.36052412265700456  0.389103358997346  1.0000
  H   H6        1.0  0.47141938106535974  0.9967777158098416  0.11090533209027595  1.0000
  H   H7        1.0  0.6141206746007981  0.6394755461716102  0.6109000431002444  1.0000
  H   H8        1.0  0.5285838946248163  0.0032260128397964554  0.8891080891187142  1.0000
  H   H9        1.0  0.2701328518737967  0.5644668293996277  0.0499856504034852  1.0000
  H   H10       1.0  0.014480414737981598  0.22015034918106835  0.4500150940607455  1.0000
  H   H11       1.0  0.7298648580974431  0.43553311983038867  0.9500173355636574  1.0000
  H   H12       1.0  0.9855225994587967  0.7798487214319821  0.5499813258119275  1.0000
  H   H13       1.0  0.10420076581448261  0.6025316290470286  0.1434543199331557  1.0000
  H   H14       1.0  0.9590821449398134  0.9607487877933708  0.3565501422080928  1.0000
  H   H15       1.0  0.8958033646183453  0.39746739066152503  0.8565551908040022  1.0000
  H   H16       1.0  0.04091873148431806  0.03924996163258504  0.6434441056467932  1.0000
  H   H17       1.0  0.5067480316712292  0.13263173760584837  0.47893927383827867  1.0000
  H   H18       1.0  0.15368532399446616  0.027798885982377886  0.021050991358926317  1.0000
  H   H19       1.0  0.4932504910506737  0.8673622943690735  0.5210478033389307  1.0000
  H   H20       1.0  0.8463097877703732  0.9721995218636441  0.9789397904040554  1.0000
  H   H21       1.0  0.28180912080210874  0.8981895544144295  0.48648352293836433  1.0000
  H   H22       1.0  0.9116983899688905  0.7953216931397054  0.01351022377391331  1.0000
  H   H23       1.0  0.7181867408774706  0.10180728322240634  0.5135068263902696  1.0000
  H   H24       1.0  0.08829704255345659  0.20467797223835768  0.9864820786114734  1.0000
  C   C1        1.0  0.23747636666172403  0.44710803513090275  0.380986005531966  1.0000
  C   C2        1.0  0.5661208123118726  0.8564887127988074  0.11901996251750553  1.0000
  C   C3        1.0  0.7625246458668471  0.5528916235012887  0.6190167495285622  1.0000
  C   C4        1.0  0.4338779647597875  0.14351187029544826  0.8809841072793675  1.0000
  C   C5        1.0  0.32865894312053  0.4175489346244774  0.3334632946985109  1.0000
  C   C6        1.0  0.5840868021822345  0.9951983627420875  0.16654274590496956  1.0000
  C   C7        1.0  0.6713434608377681  0.5824516688626177  0.666542069172479  1.0000
  C   C8        1.0  0.41591517619065116  0.004804121944857737  0.8334645753811072  1.0000
  C   C9        1.0  0.34974661826280595  0.46469954200915714  0.21597685032278946  1.0000
  C   C10       1.0  0.748726029027921  0.1337726329351767  0.2840282138608785  1.0000
  C   C11       1.0  0.6502518523386485  0.5352959973875643  0.7840257162849795  1.0000
  C   C12       1.0  0.25127934244290623  0.8662302085875382  0.7159753810477979  1.0000
  C   C13       1.0  0.26700444239793336  0.5334447310501176  0.14720613376537275  1.0000
  C   C14       1.0  0.8862387257591493  0.11979723502659562  0.352798545992968  1.0000
  C   C15       1.0  0.7329976372310442  0.46655556144630606  0.8527977051248925  1.0000
  C   C16       1.0  0.11376312365295144  0.8802024473713747  0.6472002768041065  1.0000
  C   C17       1.0  0.1727086430833467  0.5531841156050705  0.1979780915177258  1.0000
  C   C18       1.0  0.8552062588945332  0.9747325227527383  0.30202293665549  1.0000
  C   C19       1.0  0.8272984441465353  0.44681998176321974  0.8020296371821445  1.0000
  C   C20       1.0  0.1447938640430381  0.025268743423772836  0.6979717392754238  1.0000
  C   C21       1.0  0.37351925199667596  0.053517690914866044  0.3770452201304906  1.0000
  C   C22       1.0  0.1764677238601209  0.9964698317126592  0.12294838519723329  1.0000
  C   C23       1.0  0.6264798109841365  0.9464810483146736  0.6229483806873332  1.0000
  C   C24       1.0  0.8235295256773654  0.003528897320457143  0.8770445685835354  1.0000
  C   C25       1.0  0.2474917244768093  0.9231084776693522  0.3810972449787684  1.0000
  C   C26       1.0  0.042006052356065  0.8663929467258599  0.1188962649788508  1.0000
  C   C27       1.0  0.7525033980035049  0.07688709055254607  0.6188935498591873  1.0000
  C   C28       1.0  0.9579904436948611  0.13360829905781207  0.8810971168779459  1.0000
  C   C29       1.0  0.07426838585156054  0.8242694951404702  0.24999705119832785  1.0000
  C   C30       1.0  0.9257252332274605  0.17573016004116945  0.7499946041499967  1.0000
  S   S1        1.0  0.4723988661091099  0.43715118102396394  0.1592981909227547  1.0000
  S   S2        1.0  0.777852425187149  0.3131014876547057  0.3407056203718213  1.0000
  S   S3        1.0  0.5276018113746659  0.5628510062416723  0.8407030260820746  1.0000
  S   S4        1.0  0.22215179221447562  0.686899126028813  0.6593003905362238  1.0000
  S   S5        1.0  0.9104921350337281  0.6604931507626121  0.24999903249952365  1.0000
  S   S6        1.0  0.08950215413488391  0.3395014471521378  0.7499956989602126  1.0000
  N   N1        1.0  0.15826171756358315  0.5132482352692734  0.3150951036836105  1.0000
  N   N2        1.0  0.6981525578018477  0.8431666021809151  0.18490944109342422  1.0000
  N   N3        1.0  0.8417446233233931  0.4867564857668256  0.6849130618089275  1.0000
  N   N4        1.0  0.3018470525815146  0.15683495122048902  0.8150906920816752  1.0000
  N   N5        1.0  0.3418408554145175  0.09183902779442833  0.24999617161054022  1.0000
  N   N6        1.0  0.6581550169805297  0.9081549702182913  0.7499941907930606  1.0000
