data_image0
_chemical_formula_structural       Zn16H8C96S16Cl16O52F8
_chemical_formula_sum              "Zn16 H8 C96 S16 Cl16 O52 F8"
_cell_length_a       19.65849350285995
_cell_length_b       19.792309675019542
_cell_length_c       33.35294652998572
_cell_angle_alpha    78.78271467418838
_cell_angle_beta     79.1772292360598
_cell_angle_gamma    63.955200211443675

_space_group_name_H-M_alt    "P 1"
_space_group_IT_number       1

loop_
  _space_group_symop_operation_xyz
  'x, y, z'

loop_
  _atom_site_type_symbol
  _atom_site_label
  _atom_site_symmetry_multiplicity
  _atom_site_fract_x
  _atom_site_fract_y
  _atom_site_fract_z
  _atom_site_occupancy
  Zn  Zn1       1.0  0.055601941695797984  0.40100973608394236  0.4781341605823073  1.0000
  Zn  Zn2       1.0  0.9853715859474829  0.4836464462331165  0.5601954741574033  1.0000
  Zn  Zn3       1.0  0.05858463293078128  0.561501243605484  0.48214460581230173  1.0000
  Zn  Zn4       1.0  0.8999113258690128  0.5547567132944736  0.4794411744519564  1.0000
  Zn  Zn5       1.0  0.6938091243314941  0.34900393218793385  0.2718823644204207  1.0000
  Zn  Zn6       1.0  0.6907331450678809  0.18861080473048025  0.26635817509608734  1.0000
  Zn  Zn7       1.0  0.7690451984053084  0.26624130069615154  0.1896866099449923  1.0000
  Zn  Zn8       1.0  0.8477876068394748  0.19555585601008127  0.27196924561083335  1.0000
  Zn  Zn9       1.0  0.2648494124538913  0.7660349672323293  0.6899527251627761  1.0000
  Zn  Zn10      1.0  0.3493672981142949  0.6971186824338884  0.77146178957738  1.0000
  Zn  Zn11      1.0  0.19220873155404658  0.8493008991410493  0.7712120976947716  1.0000
  Zn  Zn12      1.0  0.19128578140592367  0.6883180264315031  0.7678645794152248  1.0000
  Zn  Zn13      1.0  0.5587734560193524  0.06188305268975116  0.9836814150596639  1.0000
  Zn  Zn14      1.0  0.4024917009001924  0.05268583052796326  0.977151816498747  1.0000
  Zn  Zn15      1.0  0.5576044369301201  0.9005090529660366  0.979098518038576  1.0000
  Zn  Zn16      1.0  0.48133200652205926  0.983707432000401  0.06027636324396463  1.0000
  H   H1        1.0  0.7485404428582498  0.4513424192747378  0.34962484567784463  1.0000
  H   H2        1.0  0.000876689670811  0.299707768519788  0.4001913816714051  1.0000
  H   H3        1.0  0.20085790288503347  0.7004141819112704  0.599702542494292  1.0000
  H   H4        1.0  0.04929837643926759  0.5498414496312948  0.650118198507009  1.0000
  H   H5        1.0  0.6499090286605308  0.15078940774858304  0.049207821166604014  1.0000
  H   H6        1.0  0.6005236821645709  0.09913765946992473  0.20072803545216544  1.0000
  H   H7        1.0  0.30012680508104234  0.999771404906909  0.8998494892306468  1.0000
  H   H8        1.0  0.4505457030280056  0.7496923157998624  0.8497206185681065  1.0000
  C   C1        1.0  0.06172994016734629  0.3168869834840535  0.5619656720805395  1.0000
  C   C2        1.0  0.07011566399493319  0.570497277669503  0.5680550899048813  1.0000
  C   C3        1.0  0.183377752384466  0.4398515272784351  0.43838699019313054  1.0000
  C   C4        1.0  0.9360906179846608  0.683939274767546  0.43852424861517403  1.0000
  C   C5        1.0  0.9294663420440512  0.4318162934910958  0.4311344477475317  1.0000
  C   C6        1.0  0.8173107349167167  0.5606996622349811  0.5628662982708761  1.0000
  C   C7        1.0  0.5662150469661356  0.30940749451810495  0.3111893912101209  1.0000
  C   C8        1.0  0.6828354946056548  0.18072079744518996  0.18003697686300063  1.0000
  C   C9        1.0  0.6898514334706858  0.4330469081482778  0.1883090094770026  1.0000
  C   C10       1.0  0.935422281218976  0.18803037083862514  0.1895866186105835  1.0000
  C   C11       1.0  0.8195552842459434  0.3187635025004311  0.31919303639296  1.0000
  C   C12       1.0  0.8120372310879771  0.06599930489419854  0.3112781946508676  1.0000
  C   C13       1.0  0.43273900705817425  0.6896721475481798  0.6879987740284079  1.0000
  C   C14       1.0  0.3172793618652676  0.821385787990792  0.8187738259877194  1.0000
  C   C15       1.0  0.18821628578989186  0.9328161060066195  0.6875786240764725  1.0000
  C   C16       1.0  0.06550581244689369  0.8095294084802945  0.811242185707215  1.0000
  C   C17       1.0  0.18005307608880364  0.679590489922454  0.6818143729250252  1.0000
  C   C18       1.0  0.314654286784247  0.566517648346789  0.8116473973049383  1.0000
  C   C19       1.0  0.4369133555265634  0.18364777205808744  0.9384255013203742  1.0000
  C   C20       1.0  0.4334222740102118  0.9281552994470627  0.9307578720635095  1.0000
  C   C21       1.0  0.6838866789962593  0.9414802996805994  0.9391766479876651  1.0000
  C   C22       1.0  0.5608667664850769  0.8168195824059482  0.062459652693874476  1.0000
  C   C23       1.0  0.5675824032465114  0.06925206801584953  0.06989691245406962  1.0000
  C   C24       1.0  0.31496588481259374  0.06133042645741681  0.059909757763307404  1.0000
  C   C25       1.0  0.8999490075643661  0.4045288091754174  0.4022394247792461  1.0000
  C   C26       1.0  0.8493809923053846  0.3465175182592689  0.34768035325271995  1.0000
  C   C27       1.0  0.8286833738710013  0.4460818408497932  0.3871972812341369  1.0000
  C   C28       1.0  0.9208035817185234  0.3050847560255433  0.36257343355504895  1.0000
  C   C29       1.0  0.804012734045699  0.4178843025556348  0.360652733916524  1.0000
  C   C30       1.0  0.9454137394435589  0.333246703491426  0.3891626581168026  1.0000
  C   C31       1.0  0.09906099518757117  0.5993601366418275  0.596397187144774  1.0000
  C   C32       1.0  0.15104683291092866  0.6508894659325579  0.6534225762974231  1.0000
  C   C33       1.0  0.1421782375051848  0.6422584855318689  0.5831357575604346  1.0000
  C   C34       1.0  0.10789881808234007  0.6080317538566573  0.6666807418000787  1.0000
  C   C35       1.0  0.16753620848194828  0.6673844013640532  0.6108640655152584  1.0000
  C   C36       1.0  0.08257448405755947  0.5828939591340044  0.6389468057491285  1.0000
  C   C37       1.0  0.30515707624631006  0.4538966657365153  0.4004226475193491  1.0000
  C   C38       1.0  0.4444856711394535  0.29520360868744433  0.34931042059259454  1.0000
  C   C39       1.0  0.25832103003639156  0.4156705276772143  0.4136350544238568  1.0000
  C   C40       1.0  0.49135478802735827  0.3333806485967727  0.33608607456774564  1.0000
  C   C41       1.0  0.37659793631624433  0.33919766190918943  0.3727805160542418  1.0000
  C   C42       1.0  0.37306986758282074  0.40985596149180054  0.3769678956498836  1.0000
  C   C43       1.0  0.7255230321693985  0.5758373159626373  0.6307821383218412  1.0000
  C   C44       1.0  0.5245117737868483  0.673993940288362  0.6201270248930015  1.0000
  C   C45       1.0  0.742961881139756  0.585061404669631  0.5881760399841056  1.0000
  C   C46       1.0  0.507153284594679  0.6649391585205394  0.6627587351162633  1.0000
  C   C47       1.0  0.6042310383642686  0.6414731905642911  0.608470006522559  1.0000
  C   C48       1.0  0.6458157757410703  0.608346294294762  0.6424079762248243  1.0000
  C   C49       1.0  0.07671510179734038  0.22460851022282924  0.6298975731833067  1.0000
  C   C50       1.0  0.17394156918957995  0.024859293150733226  0.6196124614958833  1.0000
  C   C51       1.0  0.08591414923132848  0.24247697763782833  0.5872703414574758  1.0000
  C   C52       1.0  0.1645476007988549  0.007109719454717812  0.6622293614550686  1.0000
  C   C53       1.0  0.14184390458993332  0.10425656146981045  0.6078450628560006  1.0000
  C   C54       1.0  0.1088754856851182  0.14519714534215913  0.6416501409943365  1.0000
  C   C55       1.0  0.841817442756472  0.8017949170513321  0.3968643627869  1.0000
  C   C56       1.0  0.90627490963967  0.9482382905205644  0.3529249651099775  1.0000
  C   C57       1.0  0.9103150210184907  0.7585810964712392  0.41360744131688426  1.0000
  C   C58       1.0  0.8377459865837621  0.9913249983670763  0.33616547927646684  1.0000
  C   C59       1.0  0.9077894100910553  0.8789556996013986  0.3750247881643886  1.0000
  C   C60       1.0  0.8405002715639611  0.870895335542123  0.374666781981297  1.0000
  C   C61       1.0  0.654194363922066  0.1527881402172896  0.1510191981249704  1.0000
  C   C62       1.0  0.5963551866773854  0.09701156070807578  0.09891690148254641  1.0000
  C   C63       1.0  0.6670742197038421  0.16636051173983185  0.10786255530108242  1.0000
  C   C64       1.0  0.5834223071900764  0.08349142813573722  0.14208759786470893  1.0000
  C   C65       1.0  0.6389667307328749  0.13925886717478866  0.08248091019618192  1.0000
  C   C66       1.0  0.6115645721764692  0.11056016313746407  0.16746252226002406  1.0000
  C   C67       1.0  0.6738676276504945  0.5250319367490947  0.12032504136765003  1.0000
  C   C68       1.0  0.5760679010982911  0.7248244592648377  0.1304686951806318  1.0000
  C   C69       1.0  0.6649849396859436  0.507356944747187  0.162971219826062  1.0000
  C   C70       1.0  0.5851677548073583  0.7425563686450832  0.0878373531726666  1.0000
  C   C71       1.0  0.608485302604535  0.6454451768236282  0.14227350910081782  1.0000
  C   C72       1.0  0.6413778566648457  0.6044230973211526  0.10850276845859246  1.0000
  C   C73       1.0  0.0829869707290598  0.12334381710019221  0.1777655867350845  1.0000
  C   C74       1.0  0.16739624344883444  0.12640654344812668  0.0719102293512179  1.0000
  C   C75       1.0  0.010439012426118697  0.1626630379014813  0.16507940087885237  1.0000
  C   C76       1.0  0.23998194461909605  0.08707398618272319  0.08449815485708  1.0000
  C   C77       1.0  0.11016717451366277  0.13959186589395498  0.10596670756451941  1.0000
  C   C78       1.0  0.14030094959327497  0.11013677539619951  0.14372569859844486  1.0000
  C   C79       1.0  0.3454432983864422  0.8503529144374442  0.8474975892139299  1.0000
  C   C80       1.0  0.4052342741773813  0.899044794500483  0.9021191579078192  1.0000
  C   C81       1.0  0.3042936474793406  0.9210360080235562  0.8623246462380864  1.0000
  C   C82       1.0  0.44637766541763557  0.8283983229732501  0.8872869246413089  1.0000
  C   C83       1.0  0.33332723918159246  0.9447805067966539  0.8889182821379863  1.0000
  C   C84       1.0  0.4173474895683355  0.8046348916495275  0.860695015193926  1.0000
  C   C85       1.0  0.40868922086301046  0.4479308769660122  0.8532200779777385  1.0000
  C   C86       1.0  0.34295654938127723  0.30220036636425374  0.8968217530004097  1.0000
  C   C87       1.0  0.3403753483375381  0.4916057458935867  0.8363910406097831  1.0000
  C   C88       1.0  0.41129833574011326  0.25854964776462463  0.9136666787069032  1.0000
  C   C89       1.0  0.34199772161751696  0.3713446559894821  0.8747876628792781  1.0000
  C   C90       1.0  0.40952030011203516  0.3788826998268959  0.8753137378424825  1.0000
  C   C91       1.0  0.9437108771465644  0.7958613209328221  0.8495848641891682  1.0000
  C   C92       1.0  0.8055003762349455  0.9552099509035802  0.9005294020875141  1.0000
  C   C93       1.0  0.9907046056447298  0.8338295691341316  0.8360646052681348  1.0000
  C   C94       1.0  0.7584729589598708  0.91732545523422  0.9141031042277348  1.0000
  C   C95       1.0  0.8730381836791067  0.9108542308503972  0.8769747726881718  1.0000
  C   C96       1.0  0.8760961572785316  0.8402207266861628  0.8731075430295192  1.0000
  S   S1        1.0  0.29738864009097193  0.3261990831979773  0.39739278750836604  1.0000
  S   S2        1.0  0.4523218753373256  0.4227988292390706  0.3523826507390595  1.0000
  S   S3        1.0  0.6620194408929903  0.6331519996871435  0.5624352637642502  1.0000
  S   S4        1.0  0.588112870345533  0.6168506566144744  0.6884638400387504  1.0000
  S   S5        1.0  0.13366499615447217  0.16229821637968195  0.5617494820176816  1.0000
  S   S6        1.0  0.11688167073354087  0.08725245294605344  0.6877599994532491  1.0000
  S   S7        1.0  0.9727770487938799  0.8024807369801864  0.4022682235225261  1.0000
  S   S8        1.0  0.7754921509623428  0.9472457015190013  0.3473811968990219  1.0000
  S   S9        1.0  0.6169902073092857  0.5875846913451143  0.18842973208705158  1.0000
  S   S10       1.0  0.6330564840942542  0.6623267322029349  0.06236205420050572  1.0000
  S   S11       1.0  0.012320146646587196  0.183346640944464  0.11175990588500892  1.0000
  S   S12       1.0  0.23819199147014555  0.06651142669952759  0.1378462344700111  1.0000
  S   S13       1.0  0.27745253006188614  0.4482181862261425  0.8474911166823702  1.0000
  S   S14       1.0  0.4740295328788021  0.30211041461370064  0.9026572387666576  1.0000
  S   S15       1.0  0.9522222257571683  0.9234680814098727  0.852011164551314  1.0000
  S   S16       1.0  0.7968368635513626  0.8277156515814564  0.89808794900663  1.0000
  Cl  Cl1       1.0  0.2872613683420936  0.5420855658154197  0.4100257173530082  1.0000
  Cl  Cl2       1.0  0.4624735710518877  0.20689660093002962  0.3398177793351849  1.0000
  Cl  Cl3       1.0  0.7887619229925419  0.5315748639801187  0.6663011089679003  1.0000
  Cl  Cl4       1.0  0.46133961783244365  0.7181797815747043  0.58456732922474  1.0000
  Cl  Cl5       1.0  0.032823112065670984  0.28685411074459916  0.6653539493172786  1.0000
  Cl  Cl6       1.0  0.21770612550329818  0.9624170652823594  0.5842475535600826  1.0000
  Cl  Cl7       1.0  0.7667622136068031  0.778392602050076  0.40116055345539087  1.0000
  Cl  Cl8       1.0  0.9812793827276421  0.9717153913172755  0.34865477717220733  1.0000
  Cl  Cl9       1.0  0.7172544570541816  0.4626227984522799  0.08495141758917404  1.0000
  Cl  Cl10      1.0  0.5326064365225347  0.7872712324355006  0.16581565680133545  1.0000
  Cl  Cl11      1.0  0.10445830300393058  0.0931344134455827  0.22716761114859452  1.0000
  Cl  Cl12      1.0  0.14564102416777294  0.15696606028376442  0.022552669676180404  1.0000
  Cl  Cl13      1.0  0.48409708659193024  0.4708030520534835  0.8490415253560002  1.0000
  Cl  Cl14      1.0  0.2675030816786972  0.2794057191225717  0.9010074561069318  1.0000
  Cl  Cl15      1.0  0.9613264743198756  0.7076395295130239  0.8401630122831206  1.0000
  Cl  Cl16      1.0  0.7880470656874222  0.043509473869320886  0.9097837229134029  1.0000
  O   O1        1.0  0.0003736001779372999  0.4992742514498545  0.4997697244117348  1.0000
  O   O2        1.0  0.07671607118996349  0.3157113519802692  0.522921794255943  1.0000
  O   O3        1.0  0.033347684902508896  0.5309813553281018  0.5854211613156295  1.0000
  O   O4        1.0  0.15498249561478156  0.5054540870441073  0.4498875056436021  1.0000
  O   O5        1.0  0.02849377825220499  0.37529393853118614  0.5807975487347081  1.0000
  O   O6        1.0  0.15350685344338896  0.3919775261732783  0.446036981356059  1.0000
  O   O7        1.0  0.08414659441217509  0.5872903879839413  0.5295783561475745  1.0000
  O   O8        1.0  0.003292171393425699  0.6579173124190519  0.4491819752917863  1.0000
  O   O9        1.0  0.8862445870522534  0.4959242936423466  0.44316060236471344  1.0000
  O   O10       1.0  0.8903763231199588  0.6519693497158061  0.4473239519474888  1.0000
  O   O11       1.0  0.9959279915419611  0.38773382034677467  0.44127511357110905  1.0000
  O   O12       1.0  0.8767876003156941  0.526879108334839  0.5814630004737965  1.0000
  O   O13       1.0  0.8149347024556376  0.5762294667531691  0.523862444013659  1.0000
  O   O14       1.0  0.7489276590464797  0.25089834428786173  0.2500953818495049  1.0000
  O   O15       1.0  0.5962300767359211  0.35711464771854645  0.3040474762778018  1.0000
  O   O16       1.0  0.6654946275317997  0.16368018772919882  0.2183520410334481  1.0000
  O   O17       1.0  0.7258098748301407  0.37467881013502324  0.16959276975543255  1.0000
  O   O18       1.0  0.5942965026619264  0.24431472632245027  0.2990547681989497  1.0000
  O   O19       1.0  0.6727580124430474  0.4343179691044839  0.2272996491032586  1.0000
  O   O20       1.0  0.7215893878242099  0.21861634539067148  0.16437925643802492  1.0000
  O   O21       1.0  0.8779550450504274  0.2231846454491729  0.16904279961983087  1.0000
  O   O22       1.0  0.8621167413182959  0.2537359763909066  0.30816661409858165  1.0000
  O   O23       1.0  0.9338082762779009  0.1731943456471471  0.2285652769024225  1.0000
  O   O24       1.0  0.7535811743553609  0.3631002239813057  0.3084823485307311  1.0000
  O   O25       1.0  0.7458111286433321  0.09153394042871817  0.29938184801734025  1.0000
  O   O26       1.0  0.8571730646361927  0.09854051786320639  0.3038079773658637  1.0000
  O   O27       1.0  0.24957643020605494  0.7504343201359945  0.7503789159753893  1.0000
  O   O28       1.0  0.3735290863147539  0.7225874008233364  0.6691816593258794  1.0000
  O   O29       1.0  0.36283918700046774  0.756604430126373  0.8077229094897191  1.0000
  O   O30       1.0  0.17206914916017269  0.9343277996294078  0.7265509992886621  1.0000
  O   O31       1.0  0.4347206551736064  0.6754315980948318  0.7270615056848159  1.0000
  O   O32       1.0  0.22207467521408117  0.8742036261952179  0.668916454310292  1.0000
  O   O33       1.0  0.2512874930529988  0.8629459827762106  0.8078862140299777  1.0000
  O   O34       1.0  0.09455046090513258  0.858076091447508  0.8029730976506286  1.0000
  O   O35       1.0  0.1657816262666572  0.6629013820970684  0.7202768716174575  1.0000
  O   O36       1.0  0.09465905137891178  0.7434360951084927  0.8002697619786121  1.0000
  O   O37       1.0  0.21713676034566018  0.7188117779466694  0.664491090746381  1.0000
  O   O38       1.0  0.35961350559803407  0.5993579590455199  0.8036750690147018  1.0000
  O   O39       1.0  0.247991865831338  0.5918898598044748  0.8003938035349663  1.0000
  O   O40       1.0  0.5006335721493755  0.9995095181673577  0.9998642709142019  1.0000
  O   O41       1.0  0.5026412814294119  0.15875508768425564  0.9508171619151472  1.0000
  O   O42       1.0  0.3886784681464873  0.9939435650837539  0.9407324306972669  1.0000
  O   O43       1.0  0.6545024262178101  0.8932490592218729  0.9469160032598155  1.0000
  O   O44       1.0  0.3925107058696113  0.15029820232810204  0.9452587385888337  1.0000
  O   O45       1.0  0.655376222151183  0.006990563308250035  0.9508592675043417  1.0000
  O   O46       1.0  0.4984956362433194  0.885902307068214  0.9426567865043439  1.0000
  O   O47       1.0  0.5788983226589011  0.815299632652625  0.02354212277960242  1.0000
  O   O48       1.0  0.5290132110774194  0.031170928776703036  0.08552668451901718  1.0000
  O   O49       1.0  0.5245403587963293  0.8754171958340183  0.08098286912608901  1.0000
  O   O50       1.0  0.5846183450891401  0.08660024690472312  0.03158053383198479  1.0000
  O   O51       1.0  0.31659629716724413  0.07447093243806792  0.020878420891008904  1.0000
  O   O52       1.0  0.37236532528784483  0.027384616571133336  0.0805318813099731  1.0000
  F   F1        1.0  0.7810591572685862  0.5155299154354368  0.398029480134376  1.0000
  F   F2        1.0  0.9686063896313754  0.23577797504668047  0.3516141835290298  1.0000
  F   F3        1.0  0.1608552800619947  0.6607469755041252  0.5426352862782693  1.0000
  F   F4        1.0  0.08921949380734158  0.5895544682273766  0.7071835177296677  1.0000
  F   F5        1.0  0.7075444449623446  0.20662414982554375  0.08922838113533521  1.0000
  F   F6        1.0  0.5427805147278305  0.0433886556140737  0.16072884752973238  1.0000
  F   F7        1.0  0.23452305643873217  0.9690437698630631  0.8511436270841841  1.0000
  F   F8        1.0  0.5162589820310471  0.7805602407764738  0.8983699902926858  1.0000
