data_image0
_chemical_formula_structural       Gd2CuH16C32N4O26
_chemical_formula_sum              "Gd2 Cu1 H16 C32 N4 O26"
_cell_length_a       9.836504487629533
_cell_length_b       10.307587976830105
_cell_length_c       11.01479922545387
_cell_angle_alpha    70.15588217440485
_cell_angle_beta     85.14980159868664
_cell_angle_gamma    71.17714697399545

_space_group_name_H-M_alt    "P 1"
_space_group_IT_number       1

loop_
  _space_group_symop_operation_xyz
  'x, y, z'

loop_
  _atom_site_type_symbol
  _atom_site_label
  _atom_site_symmetry_multiplicity
  _atom_site_fract_x
  _atom_site_fract_y
  _atom_site_fract_z
  _atom_site_occupancy
  Gd  Gd1       1.0  0.4046968373171823  0.40626418396283276  0.41675415809360317  1.0000
  Gd  Gd2       1.0  0.595300057390709  0.5937373179784657  0.5832465042556265  1.0000
  Cu  Cu1       1.0  0.499998918051361  0.999997642081752  0.5000024713630394  1.0000
  H   H1        1.0  0.918726278872711  0.36250853383645426  0.48449925249927617  1.0000
  H   H2        1.0  0.08127197137149984  0.6374951596706283  0.5154978954067531  1.0000
  H   H3        1.0  0.8102180682375463  0.966857242729745  0.663724191341224  1.0000
  H   H4        1.0  0.1897713497125295  0.03315187980011561  0.33627102104750145  1.0000
  H   H5        1.0  0.2515602864195544  0.9550132308261043  0.6516155765310215  1.0000
  H   H6        1.0  0.7484301474949929  0.04498608546640529  0.3483871726896197  1.0000
  H   H7        1.0  0.4587749816986458  0.37130188023789407  0.9792036221097645  1.0000
  H   H8        1.0  0.541238890473835  0.6286909587248104  0.02079664391254004  1.0000
  H   H9        1.0  0.3491129074631588  0.9867529552346785  0.20173066314731602  1.0000
  H   H10       1.0  0.6508914588260312  0.013244208460058396  0.798270788751367  1.0000
  H   H11       1.0  0.29101290807349056  0.15170895290153652  0.7876028223388898  1.0000
  H   H12       1.0  0.7089897650850506  0.8482903764153136  0.2123989877033949  1.0000
  H   H13       1.0  0.1373415907720101  0.5604641280217209  0.2414271729783053  1.0000
  H   H14       1.0  0.8626580173990279  0.43953848038104587  0.7585702114475197  1.0000
  H   H15       1.0  0.22675493099017538  0.6708356200217196  0.18307989192320662  1.0000
  H   H16       1.0  0.7732473958205192  0.32916481250050117  0.8169188749902574  1.0000
  C   C1        1.0  0.09627044956907582  0.16678715614350637  0.5601503866673738  1.0000
  C   C2        1.0  0.9037257576196254  0.8332132698665478  0.43984884983526473  1.0000
  C   C3        1.0  0.9500193659341959  0.24597219947946775  0.5360787018921513  1.0000
  C   C4        1.0  0.049976841650007583  0.7540314975287926  0.4639176930955529  1.0000
  C   C5        1.0  0.8468490740001043  0.17430234780270135  0.5714640494490908  1.0000
  C   C6        1.0  0.1531457784432818  0.8257024286379746  0.42853301846687236  1.0000
  C   C7        1.0  0.8884688993408076  0.025168098296319406  0.6384622497415577  1.0000
  C   C8        1.0  0.11152289329158573  0.97483667488828  0.3615350529689891  1.0000
  C   C9        1.0  0.03288065197826043  0.9510978403886198  0.6711740677698756  1.0000
  C   C10       1.0  0.9671125013669624  0.04890584201975662  0.32882438090852156  1.0000
  C   C11       1.0  0.1389638739875423  0.018178789299966504  0.6302145187879873  1.0000
  C   C12       1.0  0.8610272335161606  0.9818216312832818  0.36978510903897177  1.0000
  C   C13       1.0  0.2025343833297768  0.24470442679020013  0.5040134076844325  1.0000
  C   C14       1.0  0.7974638637329222  0.7552960013905761  0.4959856722884908  1.0000
  C   C15       1.0  0.6941385578764497  0.2542682664740994  0.5287173902397909  1.0000
  C   C16       1.0  0.30585596214912425  0.745737584812467  0.47128118178761724  1.0000
  C   C17       1.0  0.37991130835296627  0.26949814792034493  0.8708391333106106  1.0000
  C   C18       1.0  0.6200961117796951  0.730495759376076  0.1291631064123209  1.0000
  C   C19       1.0  0.4161814183019956  0.2840058766197232  0.9850968659903215  1.0000
  C   C20       1.0  0.5838317719233074  0.7159858750679434  0.01490379308150843  1.0000
  C   C21       1.0  0.40378453350247406  0.18301149489807503  0.1046756608043964  1.0000
  C   C22       1.0  0.5962259464411944  0.8169824156544295  0.8953263441239444  1.0000
  C   C23       1.0  0.3519805901652973  0.06993803741529092  0.11016448698202909  1.0000
  C   C24       1.0  0.6480271739247175  0.930058043345852  0.8898370449067272  1.0000
  C   C25       1.0  0.3050535370690853  0.06493539463843233  0.9968422701266774  1.0000
  C   C26       1.0  0.6949528690940954  0.9350617712270335  0.003159025242283062  1.0000
  C   C27       1.0  0.3196528128418024  0.1620175833834949  0.876320431451809  1.0000
  C   C28       1.0  0.6803529058021952  0.8379785065507265  0.12367943807056746  1.0000
  C   C29       1.0  0.4147553291776235  0.3614811025723271  0.7406143928719972  1.0000
  C   C30       1.0  0.585249375101391  0.6385149749327327  0.259387373811343  1.0000
  C   C31       1.0  0.446102540955991  0.18712372385230222  0.23100789006123523  1.0000
  C   C32       1.0  0.5539038592396823  0.8128701823587506  0.7689944279265645  1.0000
  N   N1        1.0  0.07449635998359129  0.7945005924532326  0.7458194029053544  1.0000
  N   N2        1.0  0.9254950886914559  0.20550200726663803  0.2541786076393747  1.0000
  N   N3        1.0  0.24332591284237298  0.950448029656421  0.005899495971696897  1.0000
  N   N4        1.0  0.7566781154569855  0.049550220228006515  0.9941016411423291  1.0000
  O   O1        1.0  0.33633971226367987  0.17548110779362253  0.49661361277487964  1.0000
  O   O2        1.0  0.6636588779653537  0.8245149518554699  0.5033904423937514  1.0000
  O   O3        1.0  0.16180447233249853  0.38207103801931197  0.46082861717189877  1.0000
  O   O4        1.0  0.8381964933698571  0.6179272142809324  0.5391718452886636  1.0000
  O   O5        1.0  0.6420832112995711  0.38812242005074177  0.5195847835706218  1.0000
  O   O6        1.0  0.3579102915750101  0.6118834244785633  0.48041477616970235  1.0000
  O   O7        1.0  0.6188266107305439  0.19108482619871842  0.49671012893249866  1.0000
  O   O8        1.0  0.3811679176530518  0.8089210080721472  0.5032911714390664  1.0000
  O   O9        1.0  0.9760637075069312  0.7403858048157946  0.7848621799526041  1.0000
  O   O10       1.0  0.023924329437249994  0.2596179061971712  0.21513120336178557  1.0000
  O   O11       1.0  0.20417691724053805  0.7260869289245663  0.7639987022117508  1.0000
  O   O12       1.0  0.7958111591032448  0.273919973680016  0.23600457186044108  1.0000
  O   O13       1.0  0.38147528193808716  0.33725516064511407  0.6434357617400864  1.0000
  O   O14       1.0  0.6185256925177994  0.6627463456376289  0.3565645875496912  1.0000
  O   O15       1.0  0.47925831072299013  0.4506384804822972  0.7394778496258638  1.0000
  O   O16       1.0  0.5207436749163677  0.5493597729033013  0.26052253456983004  1.0000
  O   O17       1.0  0.4313022392599422  0.3067098111108209  0.24541033199273699  1.0000
  O   O18       1.0  0.5687011094827525  0.693284074828455  0.7545949491338106  1.0000
  O   O19       1.0  0.4931529827772819  0.0595743242523028  0.3151266132603041  1.0000
  O   O20       1.0  0.5068520622775666  0.9404206613911726  0.6848763776557475  1.0000
  O   O21       1.0  0.2518652798057984  0.8539102121991249  0.11347110359629659  1.0000
  O   O22       1.0  0.7481384105037351  0.14608912387497947  0.8865297187330725  1.0000
  O   O23       1.0  0.18582034579864654  0.9547608146658673  0.9084095599320889  1.0000
  O   O24       1.0  0.8141823273598947  0.0452385146509755  0.09159225011018887  1.0000
  O   O25       1.0  0.21953862031899263  0.5864437395214566  0.2560827165419752  1.0000
  O   O26       1.0  0.7804636921661655  0.41355345036205904  0.7439143446461712  1.0000
