data_image0
_chemical_formula_structural       Tb4Zn4H80C96N16Cl4O48
_chemical_formula_sum              "Tb4 Zn4 H80 C96 N16 Cl4 O48"
_cell_length_a       13.075678085074557
_cell_length_b       15.72004975716046
_cell_length_c       23.22875281653906
_cell_angle_alpha    100.19244096825925
_cell_angle_beta     89.97964390402721
_cell_angle_gamma    114.5728036529806

_space_group_name_H-M_alt    "P 1"
_space_group_IT_number       1

loop_
  _space_group_symop_operation_xyz
  'x, y, z'

loop_
  _atom_site_type_symbol
  _atom_site_label
  _atom_site_symmetry_multiplicity
  _atom_site_fract_x
  _atom_site_fract_y
  _atom_site_fract_z
  _atom_site_occupancy
  Tb  Tb1       1.0  0.0952475879938603  0.9391640952325345  0.9533042292759645  1.0000
  Tb  Tb2       1.0  0.15611239967859092  0.06130239001709729  0.5466478560487074  1.0000
  Tb  Tb3       1.0  0.9047434228689467  0.06085312474672828  0.046679915232495296  1.0000
  Tb  Tb4       1.0  0.8438882586522496  0.9387050857567375  0.4533756756682905  1.0000
  Zn  Zn1       1.0  0.8728630006825712  0.50035524619787  0.6411933041606019  1.0000
  Zn  Zn2       1.0  0.3720604570525055  0.4994284731002026  0.8589251564108193  1.0000
  Zn  Zn3       1.0  0.12716540966223283  0.4996572598677034  0.3588325057889604  1.0000
  Zn  Zn4       1.0  0.627945111389238  0.5005872694351224  0.14105666961359017  1.0000
  H   H1        1.0  0.6161617937922301  0.5945393025467355  0.7802981301694273  1.0000
  H   H2        1.0  0.022342306615861732  0.40614287410854644  0.7192294011662027  1.0000
  H   H3        1.0  0.38384500008356787  0.40550642778185864  0.2196887505943224  1.0000
  H   H4        1.0  0.9776329616214599  0.593806148719068  0.2807579295537792  1.0000
  H   H5        1.0  0.767869131980632  0.7480158964169591  0.8362669569514195  1.0000
  H   H6        1.0  0.020278321128593305  0.2523357256499779  0.6634583119394435  1.0000
  H   H7        1.0  0.2321367046180853  0.2520325038349469  0.16371247083896628  1.0000
  H   H8        1.0  0.9797048207276408  0.7476045842420193  0.33655172956041207  1.0000
  H   H9        1.0  0.8421121128267258  0.6548798498412506  0.42989876338085503  1.0000
  H   H10       1.0  0.18610778267960634  0.34467183905126575  0.07010015725347779  1.0000
  H   H11       1.0  0.1578683956191327  0.3451163905883661  0.5701308411183277  1.0000
  H   H12       1.0  0.8138889240997287  0.655300165966672  0.9298664758905132  1.0000
  H   H13       1.0  0.7496689214268815  0.3476016963257393  0.7201047706872004  1.0000
  H   H14       1.0  0.4026454920572817  0.6530194436762784  0.7801692486831583  1.0000
  H   H15       1.0  0.250338013580418  0.6524229062850041  0.2798909561853122  1.0000
  H   H16       1.0  0.5973432175880119  0.3469763449526368  0.2198107921221251  1.0000
  H   H17       1.0  0.8173389851026087  0.3018874017032472  0.7474098954244894  1.0000
  H   H18       1.0  0.5154823569692296  0.6996743686564456  0.7525638994299583  1.0000
  H   H19       1.0  0.18263194148089926  0.6981110737081124  0.2525936952850358  1.0000
  H   H20       1.0  0.4844993188181235  0.3003455925564892  0.24741581474221158  1.0000
  H   H21       1.0  0.2021765853274573  0.061315126896182896  0.8658826186478663  1.0000
  H   H22       1.0  0.14110411558988295  0.9388308257150016  0.6337854311507342  1.0000
  H   H23       1.0  0.7978334941616367  0.9386897477917345  0.1340906798387564  1.0000
  H   H24       1.0  0.8589870159242639  0.06118474612855349  0.36621961609144194  1.0000
  H   H25       1.0  0.15959329763010283  0.9505604278942669  0.8355174621845833  1.0000
  H   H26       1.0  0.20902343452354444  0.049477954410917804  0.664408010415677  1.0000
  H   H27       1.0  0.8404305291940375  0.049439829492591486  0.16447125181991137  1.0000
  H   H28       1.0  0.7910360189237553  0.9505308633841878  0.33561221976513167  1.0000
  H   H29       1.0  0.8663502149741334  0.21530788010730353  0.4311071546903449  1.0000
  H   H30       1.0  0.6508968087610755  0.7839121674503176  0.06908601366856003  1.0000
  H   H31       1.0  0.13363019862941175  0.7846851191752648  0.5689358670333887  1.0000
  H   H32       1.0  0.3491171610057435  0.21604849477376575  0.9309125089513371  1.0000
  H   H33       1.0  0.2688116366939823  0.9927613868456859  0.055323261957276805  1.0000
  H   H34       1.0  0.27612511160533865  0.007973466734114297  0.4445646632947982  1.0000
  H   H35       1.0  0.7311733843619949  0.007201021085997194  0.9446586665572807  1.0000
  H   H36       1.0  0.7238329689756284  0.9919977984753388  0.5554613069077092  1.0000
  H   H37       1.0  0.2667116580480595  0.8977968680073686  0.009866235352298218  1.0000
  H   H38       1.0  0.3689468680607177  0.10276802338915299  0.49006020353024826  1.0000
  H   H39       1.0  0.733281759696325  0.10219914739620607  0.9900931640200452  1.0000
  H   H40       1.0  0.631035647801042  0.8972016322366584  0.5099578353633517  1.0000
  H   H41       1.0  0.6620680567740324  0.30214479344672174  0.5869362195955148  1.0000
  H   H42       1.0  0.35994676994060637  0.697660091390823  0.9131332350671426  1.0000
  H   H43       1.0  0.3379353045826647  0.6978420852537325  0.4130884671294126  1.0000
  H   H44       1.0  0.6400373369318829  0.3023616645332012  0.08683203979068568  1.0000
  H   H45       1.0  0.8637443981516668  0.6850346100819492  0.6172085232670383  1.0000
  H   H46       1.0  0.17795075721239334  0.3148962357733112  0.8828146887941057  1.0000
  H   H47       1.0  0.1362648240945106  0.3149808199821891  0.38282062751643037  1.0000
  H   H48       1.0  0.8220939442546252  0.6850799842041865  0.11714982434867237  1.0000
  H   H49       1.0  0.006495024787312787  0.694415441327159  0.7250390895440474  1.0000
  H   H50       1.0  0.31146736858765683  0.30528964378952145  0.7751243137290372  1.0000
  H   H51       1.0  0.9935204972355647  0.30557892571405887  0.2749713590367975  1.0000
  H   H52       1.0  0.6885834485110109  0.6947462435644597  0.22486749601920045  1.0000
  H   H53       1.0  0.8725675630331581  0.29403518352015817  0.6183586728422411  1.0000
  H   H54       1.0  0.578174212154913  0.7056666008499874  0.881850377903902  1.0000
  H   H55       1.0  0.1274333416337897  0.7059926824069295  0.38168520777098536  1.0000
  H   H56       1.0  0.42181914578813473  0.29436450075577614  0.11814951705035528  1.0000
  H   H57       1.0  0.8470277694573056  0.4954826958733704  0.42170554850659403  1.0000
  H   H58       1.0  0.3506569124660004  0.5039813987184515  0.07840016166940698  1.0000
  H   H59       1.0  0.15297537566853245  0.5045221098980407  0.5783254360103882  1.0000
  H   H60       1.0  0.6493328398780065  0.4959950569828137  0.9215742861036842  1.0000
  H   H61       1.0  0.8590207055822817  0.3689385036894066  0.4222112494598916  1.0000
  H   H62       1.0  0.489852958536524  0.6303341649908631  0.0779326930070425  1.0000
  H   H63       1.0  0.14098135780973556  0.6310656701080289  0.5778231092938739  1.0000
  H   H64       1.0  0.5101618402025139  0.36962049929863366  0.9220526771569055  1.0000
  H   H65       1.0  0.49900409418175673  0.4885671774342056  0.7156179009028419  1.0000
  H   H66       1.0  0.010847595034086074  0.5121858873906007  0.7841461944634173  1.0000
  H   H67       1.0  0.5010037434073737  0.5114683982585859  0.2843605319590239  1.0000
  H   H68       1.0  0.9891124283960692  0.4877724157703226  0.21584259981135995  1.0000
  H   H69       1.0  0.3699409250205008  0.333268011518328  0.6510928170233328  1.0000
  H   H70       1.0  0.03739093675140737  0.6675606394613496  0.8487686392619905  1.0000
  H   H71       1.0  0.6300684410475839  0.6667614505637686  0.34889785256841316  1.0000
  H   H72       1.0  0.9625418417020767  0.3323890580949537  0.1512170488388733  1.0000
  H   H73       1.0  0.9849370749169781  0.06549452862335409  0.9281514618255428  1.0000
  H   H74       1.0  0.9197525150260831  0.9342262752154369  0.5717865398753971  1.0000
  H   H75       1.0  0.015056920406110013  0.9344904123686745  0.07182091469340426  1.0000
  H   H76       1.0  0.0802372481066769  0.0657716380688171  0.42822344450041777  1.0000
  H   H77       1.0  0.8821938014056415  0.956392357807303  0.9254227742583367  1.0000
  H   H78       1.0  0.9255518179004271  0.0432094547618718  0.5745757254730605  1.0000
  H   H79       1.0  0.11779245247582543  0.043601585485326694  0.0745695475159494  1.0000
  H   H80       1.0  0.0744524361179656  0.9567945062910893  0.42544956797021877  1.0000
  C   C1        1.0  0.7028051997280399  0.6194705189002007  0.7684257655741573  1.0000
  C   C2        1.0  0.08361619441755148  0.3809026137834763  0.7313033712730357  1.0000
  C   C3        1.0  0.29720137244166267  0.3805610014208653  0.23156168870583824  1.0000
  C   C4        1.0  0.9163750888611165  0.6190692657497437  0.2686882200812519  1.0000
  C   C5        1.0  0.7865280541798398  0.7039217168465369  0.7996803524299381  1.0000
  C   C6        1.0  0.08278040758617071  0.2963542758787696  0.700143594115822  1.0000
  C   C7        1.0  0.21348643912295273  0.29612258701929056  0.20030636897531903  1.0000
  C   C8        1.0  0.917207003957067  0.7036129265128965  0.2998608247358305  1.0000
  C   C9        1.0  0.8522977929970781  0.6815211935588507  0.5241252451499747  1.0000
  C   C10       1.0  0.16982745974276273  0.31822765817474874  0.9758901799669458  1.0000
  C   C11       1.0  0.1476878885705517  0.31847927417038585  0.47590267587176527  1.0000
  C   C12       1.0  0.8301912843413248  0.68174865427293  0.02407822114493291  1.0000
  C   C13       1.0  0.8540969406192717  0.5044320865488032  0.5161339610220779  1.0000
  C   C14       1.0  0.3490990551551719  0.49514744694358376  0.983984811041985  1.0000
  C   C15       1.0  0.14591646188247154  0.4955840563314027  0.48389526853037507  1.0000
  C   C16       1.0  0.6509121252468759  0.504829038025285  0.0159909293109592  1.0000
  C   C17       1.0  0.8592269829497782  0.4120837266980715  0.516493954687256  1.0000
  C   C18       1.0  0.44672815065506916  0.5874492390216233  0.9836735963888188  1.0000
  C   C19       1.0  0.14077918765200795  0.5879332510919683  0.48354053496336036  1.0000
  C   C20       1.0  0.553282103050279  0.41254528443317895  0.016313190202602412  1.0000
  C   C21       1.0  0.8458528440324855  0.6261501451726801  0.46887902620561306  1.0000
  C   C22       1.0  0.21875152334560966  0.3734660607635049  0.031157162214654494  1.0000
  C   C23       1.0  0.15413705975663564  0.3738495890553112  0.5311479517554005  1.0000
  C   C24       1.0  0.7812614492561069  0.6265109447643626  0.9688104554550633  1.0000
  C   C25       1.0  0.8654546639307769  0.2652570635233857  0.46991015561678035  1.0000
  C   C26       1.0  0.600026851251549  0.7341114828654797  0.030259879473092614  1.0000
  C   C27       1.0  0.13452752704088067  0.7347394907033261  0.5301328304500997  1.0000
  C   C28       1.0  0.399982519639245  0.26586904324716437  0.9697365457716811  1.0000
  C   C29       1.0  0.8598765138565554  0.7810885757649758  0.5310945140545015  1.0000
  C   C30       1.0  0.07773223688801781  0.21867695793119418  0.9688186266393611  1.0000
  C   C31       1.0  0.14011104979297073  0.21891870830553728  0.468920817423971  1.0000
  C   C32       1.0  0.9222535816338822  0.7813069160661856  0.03113856312669583  1.0000
  C   C33       1.0  0.8760261560443469  0.15088247336087332  0.5315366453733361  1.0000
  C   C34       1.0  0.7250267624085681  0.8485133417314045  0.9685856302732602  1.0000
  C   C35       1.0  0.12396377832515536  0.8491326294297394  0.4685088317995252  1.0000
  C   C36       1.0  0.2749696243920567  0.15148863677273994  0.031415763746650796  1.0000
  C   C37       1.0  0.43320825688648074  0.2149851982456354  0.573437783643115  1.0000
  C   C38       1.0  0.21869055632460294  0.7854364045723798  0.9264997942875295  1.0000
  C   C39       1.0  0.5667912496199179  0.7850092607515576  0.4265765517798527  1.0000
  C   C40       1.0  0.7812706022795766  0.2145562802200445  0.0734691409288004  1.0000
  C   C41       1.0  0.6242510637764556  0.34159272930080675  0.6157753802383539  1.0000
  C   C42       1.0  0.2827665612255713  0.6584773053986407  0.884230433300331  1.0000
  C   C43       1.0  0.375751836003559  0.6584039293694701  0.38424178254627606  1.0000
  C   C44       1.0  0.7172067234459549  0.3415289263798087  0.11574000615558329  1.0000
  C   C45       1.0  0.8702319352533296  0.2427463143945587  0.5251934193576133  1.0000
  C   C46       1.0  0.6272788790102055  0.75671788203541  0.9749897913262159  1.0000
  C   C47       1.0  0.12975224638646668  0.7572572789242784  0.47484647388547785  1.0000
  C   C48       1.0  0.3727230561256221  0.2432768342302154  0.025005197931093896  1.0000
  C   C49       1.0  0.8578602831551124  0.6437328749857515  0.5733706644439778  1.0000
  C   C50       1.0  0.21337600163840156  0.3560618882568959  0.9266734246995937  1.0000
  C   C51       1.0  0.1421448625103423  0.3562789901278619  0.42665809058734533  1.0000
  C   C52       1.0  0.7866623892144986  0.643920066681062  0.0732930181102276  1.0000
  C   C53       1.0  0.9208056038098962  0.6752367174454507  0.7381177081546823  1.0000
  C   C54       1.0  0.2451694344592923  0.32465190456250065  0.7619722548809802  1.0000
  C   C55       1.0  0.07921151640477583  0.32477461040825517  0.2618881670290136  1.0000
  C   C56       1.0  0.7548546732997894  0.6753626843323488  0.2380210656360831  1.0000
  C   C57       1.0  0.8695882409505273  0.3082188165235422  0.5742373141509985  1.0000
  C   C58       1.0  0.5610081044978872  0.6913705060183872  0.9259558089145158  1.0000
  C   C59       1.0  0.13040775226178872  0.6917961644501813  0.4258029822995296  1.0000
  C   C60       1.0  0.4389816804314037  0.3086427395894659  0.07404081036460747  1.0000
  C   C61       1.0  0.8473589394937237  0.5372169968653963  0.4645992428206255  1.0000
  C   C62       1.0  0.30935636257074617  0.4623155531975982  0.0354892068398485  1.0000
  C   C63       1.0  0.15264173610003703  0.46279204672620017  0.5354304907548908  1.0000
  C   C64       1.0  0.6906504168842745  0.5376551872395368  0.9644841733906586  1.0000
  C   C65       1.0  0.9913436648478966  0.824107693550573  0.8161383511185746  1.0000
  C   C66       1.0  0.1670514665467024  0.1758692547435317  0.683911439497649  1.0000
  C   C67       1.0  0.008672592932008198  0.1759095453735  0.1838466538672066  1.0000
  C   C68       1.0  0.8329629840402861  0.8241076814327359  0.3161138632488231  1.0000
  C   C69       1.0  0.6497787201041094  0.47505261640955604  0.686699892611955  1.0000
  C   C70       1.0  0.17484801015301338  0.5252304573493446  0.8131808838480765  1.0000
  C   C71       1.0  0.350221981255963  0.5249564618182915  0.313300998338498  1.0000
  C   C72       1.0  0.8251328830486457  0.4747588738922133  0.1867967179790924  1.0000
  C   C73       1.0  0.8975027543587261  0.7335555676303827  0.7838718628470573  1.0000
  C   C74       1.0  0.16374543537241243  0.26645927391344776  0.7161349000414318  1.0000
  C   C75       1.0  0.1025131751094221  0.2664717246395512  0.21611727326324365  1.0000
  C   C76       1.0  0.836262304757  0.7335287066156724  0.2838761312447673  1.0000
  C   C77       1.0  0.8600825388468749  0.3502719318204086  0.4651892170380663  1.0000
  C   C78       1.0  0.5095591848298683  0.6491088072893589  0.03496665371555001  1.0000
  C   C79       1.0  0.13991067180394617  0.6497344220328927  0.5348471071262821  1.0000
  C   C80       1.0  0.49045231644382187  0.35086220628650017  0.9650183810596287  1.0000
  C   C81       1.0  0.7324250910340098  0.565098168520869  0.7227538957798316  1.0000
  C   C82       1.0  0.16732826406010307  0.4350979492595073  0.7771242015287142  1.0000
  C   C83       1.0  0.2675799619157146  0.4349165529883264  0.2772450386023877  1.0000
  C   C84       1.0  0.8326629570832085  0.5648921552319094  0.2228560683883174  1.0000
  C   C85       1.0  0.5071032032945056  0.30660913566731546  0.61454922374093  1.0000
  C   C86       1.0  0.20087795488267804  0.6937611874648084  0.8854114943120094  1.0000
  C   C87       1.0  0.4929055588647414  0.6934023039969045  0.38546140075611385  1.0000
  C   C88       1.0  0.7990784092591666  0.30622956098464726  0.11456583711179037  1.0000
  C   C89       1.0  0.5328949794483935  0.44524550678107744  0.6873780867253956  1.0000
  C   C90       1.0  0.08800246371657756  0.5552962823538224  0.8124642426282518  1.0000
  C   C91       1.0  0.4671124685465387  0.5547847089336742  0.3126143890051338  1.0000
  C   C92       1.0  0.9119624390980905  0.44467330756758366  0.1875206389435107  1.0000
  C   C93       1.0  0.4613489296602681  0.3597468493769115  0.6515143414259512  1.0000
  C   C94       1.0  0.10209834335468315  0.6408378062801815  0.8483677805636488  1.0000
  C   C95       1.0  0.5386520205646191  0.640274962166039  0.3484836591713431  1.0000
  C   C96       1.0  0.8978486357661595  0.3591295847196604  0.15161427529358915  1.0000
  N   N1        1.0  0.8580415654709838  0.5579046702485256  0.5693895927759698  1.0000
  N   N2        1.0  0.2995790811668542  0.4417959061893129  0.9307006064105252  1.0000
  N   N3        1.0  0.1419749676469664  0.4421100869063963  0.4306412046144104  1.0000
  N   N4        1.0  0.7004483774090816  0.5581840722219483  0.0692725066240243  1.0000
  N   N5        1.0  0.840712053582685  0.5928939756232835  0.7090159902271296  1.0000
  N   N6        1.0  0.24747319821545943  0.40705210503001876  0.7910263004766732  1.0000
  N   N7        1.0  0.15930040793894312  0.40711109718562005  0.2909960790130341  1.0000
  N   N8        1.0  0.7525426858407585  0.5929628530624456  0.20895242344814585  1.0000
  N   N9        1.0  0.8642239328212611  0.39010151486791494  0.5699036507358243  1.0000
  N   N10       1.0  0.4736731115130651  0.6095403896790542  0.930275583810797  1.0000
  N   N11       1.0  0.13578529681635834  0.6099154627639151  0.43013083856802575  1.0000
  N   N12       1.0  0.5263253410550705  0.39047182856412377  0.06970757348450718  1.0000
  N   N13       1.0  0.6939312493422207  0.42273511235572403  0.6512873688320437  1.0000
  N   N14       1.0  0.27120849940033037  0.5773220798014477  0.8486866524652752  1.0000
  N   N15       1.0  0.30607472529546004  0.57727075482331  0.34872823374332274  1.0000
  N   N16       1.0  0.728774833268183  0.42268283677100266  0.15128837573181633  1.0000
  Cl  Cl1       1.0  0.06117693249687755  0.5535681955047593  0.6675148730218439  1.0000
  Cl  Cl2       1.0  0.5073882733408369  0.4466447807746547  0.8322982673420966  1.0000
  Cl  Cl3       1.0  0.9388587625755846  0.4464542926358632  0.3325120455018507  1.0000
  Cl  Cl4       1.0  0.4926264771198063  0.5533740361713342  0.16769337134465453  1.0000
  O   O1        1.0  0.9730597446954052  0.8545407738892906  0.867938934000854  1.0000
  O   O2        1.0  0.1183737865170542  0.14545020154864827  0.6321140241601384  1.0000
  O   O3        1.0  0.02695268347671489  0.1455131581498819  0.1320337886014755  1.0000
  O   O4        1.0  0.8816209471861712  0.8545117720949519  0.36791004839114544  1.0000
  O   O5        1.0  0.8828234244213817  0.8316257247528825  0.5822798889551847  1.0000
  O   O6        1.0  0.0502976566808826  0.16819192027382  0.9176322067946643  1.0000
  O   O7        1.0  0.11715531610138191  0.16838380012372062  0.41773999794827416  1.0000
  O   O8        1.0  0.9497462923786912  0.8317827926757033  0.08232869459068584  1.0000
  O   O9        1.0  0.9564230960585719  0.0045328857341644  0.9458654756181274  1.0000
  O   O10       1.0  0.9519320946528466  0.9952476290924037  0.554109336259188  1.0000
  O   O11       1.0  0.04355942391035236  0.9954673535385227  0.054122379729562915  1.0000
  O   O12       1.0  0.048057737580244016  0.004750425942397397  0.44590669148356443  1.0000
  O   O13       1.0  0.8692970414080604  0.12967001650567056  0.5819315084761456  1.0000
  O   O14       1.0  0.739309972500692  0.8697188994667825  0.9181853126439277  1.0000
  O   O15       1.0  0.13071791772165403  0.8703507791235411  0.4181141681331582  1.0000
  O   O16       1.0  0.26068471592797243  0.13027662133356438  0.08181364170433618  1.0000
  O   O17       1.0  0.07913673337596083  0.8608202467882222  0.7898383287874537  1.0000
  O   O18       1.0  0.21807988565597475  0.13914556749416818  0.7102094674463685  1.0000
  O   O19       1.0  0.9209054910701937  0.13917092248284746  0.21015712302775563  1.0000
  O   O20       1.0  0.7819325738120781  0.8608442134912977  0.2898176935667536  1.0000
  O   O21       1.0  0.4771438768095494  0.18505967927607964  0.53071678002771  1.0000
  O   O22       1.0  0.2922640583666407  0.815196994795748  0.9693176951013526  1.0000
  O   O23       1.0  0.5228565785678685  0.8149213839382556  0.46930252471792505  1.0000
  O   O24       1.0  0.7077367310811483  0.18483364492382748  0.030632204576626496  1.0000
  O   O25       1.0  0.8864591631147577  0.10118498527690177  0.484049386412039  1.0000
  O   O26       1.0  0.78540994130249  0.8981662998785609  0.015998356941374033  1.0000
  O   O27       1.0  0.11352941699202998  0.8988258798912908  0.5159973421357477  1.0000
  O   O28       1.0  0.21458818831608545  0.1018391626944606  0.9839999797382146  1.0000
  O   O29       1.0  0.8259553200183092  0.3538756458951156  0.7276915680673212  1.0000
  O   O30       1.0  0.4730702018908417  0.6475709686887469  0.7723957708452929  1.0000
  O   O31       1.0  0.1740369852901935  0.6461196927731975  0.27229961649781126  1.0000
  O   O32       1.0  0.526942928718846  0.3524614364553856  0.2275991003177538  1.0000
  O   O33       1.0  0.19834276049964222  0.0008916499873307995  0.8727554165155667  1.0000
  O   O34       1.0  0.1976704316935738  0.9993894830765058  0.627086019437506  1.0000
  O   O35       1.0  0.8016672547761843  0.999119222595617  0.1272310343403262  1.0000
  O   O36       1.0  0.802408964289029  0.0006362743317182978  0.37292877192743384  1.0000
  O   O37       1.0  0.22457488928817082  0.9378693678456288  0.02487730008464694  1.0000
  O   O38       1.0  0.28680524397314844  0.0629502698378062  0.4749470217709089  1.0000
  O   O39       1.0  0.7754223551331592  0.06211136566177089  0.9750976222962676  1.0000
  O   O40       1.0  0.7131801319808347  0.937035815758243  0.5250741343929305  1.0000
  O   O41       1.0  0.3309783345358639  0.17677011972396875  0.5858599428456586  1.0000
  O   O42       1.0  0.15505791765940563  0.8239106247470787  0.9139546487338206  1.0000
  O   O43       1.0  0.6690209631554539  0.8232407491516014  0.41415664685617765  1.0000
  O   O44       1.0  0.8448579210852714  0.1760526111732474  0.08603211523183059  1.0000
  O   O45       1.0  0.8450566684995595  0.8062069225071584  0.4837524689794107  1.0000
  O   O46       1.0  0.03756216692825382  0.19352633863170607  0.016133330422562195  1.0000
  O   O47       1.0  0.15493970739063914  0.193788922215326  0.5162602986056298  1.0000
  O   O48       1.0  0.9623518818320351  0.8064944851270185  0.9838223764022445  1.0000
