data_image0
_chemical_formula_structural       Na4H36C20N8O20
_chemical_formula_sum              "Na4 H36 C20 N8 O20"
_cell_length_a       5.029389732060445
_cell_length_b       9.32326414010254
_cell_length_c       17.106072855188735
_cell_angle_alpha    89.99965769053081
_cell_angle_beta     89.99953799459156
_cell_angle_gamma    90.00032932054565

_space_group_name_H-M_alt    "P 1"
_space_group_IT_number       1

loop_
  _space_group_symop_operation_xyz
  'x, y, z'

loop_
  _atom_site_type_symbol
  _atom_site_label
  _atom_site_symmetry_multiplicity
  _atom_site_fract_x
  _atom_site_fract_y
  _atom_site_fract_z
  _atom_site_occupancy
  Na  Na1       1.0  0.24295147319828203  0.05712156098162071  0.8635712672392233  1.0000
  Na  Na2       1.0  0.742953234409967  0.9428904012127012  0.6364322724058624  1.0000
  Na  Na3       1.0  0.7570345684811953  0.4428921060523194  0.36356858518953333  1.0000
  Na  Na4       1.0  0.2570470819563795  0.5571231177430533  0.13642163945765873  1.0000
  H   H1        1.0  0.7292700683282547  0.720571405799994  0.009023896688148604  1.0000
  H   H2        1.0  0.22927999382859807  0.2794480429948011  0.49096698422796703  1.0000
  H   H3        1.0  0.27068372314093375  0.7794402645370725  0.5090275227584159  1.0000
  H   H4        1.0  0.7707346779252974  0.2205685452162101  0.9909765298144891  1.0000
  H   H5        1.0  0.6515113185879003  0.48059326892321513  0.9811972688309399  1.0000
  H   H6        1.0  0.15151434230791241  0.5194238410275247  0.5188047531292598  1.0000
  H   H7        1.0  0.3484896790821495  0.019407335537550797  0.4811964629745944  1.0000
  H   H8        1.0  0.8484889126523711  0.9805877242657955  0.018805801938128808  1.0000
  H   H9        1.0  0.0030805619728439997  0.4667646855526541  0.9896237915749213  1.0000
  H   H10       1.0  0.5030919856050104  0.5332499299456188  0.5103774444350507  1.0000
  H   H11       1.0  0.9969142604342239  0.0332540623318565  0.48961658890701915  1.0000
  H   H12       1.0  0.49691545647669944  0.9667638710660427  0.010383538986104704  1.0000
  H   H13       1.0  0.7779907902000431  0.37773527436184645  0.8542423627751179  1.0000
  H   H14       1.0  0.27801387343166073  0.6222553185779988  0.6457651785242363  1.0000
  H   H15       1.0  0.22204519225579128  0.12225489612185918  0.3542362806700439  1.0000
  H   H16       1.0  0.722008080938025  0.8777409386636704  0.14576689534179377  1.0000
  H   H17       1.0  0.05672919482601199  0.49403600841719  0.8467469325882675  1.0000
  H   H18       1.0  0.5567386764582379  0.5059529912867332  0.6532512420132975  1.0000
  H   H19       1.0  0.9432890802163384  0.005973549147562101  0.34673995896075394  1.0000
  H   H20       1.0  0.4432791142157768  0.994045330644269  0.15325738446097156  1.0000
  H   H21       1.0  0.4655309010367858  0.5760228291310909  0.8407396300041585  1.0000
  H   H22       1.0  0.9655510783126148  0.4239671325829661  0.6592615812149136  1.0000
  H   H23       1.0  0.5344762404548575  0.9239530987158345  0.3407434312946479  1.0000
  H   H24       1.0  0.0344679039886628  0.07603585916741908  0.15926432108786062  1.0000
  H   H25       1.0  0.7172186974173869  0.6299960000974706  0.7735051980925933  1.0000
  H   H26       1.0  0.2172384162783203  0.3699815788690373  0.726489054622185  1.0000
  H   H27       1.0  0.28279211219287254  0.8699892310098819  0.2735098283835526  1.0000
  H   H28       1.0  0.7827768979636077  0.13000781931572902  0.22649786745783024  1.0000
  H   H29       1.0  0.5517528178098415  0.7869466228218583  0.89471005994416  1.0000
  H   H30       1.0  0.05175957148883009  0.21305523625645864  0.6052770203215019  1.0000
  H   H31       1.0  0.4482151973686542  0.7130469588620656  0.39472296836434856  1.0000
  H   H32       1.0  0.948238888022061  0.286951553360872  0.10528780784643031  1.0000
  H   H33       1.0  0.8679666644295096  0.7983123095236382  0.8581746545949616  1.0000
  H   H34       1.0  0.36798826149656355  0.2016784952742157  0.6418098554773553  1.0000
  H   H35       1.0  0.13200226364117637  0.7016848826042192  0.3581808175310784  1.0000
  H   H36       1.0  0.6320192267245658  0.298315030683348  0.14182434464826343  1.0000
  C   C1        1.0  0.1363532702629371  0.7410916203361282  0.9694297507932038  1.0000
  C   C2        1.0  0.6363506204695355  0.2589147281520354  0.530558864811205  1.0000
  C   C3        1.0  0.863618843192107  0.7589204648669182  0.4694443573617947  1.0000
  C   C4        1.0  0.3636516941230282  0.2410864289936185  0.03056312971545341  1.0000
  C   C5        1.0  0.8528633697782624  0.680949410154426  0.9608787457709411  1.0000
  C   C6        1.0  0.35286920150318224  0.3190542300643457  0.5391145721111528  1.0000
  C   C7        1.0  0.14711889898043748  0.8190574040906567  0.4608821416842589  1.0000
  C   C8        1.0  0.6471448291973517  0.18095219805244508  0.039122981437934405  1.0000
  C   C9        1.0  0.8417238103418112  0.5167344013104014  0.9565074858336333  1.0000
  C   C10       1.0  0.3417396574624759  0.48326814009179486  0.543491122087886  1.0000
  C   C11       1.0  0.1582585677213757  0.9832735325365078  0.4565038773267177  1.0000
  C   C12       1.0  0.6582742639331584  0.016739313588324502  0.043497124927910115  1.0000
  C   C13       1.0  0.8520460246525018  0.48474072458499523  0.8689240099445359  1.0000
  C   C14       1.0  0.3520660715134695  0.5152511152401401  0.631077494277065  1.0000
  C   C15       1.0  0.1479736845503297  0.015256796194769596  0.36891788972011613  1.0000
  C   C16       1.0  0.647950284841727  0.984747444998348  0.13108255456599247  1.0000
  C   C17       1.0  0.6771691547074069  0.601824162075765  0.8343415860352155  1.0000
  C   C18       1.0  0.17719673096640073  0.39816404849423737  0.6656556929938446  1.0000
  C   C19       1.0  0.3228282051303708  0.8981582700435381  0.3343436810635794  1.0000
  C   C20       1.0  0.8228240798249472  0.10183351159468401  0.1656615730525886  1.0000
  N   N1        1.0  0.7306052859284407  0.7311209448869463  0.884793560358837  1.0000
  N   N2        1.0  0.23060656504362242  0.2688748995456294  0.6151953964973061  1.0000
  N   N3        1.0  0.2693709302991891  0.7688716708181006  0.3848020685050316  1.0000
  N   N4        1.0  0.7693896583137771  0.2311274931258396  0.11520741570417672  1.0000
  N   N5        1.0  0.7383270458252369  0.13041766390165324  0.7938356224301162  1.0000
  N   N6        1.0  0.2383419488407839  0.8695792712820496  0.7061574065838843  1.0000
  N   N7        1.0  0.2616368781578445  0.3695828089046955  0.2938408932433704  1.0000
  N   N8        1.0  0.7616765083245552  0.6304184820475527  0.2061662725529416  1.0000
  O   O1        1.0  0.21747567855176436  0.8267937473251621  0.9159882488907699  1.0000
  O   O2        1.0  0.7174924316478126  0.1732020661967368  0.5840065877217813  1.0000
  O   O3        1.0  0.7824838518856935  0.6732114041295033  0.4159980881770907  1.0000
  O   O4        1.0  0.28251053591966263  0.3267952987851999  0.08401077756549573  1.0000
  O   O5        1.0  0.26776838319877777  0.7008223135608915  0.027802651745481907  1.0000
  O   O6        1.0  0.767775115652256  0.2991918629077688  0.472186376021952  1.0000
  O   O7        1.0  0.7322247054309868  0.7991945179470007  0.5278038514675956  1.0000
  O   O8        1.0  0.23224201355396454  0.2008184916178095  0.9721979620878759  1.0000
  O   O9        1.0  0.9457602870277739  0.13006846954482407  0.7520537022377456  1.0000
  O   O10       1.0  0.4457343843735159  0.8699182278323148  0.7479475600917881  1.0000
  O   O11       1.0  0.05425438864797631  0.3699270894459944  0.25205541529015824  1.0000
  O   O12       1.0  0.5542571805659834  0.6300576246507249  0.24795228602002348  1.0000
  O   O13       1.0  0.7425947126695435  0.0685130263047711  0.860396292038651  1.0000
  O   O14       1.0  0.24260414362985466  0.9314646123002034  0.6396101715131836  1.0000
  O   O15       1.0  0.2573933964303805  0.43146849728083925  0.3603937687077163  1.0000
  O   O16       1.0  0.7573921164600675  0.5685209852382656  0.13960522388924096  1.0000
  O   O17       1.0  0.5274452903668632  0.19142085153544744  0.770979583018921  1.0000
  O   O18       1.0  0.027415072671985296  0.8085648614454612  0.7290198364226017  1.0000
  O   O19       1.0  0.4725629475164795  0.3085680685462222  0.2709792505612186  1.0000
  O   O20       1.0  0.9725650354195139  0.6914197751662172  0.22901743272684175  1.0000
