data_image0
_chemical_formula_structural       Zn4H36C44N12O16
_chemical_formula_sum              "Zn4 H36 C44 N12 O16"
_cell_length_a       7.540862182000501
_cell_length_b       12.22271204516406
_cell_length_c       12.4392961601851
_cell_angle_alpha    92.89038855348483
_cell_angle_beta     89.99998979765147
_cell_angle_gamma    90.00004095014032

_space_group_name_H-M_alt    "P 1"
_space_group_IT_number       1

loop_
  _space_group_symop_operation_xyz
  'x, y, z'

loop_
  _atom_site_type_symbol
  _atom_site_label
  _atom_site_symmetry_multiplicity
  _atom_site_fract_x
  _atom_site_fract_y
  _atom_site_fract_z
  _atom_site_occupancy
  Zn  Zn1       1.0  0.830256799342152  0.7164897192923901  0.9271241236805067  1.0000
  Zn  Zn2       1.0  0.3302570348570342  0.7835106169525259  0.5728767943011589  1.0000
  Zn  Zn3       1.0  0.169743343082537  0.2835113719433976  0.0728757136261962  1.0000
  Zn  Zn4       1.0  0.6697444336749145  0.21648883746323117  0.4271237688677444  1.0000
  H   H1        1.0  0.8308404353973345  0.9703124076173208  0.9168584639039494  1.0000
  H   H2        1.0  0.3308403741148709  0.5296887449540859  0.5831408851265748  1.0000
  H   H3        1.0  0.16915970702793712  0.029689501249102104  0.08314060848173448  1.0000
  H   H4        1.0  0.669159768309349  0.4703115270920079  0.4168589131213594  1.0000
  H   H5        1.0  0.7295333613738821  0.1312501389491629  0.033830286038806896  1.0000
  H   H6        1.0  0.22953490607972782  0.3687492789499202  0.4661699562193532  1.0000
  H   H7        1.0  0.2704654549417925  0.8687501362147853  0.9661711201687877  1.0000
  H   H8        1.0  0.7704665624517447  0.6312493562761432  0.5338305678907814  1.0000
  H   H9        1.0  0.5881264052051235  0.09259113683567215  0.21373720370385735  1.0000
  H   H10       1.0  0.08812539530774899  0.4074082192804553  0.28626305075052727  1.0000
  H   H11       1.0  0.41187241111067163  0.9074091367692031  0.7862633985239281  1.0000
  H   H12       1.0  0.9118734210071082  0.5925904159450255  0.7137374733597213  1.0000
  H   H13       1.0  0.5636217101526881  0.9019574587942853  0.26813881257047  1.0000
  H   H14       1.0  0.0636230103893496  0.5980415960598789  0.231862364844538  1.0000
  H   H15       1.0  0.4363784322715318  0.09804281325180847  0.7318609856774714  1.0000
  H   H16       1.0  0.9363784581420092  0.40195704072525024  0.7681389632453912  1.0000
  H   H17       1.0  0.599735376498998  0.47960744405815336  0.24653252647159712  1.0000
  H   H18       1.0  0.0997352544046919  0.020392734760896796  0.25346696206047165  1.0000
  H   H19       1.0  0.4002647659253356  0.5203928264288747  0.7534664677965494  1.0000
  H   H20       1.0  0.9002635619106344  0.9796067196542848  0.7465336011085454  1.0000
  H   H21       1.0  0.583282468341089  0.7001828070448042  0.31467586367100603  1.0000
  H   H22       1.0  0.0832826896852836  0.7998170724707093  0.18532374314752073  1.0000
  H   H23       1.0  0.4167190001908594  0.2998166473709531  0.6853246994978973  1.0000
  H   H24       1.0  0.9167174527389363  0.20018319957539182  0.8146760551004206  1.0000
  H   H25       1.0  0.6910471097021542  0.47318864106542696  0.9471677238731285  1.0000
  H   H26       1.0  0.1910483801053857  0.0268119249134102  0.5528322852678683  1.0000
  H   H27       1.0  0.3089517066137546  0.5268116309803758  0.052832074374869385  1.0000
  H   H28       1.0  0.8089530884270247  0.9731883486920408  0.44716831695980364  1.0000
  H   H29       1.0  0.590801364424813  0.3938543928710557  0.04757715805983758  1.0000
  H   H30       1.0  0.09080128311717321  0.10614578360369362  0.4524231352225669  1.0000
  H   H31       1.0  0.40919877799952076  0.6061458776159723  0.9524218362083017  1.0000
  H   H32       1.0  0.9092001854152373  0.8938544900017578  0.5475774670051051  1.0000
  H   H33       1.0  0.15084909880069117  0.7160651557000222  0.7766907935495623  1.0000
  H   H34       1.0  0.6508490012425625  0.7839342814106872  0.7233092968671783  1.0000
  H   H35       1.0  0.849152369731364  0.28393429715666935  0.22330896563954636  1.0000
  H   H36       1.0  0.3491511411816576  0.2160659906354069  0.27669050138076295  1.0000
  C   C1        1.0  0.6833573382009135  0.834611669928371  0.12077064374297918  1.0000
  C   C2        1.0  0.18335734697118514  0.6653882564291391  0.3792305624038547  1.0000
  C   C3        1.0  0.31664413033161753  0.16538860211801415  0.8792291545048981  1.0000
  C   C4        1.0  0.8166427954527933  0.3346120187351005  0.620770843803676  1.0000
  C   C5        1.0  0.7703791614731088  0.9594600718353091  0.9950634725754807  1.0000
  C   C6        1.0  0.2703804618404392  0.5405394174998222  0.504936607531924  1.0000
  C   C7        1.0  0.2296209809514664  0.040541020959551595  0.004937168711023799  1.0000
  C   C8        1.0  0.7296210066915023  0.4594600369159422  0.4950639556369794  1.0000
  C   C9        1.0  0.7126744944593781  0.04819032227815259  0.06043128450634329  1.0000
  C   C10       1.0  0.21267481701020335  0.4518099074445132  0.43956899826468987  1.0000
  C   C11       1.0  0.28732432185699963  0.9518107689573512  0.9395685528004234  1.0000
  C   C12       1.0  0.7873239993051229  0.5481895469706686  0.5604315649043271  1.0000
  C   C13       1.0  0.6362680850617508  0.026783852029410592  0.15941245293939227  1.0000
  C   C14       1.0  0.13626448315005044  0.47321470904827106  0.3405893662637851  1.0000
  C   C15       1.0  0.3637307312535683  0.973215602385764  0.8405881102296247  1.0000
  C   C16       1.0  0.863730354839646  0.5267839292944814  0.6594127658062303  1.0000
  C   C17       1.0  0.6220633248121388  0.9193954246871812  0.19075506964007619  1.0000
  C   C18       1.0  0.12206060380028562  0.5806036556999459  0.3092461027346117  1.0000
  C   C19       1.0  0.37793681761196757  0.0806048489179858  0.8092455325876526  1.0000
  C   C20       1.0  0.8779368864066085  0.4193958002740104  0.6907552644142639  1.0000
  C   C21       1.0  0.6713838359240326  0.7189297170085139  0.14393830304598504  1.0000
  C   C22       1.0  0.1713853115044799  0.7810702009998135  0.3560612961738911  1.0000
  C   C23       1.0  0.32861630650006646  0.2810705565966529  0.8560622991817439  1.0000
  C   C24       1.0  0.8286161570275753  0.21892925185687764  0.6439384630152176  1.0000
  C   C25       1.0  0.6300316958088104  0.5535810747211443  0.2052723890504069  1.0000
  C   C26       1.0  0.1300320546844276  0.9464196444093885  0.2947272527948357  1.0000
  C   C27       1.0  0.3699684466152889  0.44641919888401554  0.794728213177322  1.0000
  C   C28       1.0  0.8699680877399131  0.05358062607763968  0.7052717414733038  1.0000
  C   C29       1.0  0.6194388020730414  0.664141133565728  0.23618764738571227  1.0000
  C   C30       1.0  0.11944036817630631  0.8358587601881381  0.26381115233453295  1.0000
  C   C31       1.0  0.380558688134208  0.33585831773102365  0.763811307823772  1.0000
  C   C32       1.0  0.8805584481391336  0.16414069266797066  0.7361886068546893  1.0000
  C   C33       1.0  0.7020260807150153  0.44832736506863563  0.03037823857571449  1.0000
  C   C34       1.0  0.20202460519688256  0.0516736791909125  0.4696220841725776  1.0000
  C   C35       1.0  0.2979740617096738  0.5516737261671522  0.9696215987309954  1.0000
  C   C36       1.0  0.7979742111190262  0.9483265928548973  0.5303777140754207  1.0000
  C   C37       1.0  0.8721604328525031  0.3824350488118  0.039902833838816286  1.0000
  C   C38       1.0  0.3721616886152077  0.11756524903331211  0.4600966311969826  1.0000
  C   C39       1.0  0.1278383834635193  0.617565221674937  0.96009616042938  1.0000
  C   C40       1.0  0.6278397799173233  0.8824350230130733  0.5399031670509017  1.0000
  C   C41       1.0  0.06817689806221952  0.7844719129646761  0.7501371702689281  1.0000
  C   C42       1.0  0.568178039633679  0.715528308774601  0.7498637703166648  1.0000
  C   C43       1.0  0.9318232443620007  0.21552835908141788  0.24986262797901296  1.0000
  C   C44       1.0  0.43182342889885206  0.284471963271784  0.2501360279312124  1.0000
  N   N1        1.0  0.7556859639684249  0.8555479163303443  0.02387489548434018  1.0000
  N   N2        1.0  0.2556872461412212  0.6444528577002372  0.4761247355233919  1.0000
  N   N3        1.0  0.2443141784573157  0.14445481172577246  0.9761242159601125  1.0000
  N   N4        1.0  0.7443142223913101  0.355547414346148  0.5238750627244853  1.0000
  N   N5        1.0  0.711901718635545  0.6455819359122543  0.06314076252847657  1.0000
  N   N6        1.0  0.2119019292588078  0.854417999798542  0.43685883319685087  1.0000
  N   N7        1.0  0.2880984237886751  0.354418336133847  0.9368590357194646  1.0000
  N   N8        1.0  0.7880995392732546  0.1455814530581492  0.5631409259922576  1.0000
  N   N9        1.0  0.6861778064532518  0.5460185102359459  0.10109545356117877  1.0000
  N   N10       1.0  0.1861781434675081  0.9539814142357913  0.3989041443827899  1.0000
  N   N11       1.0  0.3138210098623091  0.45398094106109715  0.898903501648249  1.0000
  N   N12       1.0  0.813820672847818  0.04601804017938349  0.601096418786227  1.0000
  O   O1        1.0  0.9949540944686532  0.41687404679958456  0.10418196842600477  1.0000
  O   O2        1.0  0.49495400315233695  0.08312712388494957  0.39581752507786655  1.0000
  O   O3        1.0  0.005046047955453001  0.5831262268055751  0.895818633801724  1.0000
  O   O4        1.0  0.5050474653801942  0.9168731481614357  0.6041822731700107  1.0000
  O   O5        1.0  0.8806791625269527  0.2936308007389883  0.9839619805160069  1.0000
  O   O6        1.0  0.3806819776757919  0.20636902890300482  0.5160379732107003  1.0000
  O   O7        1.0  0.11931965378895631  0.7063694713068214  0.016037817731984177  1.0000
  O   O8        1.0  0.6193208169644607  0.7936304255130437  0.48396258995814617  1.0000
  O   O9        1.0  0.9319587711434992  0.8121767225853698  0.8049097568796312  1.0000
  O   O10       1.0  0.43195753388427255  0.6878228389043383  0.6950911132717008  1.0000
  O   O11       1.0  0.06804269738903201  0.18782354946102223  0.19509004136824606  1.0000
  O   O12       1.0  0.5680426085394785  0.3121766139520616  0.3049086459174646  1.0000
  O   O13       1.0  0.11503232240304583  0.8312207139464718  0.6658216971704787  1.0000
  O   O14       1.0  0.6150320589804467  0.6687795282641954  0.8341792393739665  1.0000
  O   O15       1.0  0.8849678200207052  0.1687787389099284  0.33417806201868666  1.0000
  O   O16       1.0  0.3849694095520775  0.33122074378219674  0.16582055887391076  1.0000
