data_image0
_chemical_formula_structural       Ag4H32C20S8O12F12
_chemical_formula_sum              "Ag4 H32 C20 S8 O12 F12"
_cell_length_a       7.863945990010389
_cell_length_b       11.675494191508509
_cell_length_c       11.967326440045005
_cell_angle_alpha    114.14365609116122
_cell_angle_beta     90.00004912314255
_cell_angle_gamma    89.99981724118953

_space_group_name_H-M_alt    "P 1"
_space_group_IT_number       1

loop_
  _space_group_symop_operation_xyz
  'x, y, z'

loop_
  _atom_site_type_symbol
  _atom_site_label
  _atom_site_symmetry_multiplicity
  _atom_site_fract_x
  _atom_site_fract_y
  _atom_site_fract_z
  _atom_site_occupancy
  Ag  Ag1       1.0  0.4347005684575791  0.5298576806610596  0.3101134809334098  1.0000
  Ag  Ag2       1.0  0.06530237546131452  0.5298592440073903  0.8101140007886656  1.0000
  Ag  Ag3       1.0  0.5653007850625331  0.4701420617584443  0.6898873577475014  1.0000
  Ag  Ag4       1.0  0.9347002496869906  0.47013955981016403  0.18988646421102828  1.0000
  H   H1        1.0  0.8258089522363009  0.7740531927323526  0.2556928012019667  1.0000
  H   H2        1.0  0.674190739189072  0.7740526239447476  0.7556900265724382  1.0000
  H   H3        1.0  0.17419240128327124  0.22594654871115685  0.7443072014813977  1.0000
  H   H4        1.0  0.325810614331374  0.22594617694626604  0.2443079304348359  1.0000
  H   H5        1.0  0.597728814268443  0.7668052466738543  0.25171500243686046  1.0000
  H   H6        1.0  0.9022709060517046  0.7668079093205402  0.7517178205573387  1.0000
  H   H7        1.0  0.40227253925112894  0.23319449476964849  0.7482850002465042  1.0000
  H   H8        1.0  0.0977304474653593  0.23319276974745412  0.24828171980946934  1.0000
  H   H9        1.0  0.7437887460134647  0.9588364202396843  0.44008320972726267  1.0000
  H   H10       1.0  0.7562001437526789  0.9588375417735618  0.9400836609799513  1.0000
  H   H11       1.0  0.2562113358798754  0.0411633212052891  0.5599167929563293  1.0000
  H   H12       1.0  0.2437973948856964  0.041163137298845194  0.05991587938754609  1.0000
  H   H13       1.0  0.5809025507883304  0.8736056148272837  0.4756874604994367  1.0000
  H   H14       1.0  0.9190893293887966  0.8736091761663684  0.9756898102581744  1.0000
  H   H15       1.0  0.41909753110697073  0.12639318801721086  0.5243121685031582  1.0000
  H   H16       1.0  0.0809094808758033  0.12639150290456763  0.0243097301090955  1.0000
  H   H17       1.0  0.9665830786939721  0.8288135319330506  0.4781633292428679  1.0000
  H   H18       1.0  0.5334102869719928  0.828809536497488  0.9781607824734664  1.0000
  H   H19       1.0  0.03341700319685971  0.17118714713641478  0.5218362111241674  1.0000
  H   H20       1.0  0.46658852329653655  0.17118926537247597  0.021838010531809005  1.0000
  H   H21       1.0  0.828483168166315  0.877199124975263  0.6064061266656823  1.0000
  H   H22       1.0  0.671508213981916  0.8771981697476717  0.1064048653902602  1.0000
  H   H23       1.0  0.171516913724524  0.12280155409419541  0.3935934137013533  1.0000
  H   H24       1.0  0.328491867910877  0.12280157072130748  0.893594301295785  1.0000
  H   H25       1.0  0.6912280800296245  0.6730858944176815  0.5334392872887506  1.0000
  H   H26       1.0  0.8087717965869244  0.6730874373311906  0.033439097731495365  1.0000
  H   H27       1.0  0.3087720018637157  0.3269138470272992  0.46656071539484856  1.0000
  H   H28       1.0  0.19122955693067917  0.3269132427127985  0.9665612786328666  1.0000
  H   H29       1.0  0.9058455955528472  0.6296351310531348  0.4840973837326246  1.0000
  H   H30       1.0  0.5941563441789838  0.6296328722433914  0.9840955624973589  1.0000
  H   H31       1.0  0.0941570295909955  0.37036554898939034  0.5159029926315029  1.0000
  H   H32       1.0  0.4058437377132691  0.37036686724957946  0.015902768191139723  1.0000
  C   C1        1.0  0.7111922398922206  0.7680260796578295  0.30510515489640977  1.0000
  C   C2        1.0  0.7888050009956301  0.7680290029446653  0.8051063417958703  1.0000
  C   C3        1.0  0.2888078420025408  0.2319727222106564  0.6948936381086455  1.0000
  C   C4        1.0  0.2111963525233946  0.23197073752283603  0.1948928248899477  1.0000
  C   C5        1.0  0.7092859268544629  0.8663532092425114  0.4369032013354399  1.0000
  C   C6        1.0  0.7907072085216811  0.8663551895218191  0.9369040138696009  1.0000
  C   C7        1.0  0.2907154266651019  0.1336465322009914  0.5630968013479247  1.0000
  C   C8        1.0  0.2092916017429189  0.1336454895491173  0.06309552649766201  1.0000
  C   C9        1.0  0.836081201719175  0.8213000980931184  0.5072401670361516  1.0000
  C   C10       1.0  0.663914128954147  0.8212991623971463  0.007240580485500983  1.0000
  C   C11       1.0  0.1639188801736253  0.17869964237585378  0.4927589996498938  1.0000
  C   C12       1.0  0.3360846813149294  0.17869964044881206  0.9927590485173282  1.0000
  C   C13       1.0  0.7957277186833167  0.6840164387222242  0.47808929287393187  1.0000
  C   C14       1.0  0.7042714142518632  0.6840158022700392  0.9780881794297613  1.0000
  C   C15       1.0  0.2042736348362553  0.31598330272128544  0.5219107098094327  1.0000
  C   C16       1.0  0.2957299392691297  0.31598299959698284  0.02191061357505928  1.0000
  C   C17       1.0  0.2924038364654323  0.8456764807601401  0.7052401704515104  1.0000
  C   C18       1.0  0.20759112763872886  0.845675443981726  0.20524056820525513  1.0000
  C   C19       1.0  0.7075975170521789  0.1543241992838489  0.2947602059128513  1.0000
  C   C20       1.0  0.7924076826308878  0.1543233598402409  0.7947598967951208  1.0000
  S   S1        1.0  0.7201537537329301  0.6169595450502641  0.3183323309071824  1.0000
  S   S2        1.0  0.7798467579939441  0.6169596713195558  0.8183307279883394  1.0000
  S   S3        1.0  0.2798475997866419  0.38304019639323866  0.6816676717761823  1.0000
  S   S4        1.0  0.22015459552508787  0.38304006914795236  0.1816684386974714  1.0000
  S   S5        1.0  0.27874562072868514  0.6781786175310102  0.594418093160229  1.0000
  S   S6        1.0  0.22124998659571563  0.6781775481665305  0.09441765000816096  1.0000
  S   S7        1.0  0.721253189535915  0.3218220615399261  0.4055814472070338  1.0000
  S   S8        1.0  0.7787513669238563  0.3218221932769723  0.9055823526752037  1.0000
  O   O1        1.0  0.2528692039893059  0.6856538768609325  0.4762367264544665  1.0000
  O   O2        1.0  0.24712940890977825  0.6856540817740464  0.9762376432850672  1.0000
  O   O3        1.0  0.7471321495308061  0.31434586555857885  0.523764112226452  1.0000
  O   O4        1.0  0.7528694013628795  0.314343785399437  0.023764120029419245  1.0000
  O   O5        1.0  0.13400544976276046  0.6300492596858333  0.6379622861423826  1.0000
  O   O6        1.0  0.3659942554846296  0.6300506721207737  0.1379637480170288  1.0000
  O   O7        1.0  0.8659946321305726  0.36995048175914036  0.3620377165412095  1.0000
  O   O8        1.0  0.6340058264058683  0.3699509484771824  0.8620386740236512  1.0000
  O   O9        1.0  0.4454254234896594  0.6296102753095026  0.6078001033206704  1.0000
  O   O10       1.0  0.05457424452907131  0.629608653088205  0.10779934638407702  1.0000
  O   O11       1.0  0.5545759300279514  0.3703904047344934  0.3922002730436844  1.0000
  O   O12       1.0  0.9454232941168144  0.37038921311074796  0.892201580933083  1.0000
  F   F1        1.0  0.312493042003112  0.8547198137011877  0.8212918020269911  1.0000
  F   F2        1.0  0.1874982159011793  0.8547197620201528  0.3212925806815504  1.0000
  F   F3        1.0  0.687505768263996  0.1452799277452641  0.1787082006568284  1.0000
  F   F4        1.0  0.8125005943645078  0.14528091900278634  0.6787086316808129  1.0000
  F   F5        1.0  0.15010997884033372  0.910467962402315  0.7026747170109644  1.0000
  F   F6        1.0  0.34988594888698554  0.9104656586865258  0.20267552594710034  1.0000
  F   F7        1.0  0.8498888314233923  0.0895336572211107  0.2973268690323962  1.0000
  F   F8        1.0  0.6501128613835049  0.0895322045829516  0.797322893377185  1.0000
  F   F9        1.0  0.42730669607072974  0.9031068756873208  0.678627482501426  1.0000
  F   F10       1.0  0.07268923493366232  0.9031061491625181  0.17862625673789273  1.0000
  F   F11       1.0  0.5726921141938702  0.09689380338361529  0.3213720578658439  1.0000
  F   F12       1.0  0.9273095753354141  0.09689265368344725  0.8213733722649366  1.0000
