data_image0
_chemical_formula_structural       Cu2H24C26S4N4O8
_chemical_formula_sum              "Cu2 H24 C26 S4 N4 O8"
_cell_length_a       4.158441161361744
_cell_length_b       8.524683244933396
_cell_length_c       21.208221456992806
_cell_angle_alpha    93.51882759907323
_cell_angle_beta     90.08198166020301
_cell_angle_gamma    104.02544877905942

_space_group_name_H-M_alt    "P 1"
_space_group_IT_number       1

loop_
  _space_group_symop_operation_xyz
  'x, y, z'

loop_
  _atom_site_type_symbol
  _atom_site_label
  _atom_site_symmetry_multiplicity
  _atom_site_fract_x
  _atom_site_fract_y
  _atom_site_fract_z
  _atom_site_occupancy
  Cu  Cu1       1.0  0.4999994022288448  0.49999926122436017  0.4999992349213399  1.0000
  Cu  Cu2       1.0  0.9999958583821071  0.5000007597667278  8.003985598996516e-07  1.0000
  H   H1        1.0  0.3988905864148506  0.8155266325962387  0.4671409437366591  1.0000
  H   H2        1.0  0.5894064036203658  0.1840190162769062  0.0325815054086149  1.0000
  H   H3        1.0  0.6011070606295306  0.18447919515730146  0.5328605224494608  1.0000
  H   H4        1.0  0.4105960358036285  0.8159819567843487  0.9674193786978189  1.0000
  H   H5        1.0  0.3381455373312789  0.9507355898991534  0.370514618357383  1.0000
  H   H6        1.0  0.3901061707316699  0.049548124668064006  0.12906132960053177  1.0000
  H   H7        1.0  0.6618490923594536  0.0492690158594655  0.6294858763642706  1.0000
  H   H8        1.0  0.6098920550193654  0.9504540504330664  0.8709386384138751  1.0000
  H   H9        1.0  0.6259173843206228  0.5518969729813678  0.2657409343084466  1.0000
  H   H10       1.0  0.06949964642070941  0.4494812378584427  0.23452691868219228  1.0000
  H   H11       1.0  0.37408867899854675  0.448111269383233  0.7342601168655418  1.0000
  H   H12       1.0  0.9304997821773852  0.5505136888280617  0.7654747695044148  1.0000
  H   H13       1.0  0.6644392171737935  0.4322876890303604  0.3691653618255372  1.0000
  H   H14       1.0  0.22710131469951017  0.5695610512263655  0.13125590623272385  1.0000
  H   H15       1.0  0.3355608250682068  0.5677181264114638  0.6308351613742074  1.0000
  H   H16       1.0  0.7729017261480138  0.43043629762757263  0.8687458379598139  1.0000
  H   H17       1.0  0.0990288013276057  0.011177440167436698  0.2083770512277353  1.0000
  H   H18       1.0  0.0872572053705698  0.989160630474068  0.29094049795482846  1.0000
  H   H19       1.0  0.9009658121740003  0.98882231276626  0.791622860780741  1.0000
  H   H20       1.0  0.9127325995622969  0.0108391243269779  0.7090594134201493  1.0000
  H   H21       1.0  0.8095320971100293  0.1495581215379502  0.4222386150812553  1.0000
  H   H22       1.0  0.6599275516203846  0.8515602746613524  0.0771933497212771  1.0000
  H   H23       1.0  0.19049789687819185  0.8504354733688116  0.5777540879987695  1.0000
  H   H24       1.0  0.3400592586757086  0.1484382865898723  0.9228079484470509  1.0000
  C   C1        1.0  0.44605229929302237  0.7613268714069434  0.4213168530956749  1.0000
  C   C2        1.0  0.6876727082566275  0.23880329691261437  0.07853657525794937  1.0000
  C   C3        1.0  0.5539441306995485  0.23867652186743973  0.5786836140981391  1.0000
  C   C4        1.0  0.3123327212607592  0.7611988640094438  0.9214624504035737  1.0000
  C   C5        1.0  0.4103511728483014  0.8356643175410029  0.366081808075485  1.0000
  C   C6        1.0  0.5763088329075216  0.1646977203556474  0.1336775056548873  1.0000
  C   C7        1.0  0.5896404485755297  0.16433907760073643  0.6339186584848304  1.0000
  C   C8        1.0  0.42369359487071984  0.835298405569702  0.8663232673899299  1.0000
  C   C9        1.0  0.462215206718149  0.7579052853271833  0.30804325610144184  1.0000
  C   C10       1.0  0.7035487857661591  0.24262120524587516  0.19185629390504735  1.0000
  C   C11       1.0  0.5377800314984853  0.2421005376710141  0.6919577381163717  1.0000
  C   C12       1.0  0.2964506453909336  0.7573785571984997  0.8081445620400485  1.0000
  C   C13       1.0  0.5699840763338668  0.6136604821338737  0.3093285685444726  1.0000
  C   C14       1.0  0.953553210020516  0.38732663792901434  0.19081055959559726  1.0000
  C   C15       1.0  0.4300189741750273  0.38634654392483714  0.6906719828166101  1.0000
  C   C16       1.0  0.046447417455887305  0.6126707004805636  0.8091902409770665  1.0000
  C   C17       1.0  0.5967042131191534  0.5473770896375428  0.3665099043701473  1.0000
  C   C18       1.0  0.046807712391434136  0.453801586362566  0.13371637098694578  1.0000
  C   C19       1.0  0.4032868179522779  0.4526251110207014  0.6334919493002714  1.0000
  C   C20       1.0  0.9531959369819913  0.5461969797309577  0.866285872701752  1.0000
  C   C21       1.0  0.24833384841065248  0.00016911254673599983  0.24975939829596425  1.0000
  C   C22       1.0  0.7516583608065801  0.999830641320635  0.7502405133957593  1.0000
  C   C23       1.0  0.06538956266631861  0.2234097959789949  0.43186409541845433  1.0000
  C   C24       1.0  0.84222338437241  0.7775403939276374  0.06779997231026869  1.0000
  C   C25       1.0  0.9346284209711869  0.7765789849053492  0.5681308532740273  1.0000
  C   C26       1.0  0.1577586037248224  0.22245815212388456  0.9321999102698654  1.0000
  S   S1        1.0  0.3845863288476536  0.816568183787396  0.23321314766568688  1.0000
  S   S2        1.0  0.5670565274514345  0.1835687594267768  0.26653844133279847  1.0000
  S   S3        1.0  0.6154058894563335  0.1834315814580094  0.7667877073291647  1.0000
  S   S4        1.0  0.43293808605017153  0.8164309935069127  0.7334614706756779  1.0000
  N   N1        1.0  0.5284844708325451  0.6181727714209302  0.42181634966221526  1.0000
  N   N2        1.0  0.9109490630482567  0.38239038802433367  0.07821919144943479  1.0000
  N   N3        1.0  0.4715107673840889  0.3818330515772672  0.5781846445555912  1.0000
  N   N4        1.0  0.08905638464263166  0.6176117956538076  0.9217817208183446  1.0000
  O   O1        1.0  0.07362653186260104  0.35025035152684586  0.4689213652657711  1.0000
  O   O2        1.0  0.7242391201001084  0.6505412901929901  0.030823125578869792  1.0000
  O   O3        1.0  0.926389669646568  0.64973966459781  0.5310754975608133  1.0000
  O   O4        1.0  0.2757410676952787  0.3494584683427746  0.9691767845291108  1.0000
  O   O5        1.0  0.30651068464917586  0.1811023130710367  0.4072248260964669  1.0000
  O   O6        1.0  0.12541657682940144  0.8198901036770535  0.09261472668534758  1.0000
  O   O7        1.0  0.6935229391873535  0.8188840609325254  0.5927719557303275  1.0000
  O   O8        1.0  0.8745690118715074  0.18010601740599697  0.9073851008391001  1.0000
