data_image0
_chemical_formula_structural       Al4H20C42O20
_chemical_formula_sum              "Al4 H20 C42 O20"
_cell_length_a       6.846831020566421
_cell_length_b       16.86115787185942
_cell_length_c       18.365543344362685
_cell_angle_alpha    74.26059687198688
_cell_angle_beta     89.57795338960567
_cell_angle_gamma    90.73169543182092

_space_group_name_H-M_alt    "P 1"
_space_group_IT_number       1

loop_
  _space_group_symop_operation_xyz
  'x, y, z'

loop_
  _atom_site_type_symbol
  _atom_site_label
  _atom_site_symmetry_multiplicity
  _atom_site_fract_x
  _atom_site_fract_y
  _atom_site_fract_z
  _atom_site_occupancy
  Al  Al1       1.0  0.12212355956432219  0.49812613085838114  0.4996879702260345  1.0000
  Al  Al2       1.0  0.6225478689810373  0.4985293436064566  0.5008146669752734  1.0000
  Al  Al3       1.0  0.6072173712122364  0.9982447229801964  0.9996160598976406  1.0000
  Al  Al4       1.0  0.1068489854358461  0.9982500874586508  0.9985201190710529  1.0000
  H   H1        1.0  0.5673935571875575  0.6888450124225401  0.3186062523680491  1.0000
  H   H2        1.0  0.3047220878481624  0.8501756533952759  0.20551674295920463  1.0000
  H   H3        1.0  0.30662031390951217  0.777518228623947  0.1508140125966122  1.0000
  H   H4        1.0  0.08577660652267842  0.2683223939525235  0.6609878617876604  1.0000
  H   H5        1.0  0.082780864146045  0.14890935849501838  0.7757621661395434  1.0000
  H   H6        1.0  0.8365889045460404  0.194535834870031  0.8083677894658052  1.0000
  H   H7        1.0  0.75635348330092  0.25392025999892814  0.8692437751776442  1.0000
  H   H8        1.0  0.8389052150384657  0.3218883651978858  0.6990499677653405  1.0000
  H   H9        1.0  0.48123218935018747  0.451915627941503  0.7430013600181269  1.0000
  H   H10       1.0  0.5416404793543422  0.5686646812805661  0.7982855464600365  1.0000
  H   H11       1.0  0.8607128787161711  0.582966312403535  0.8581280569225528  1.0000
  H   H12       1.0  0.12409633773727079  0.4817973133962852  0.8582040008268097  1.0000
  H   H13       1.0  0.06349373100782431  0.3655114446056588  0.8022479557616152  1.0000
  H   H14       1.0  0.5504654673465055  0.8073244910248153  0.2018735962573075  1.0000
  H   H15       1.0  0.3212459170374515  0.7334818269595971  0.32569184590222733  1.0000
  H   H16       1.0  0.32564976541637947  0.6601950996209426  0.27109886645877895  1.0000
  H   H17       1.0  0.37369482167241586  0.6009295765223827  0.503602364502747  1.0000
  H   H18       1.0  0.868186449633285  0.3968317376456626  0.49358786191254483  1.0000
  H   H19       1.0  0.35408405513919655  0.8914165082236354  0.008376581369887472  1.0000
  H   H20       1.0  0.8606390909660321  0.10224456315297911  0.9998173169451052  1.0000
  C   C1        1.0  0.370660791741436  0.4147312941278401  0.41276610282638165  1.0000
  C   C2        1.0  0.36941524387967917  0.3847673310599974  0.6121103824129364  1.0000
  C   C3        1.0  0.8757967208246455  0.5846556621264797  0.5847688711733242  1.0000
  C   C4        1.0  0.8760916945562299  0.6113093829574796  0.3875422040637915  1.0000
  C   C5        1.0  0.03998521563884339  0.7166476419338895  0.27741976066248947  1.0000
  C   C6        1.0  0.8748934309873773  0.6805888947291054  0.3174910924634133  1.0000
  C   C7        1.0  0.6978426189763098  0.7155379736889387  0.28774743395586466  1.0000
  C   C8        1.0  0.6886101051415282  0.7811391537769764  0.2227146703549466  1.0000
  C   C9        1.0  0.8566718758609965  0.8165393893316023  0.1819152944656892  1.0000
  C   C10       1.0  0.0302947372893811  0.7817512710167733  0.21187248435816033  1.0000
  C   C11       1.0  0.2471176656350735  0.7902279289590411  0.2021057125812149  1.0000
  C   C12       1.0  0.25849428036086414  0.7168405745005374  0.2769828355447075  1.0000
  C   C13       1.0  0.8553364881175154  0.8688444914691686  0.8561399766748324  1.0000
  C   C14       1.0  0.8601618426177494  0.8278838256893124  0.810236654395233  1.0000
  C   C15       1.0  0.8656354885554264  0.7819717709235833  0.7610611318444499  1.0000
  C   C16       1.0  0.8709936846417962  0.7381436480379622  0.7171282034118107  1.0000
  C   C17       1.0  0.8753291459769342  0.6884244576752395  0.6712777365698984  1.0000
  C   C18       1.0  0.8775657079136822  0.6410272343979032  0.631136010210355  1.0000
  C   C19       1.0  0.37174749856175987  0.3640684912030352  0.3609626507932334  1.0000
  C   C20       1.0  0.3706171972761254  0.31976034408317133  0.3178567155772072  1.0000
  C   C21       1.0  0.36841948943823866  0.27122212792078676  0.27084508850184363  1.0000
  C   C22       1.0  0.365150799201146  0.22654975661285456  0.22760288137615703  1.0000
  C   C23       1.0  0.3617267168392927  0.17823959430477032  0.18037243138182651  1.0000
  C   C24       1.0  0.35863409421499864  0.13418863587912006  0.13706068113177852  1.0000
  C   C25       1.0  0.5283548831171886  0.29666642454184006  0.7297734739172057  1.0000
  C   C26       1.0  0.3696709612016845  0.31391488499386366  0.6810685439169079  1.0000
  C   C27       1.0  0.2097576870580866  0.25802155495095036  0.699068442103439  1.0000
  C   C28       1.0  0.2081713499439175  0.19095174676572674  0.7631729719519742  1.0000
  C   C29       1.0  0.36792137646203565  0.1746497600886485  0.8127430530140104  1.0000
  C   C30       1.0  0.5282538236889138  0.22784829708814414  0.7925566103222155  1.0000
  C   C31       1.0  0.7349689911134972  0.24227535486193832  0.8138525717844517  1.0000
  C   C32       1.0  0.7346436153735425  0.3232581633629438  0.7444851985225328  1.0000
  C   C33       1.0  0.362091477531628  0.10735045889255454  0.8842429828027748  1.0000
  C   C34       1.0  0.3587064611679978  0.08361428523976142  0.08513333009722861  1.0000
  C   C35       1.0  0.851976870582689  0.885854541847259  0.1121174200944139  1.0000
  C   C36       1.0  0.8549336984512834  0.9157522137354164  0.9109841971024013  1.0000
  C   C37       1.0  0.7674599014216453  0.4002623535548225  0.7696308458390249  1.0000
  C   C38       1.0  0.6222140893696135  0.4581703799182081  0.7683355809829211  1.0000
  C   C39       1.0  0.656063703630906  0.5237894200305179  0.799883166557187  1.0000
  C   C40       1.0  0.8352435672201182  0.532197046004356  0.8329495505525346  1.0000
  C   C41       1.0  0.9829276383827831  0.4756307879035405  0.8328983820254338  1.0000
  C   C42       1.0  0.9492658865975727  0.41046430860195227  0.8012311477380651  1.0000
  O   O1        1.0  0.5371931800156133  0.41455192970756377  0.5876375599340307  1.0000
  O   O2        1.0  0.2032046544204675  0.4361899986076879  0.4306298317500109  1.0000
  O   O3        1.0  0.04239981389556391  0.5864242647451549  0.41489806391420103  1.0000
  O   O4        1.0  0.20440593479124664  0.40855711900023556  0.5828822537806745  1.0000
  O   O5        1.0  0.041817415375561516  0.5611096646229046  0.5675362160248058  1.0000
  O   O6        1.0  0.5367200522593762  0.43202326942947883  0.4358076564488942  1.0000
  O   O7        1.0  0.37329167168741156  0.5472972155445391  0.49369575106010194  1.0000
  O   O8        1.0  0.7081446438741779  0.5650959772643916  0.5649116710941017  1.0000
  O   O9        1.0  0.7091542921971906  0.5832952226310584  0.41490215844100226  1.0000
  O   O10       1.0  0.8708574918389401  0.448909529266409  0.5065038724263289  1.0000
  O   O11       1.0  0.19220746326206484  0.0658422286892346  0.06274454866869661  1.0000
  O   O12       1.0  0.5262983302500288  0.08449949364175782  0.9147280566918712  1.0000
  O   O13       1.0  0.6883266460883918  0.9345547120962936  0.9321075020329134  1.0000
  O   O14       1.0  0.5261165830145417  0.06271808862923932  0.06665426141886853  1.0000
  O   O15       1.0  0.6856856193207294  0.9113482183414733  0.08523208884732007  1.0000
  O   O16       1.0  0.1935843374632356  0.08052930200184252  0.9104633309328776  1.0000
  O   O17       1.0  0.35558693675137226  0.949282057737392  0.006910695882687845  1.0000
  O   O18       1.0  0.0189456961333789  0.9133009342424575  0.08410878128880474  1.0000
  O   O19       1.0  0.0222612036015519  0.9327567761609573  0.9330557202725064  1.0000
  O   O20       1.0  0.8587195219819678  0.04755555293951371  0.9921953941977081  1.0000
