data_image0
_chemical_formula_structural       Ag4H32C48N8O8
_chemical_formula_sum              "Ag4 H32 C48 N8 O8"
_cell_length_a       6.779014662676843
_cell_length_b       13.252956237604673
_cell_length_c       14.148571732806474
_cell_angle_alpha    117.93683014866981
_cell_angle_beta     100.21442405126324
_cell_angle_gamma    89.97531120328209

_space_group_name_H-M_alt    "P 1"
_space_group_IT_number       1

loop_
  _space_group_symop_operation_xyz
  'x, y, z'

loop_
  _atom_site_type_symbol
  _atom_site_label
  _atom_site_symmetry_multiplicity
  _atom_site_fract_x
  _atom_site_fract_y
  _atom_site_fract_z
  _atom_site_occupancy
  Ag  Ag1       1.0  0.8906714156670502  0.39494876666993417  0.9238688269104289  1.0000
  Ag  Ag2       1.0  0.6095093953625507  0.47108415611538124  0.07612289753642902  1.0000
  Ag  Ag3       1.0  0.10932335755247637  0.6050550732839924  0.07613012774122303  1.0000
  Ag  Ag4       1.0  0.3904871413065861  0.5289128356114431  0.9238760752378637  1.0000
  H   H1        1.0  0.6598027623508924  0.48975179516019535  0.6704013480625549  1.0000
  H   H2        1.0  0.8399265653755774  0.8194442837163292  0.32960819359718835  1.0000
  H   H3        1.0  0.34019878142967724  0.5102477388472764  0.32959564101111744  1.0000
  H   H4        1.0  0.16007177165900535  0.1805535091267956  0.6703835125539898  1.0000
  H   H5        1.0  0.5310945489828993  0.7726014016379776  0.6084211282639345  1.0000
  H   H6        1.0  0.9686545931530472  0.1642445036422018  0.3916111109125567  1.0000
  H   H7        1.0  0.46891828239110805  0.2273929021836381  0.3915654177452623  1.0000
  H   H8        1.0  0.03134206371918678  0.8357515358627339  0.6083740302398865  1.0000
  H   H9        1.0  0.6905727344321874  0.9108223307695624  0.8028307194891441  1.0000
  H   H10       1.0  0.8092172572983001  0.10803457430721859  0.19717377584002801  1.0000
  H   H11       1.0  0.3094377167751644  0.089175399415744  0.19715568409434786  1.0000
  H   H12       1.0  0.19077590497523994  0.8919589157050821  0.8028127746571059  1.0000
  H   H13       1.0  0.8419307726935013  0.8335289196818322  0.9282588954648932  1.0000
  H   H14       1.0  0.6578652914730582  0.9053717231789875  0.07174971632402112  1.0000
  H   H15       1.0  0.1580791537951498  0.1664748382284458  0.071732900186916  1.0000
  H   H16       1.0  0.3421265335733422  0.09462262206838548  0.9282363780243373  1.0000
  H   H17       1.0  0.6421271953550587  0.34059914350874015  0.6944831106842744  1.0000
  H   H18       1.0  0.8579840543509363  0.6460862658740537  0.3054805983789207  1.0000
  H   H19       1.0  0.35786738850798355  0.6594038533839565  0.3055175821923939  1.0000
  H   H20       1.0  0.14201117323284507  0.353911571164147  0.6945165028059749  1.0000
  H   H21       1.0  0.4841730977918387  0.18510481579514962  0.5114404673156018  1.0000
  H   H22       1.0  0.0158531967227376  0.6736424493484493  0.48855608607492945  1.0000
  H   H23       1.0  0.5158274939094695  0.8148981671351049  0.4885600512983145  1.0000
  H   H24       1.0  0.9841567632045308  0.3263536344091875  0.5114394557210816  1.0000
  H   H25       1.0  0.6272851631261245  0.9460897289898681  0.6363117634672335  1.0000
  H   H26       1.0  0.872808049690363  0.3097811039016349  0.36372410208805667  1.0000
  H   H27       1.0  0.3727168080149922  0.053912383819763904  0.3636870881345261  1.0000
  H   H28       1.0  0.12719756205517999  0.6902158445532153  0.6362714245507064  1.0000
  H   H29       1.0  0.7749208261908577  0.11270605711087706  0.8138538954600991  1.0000
  H   H30       1.0  0.7252873276302764  0.29885494070013147  0.18614815361578957  1.0000
  H   H31       1.0  0.22508113087936713  0.8872960606606097  0.18614566386197132  1.0000
  H   H32       1.0  0.2747167575316495  0.7011420199285608  0.813848655099207  1.0000
  C   C1        1.0  0.8447310058578024  0.6098265196409046  0.8818499786350673  1.0000
  C   C2        1.0  0.6552389761456536  0.7280111422278636  0.11815398076138449  1.0000
  C   C3        1.0  0.15526857104576655  0.39017902449428016  0.11814943826129105  1.0000
  C   C4        1.0  0.34475585221935007  0.2719841060844672  0.8818398424548024  1.0000
  C   C5        1.0  0.7582097155989583  0.6572890112291389  0.807045856920901  1.0000
  C   C6        1.0  0.7416716879897363  0.8503062921780328  0.19295308868006344  1.0000
  C   C7        1.0  0.2417876693563698  0.342712230536776  0.1929493787705141  1.0000
  C   C8        1.0  0.25831914276474066  0.1496915168776738  0.8070386583694785  1.0000
  C   C9        1.0  0.6695427138690417  0.581652221858242  0.6992056482715228  1.0000
  C   C10       1.0  0.8302422719927804  0.8825348587685938  0.3008075000232111  1.0000
  C   C11       1.0  0.3304604754971833  0.4183481678458562  0.30079185910246753  1.0000
  C   C12       1.0  0.16974557594889456  0.11746294982556547  0.6991832725772299  1.0000
  C   C13       1.0  0.5927046005765034  0.6235436474180815  0.6270458335802261  1.0000
  C   C14       1.0  0.9071152194888581  0.9965748652933398  0.3729863670399071  1.0000
  C   C15       1.0  0.407297923425105  0.3764524277428975  0.37294621051258053  1.0000
  C   C16       1.0  0.09288057616436866  0.0034255009285573  0.6270055194699468  1.0000
  C   C17       1.0  0.5991913562116264  0.7423876916918958  0.6651443236852189  1.0000
  C   C18       1.0  0.9006249573471407  0.0773056153202489  0.33487575711051687  1.0000
  C   C19       1.0  0.4008159714740244  0.2576100876503418  0.3348481826523013  1.0000
  C   C20       1.0  0.09936986458294673  0.9226887254268304  0.6651106039666247  1.0000
  C   C21       1.0  0.6868659695891279  0.8185051530680595  0.7733957563867194  1.0000
  C   C22       1.0  0.8129952990880226  0.0451509557844219  0.22661820444995587  1.0000
  C   C23       1.0  0.31314295503459977  0.18149258929108916  0.22659192927300606  1.0000
  C   C24       1.0  0.1869968061751165  0.9548451103183523  0.7733693674905667  1.0000
  C   C25       1.0  0.7691969795944047  0.7761618907556311  0.8438999759145462  1.0000
  C   C26       1.0  0.7306779930305608  0.9323185105669579  0.15610092752443436  1.0000
  C   C27       1.0  0.23080646948275066  0.2238393172004506  0.156092254632874  1.0000
  C   C28       1.0  0.2693090142608979  0.06767413546100438  0.8438854122995282  1.0000
  C   C29       1.0  0.635483974947533  0.2511783840170735  0.6770869651929915  1.0000
  C   C30       1.0  0.8646265699972131  0.5740769903158381  0.32289489208130123  1.0000
  C   C31       1.0  0.3645133255824503  0.7488228875199282  0.3229125168202953  1.0000
  C   C32       1.0  0.13537510685627296  0.42592340660025496  0.6771031896486122  1.0000
  C   C33       1.0  0.547963025888343  0.16282296623029424  0.574559810325198  1.0000
  C   C34       1.0  0.952110439197831  0.5882661925710336  0.4254514941214751  1.0000
  C   C35       1.0  0.45203606737111796  0.8371800189501072  0.42544057492433046  1.0000
  C   C36       1.0  0.04789337981824806  0.4117290422404166  0.5745431292810538  1.0000
  C   C37       1.0  0.5432021560011222  0.048459081921457384  0.5544723078270907  1.0000
  C   C38       1.0  0.9568232024464077  0.4939669659235193  0.4455250808588715  1.0000
  C   C39       1.0  0.45679514452886844  0.9515421896155444  0.4455271741862035  1.0000
  C   C40       1.0  0.04318104393021827  0.5060308476901055  0.5544714050717374  1.0000
  C   C41       1.0  0.6252132080310773  0.031477151365535895  0.6437112251622921  1.0000
  C   C42       1.0  0.8748677402414057  0.38775357494269974  0.3563010632869634  1.0000
  C   C43       1.0  0.3747900862662874  0.968524111170879  0.35628879030855387  1.0000
  C   C44       1.0  0.12513622591848156  0.612242517815524  0.6436939450514886  1.0000
  C   C45       1.0  0.7092634470711728  0.1247131053213337  0.7440009758470438  1.0000
  C   C46       1.0  0.7908793172468122  0.38071250480047064  0.2560064858798796  1.0000
  C   C47       1.0  0.29073850999905193  0.8752890124501533  0.2559985834750266  1.0000
  C   C48       1.0  0.20912476791511375  0.6192844558282218  0.743990322835117  1.0000
  N   N1        1.0  0.5008241456785356  0.5534832548434493  0.5162268950329434  1.0000
  N   N2        1.0  0.9990231191217089  0.0372860149065133  0.48380038722672947  1.0000
  N   N3        1.0  0.4991826983630147  0.44651196554400485  0.4837665796577398  1.0000
  N   N4        1.0  0.0009723963147791888  0.9627126304599827  0.5161900216909672  1.0000
  N   N5        1.0  0.7172250283060603  0.23331047056666415  0.7611438420324887  1.0000
  N   N6        1.0  0.7829279352270291  0.4721530918588713  0.23885271357973895  1.0000
  N   N7        1.0  0.28277256651155364  0.7666925168638912  0.2388564098526443  1.0000
  N   N8        1.0  0.21707000902370044  0.527843019823642  0.7611431767417757  1.0000
  O   O1        1.0  0.7822775873070211  0.5062597845167361  0.8504250265723529  1.0000
  O   O2        1.0  0.7176991817678837  0.6558917098182063  0.14964782989526523  1.0000
  O   O3        1.0  0.21772617656357335  0.49374404193630983  0.14957472826564094  1.0000
  O   O4        1.0  0.2822993651289919  0.34410782868955897  0.8503488924496311  1.0000
  O   O5        1.0  0.9722356242629786  0.6757057523601588  0.9671815376875232  1.0000
  O   O6        1.0  0.5277721659397868  0.7085243690299305  0.03278838054828971  1.0000
  O   O7        1.0  0.027761439401018592  0.3243023552301025  0.032816644126896194  1.0000
  O   O8        1.0  0.47222101683956186  0.2914700235857736  0.967204924367586  1.0000
