data_image0
_chemical_formula_structural       Cu8H24C16N32
_chemical_formula_sum              "Cu8 H24 C16 N32"
_cell_length_a       8.235965384395023
_cell_length_b       9.53314164302663
_cell_length_c       10.283844561013716
_cell_angle_alpha    89.99987608525858
_cell_angle_beta     90.00017374862668
_cell_angle_gamma    108.12735779722078

_space_group_name_H-M_alt    "P 1"
_space_group_IT_number       1

loop_
  _space_group_symop_operation_xyz
  'x, y, z'

loop_
  _atom_site_type_symbol
  _atom_site_label
  _atom_site_symmetry_multiplicity
  _atom_site_fract_x
  _atom_site_fract_y
  _atom_site_fract_z
  _atom_site_occupancy
  Cu  Cu1       1.0  0.31089684875052376  0.013927078455381502  0.6172131176626293  1.0000
  Cu  Cu2       1.0  0.18910427041835481  0.4860746548725459  0.11721173937367269  1.0000
  Cu  Cu3       1.0  0.6891042119820129  0.9860756207137629  0.3827866472098549  1.0000
  Cu  Cu4       1.0  0.8108971641258551  0.5139258193703  0.8827870531025396  1.0000
  Cu  Cu5       1.0  0.002079394538775076  0.8412575222364539  0.3840189561483028  1.0000
  Cu  Cu6       1.0  0.4979206409382615  0.6587448229035147  0.8840195255815217  1.0000
  Cu  Cu7       1.0  0.9979228738461147  0.1587451592321258  0.6159788639277082  1.0000
  Cu  Cu8       1.0  0.5020775875652889  0.3412568080556326  0.11598218408654762  1.0000
  H   H1        1.0  0.5438217040933607  0.27176859194953806  0.4171187124557889  1.0000
  H   H2        1.0  0.9561817328682451  0.2282318045409825  0.917118066518327  1.0000
  H   H3        1.0  0.45618177194546666  0.7282340718177737  0.5828781352227352  1.0000
  H   H4        1.0  0.043820909329895144  0.7717686520006097  0.0828797535603982  1.0000
  H   H5        1.0  0.313923879616148  0.8397090284885066  0.8569329434705535  1.0000
  H   H6        1.0  0.18607685870509272  0.6602922341732835  0.35693416327637095  1.0000
  H   H7        1.0  0.686076347274131  0.1602914634556072  0.1430668214031527  1.0000
  H   H8        1.0  0.8139221605359807  0.33970827546999516  0.643069491191774  1.0000
  H   H9        1.0  0.18259353295817252  0.6864757841323409  0.9264157076959376  1.0000
  H   H10       1.0  0.31740701390454973  0.8135242752910798  0.4264159654184851  1.0000
  H   H11       1.0  0.8174062770109745  0.3135236041992471  0.0735840571783797  1.0000
  H   H12       1.0  0.6825895469160486  0.1864729412173034  0.5735867166510146  1.0000
  H   H13       1.0  0.7954404572572219  0.5633799506598437  0.5690949615040424  1.0000
  H   H14       1.0  0.7045578163540895  0.9366164211401865  0.06909858329200348  1.0000
  H   H15       1.0  0.20456176801820905  0.4366194022699191  0.43090188617630787  1.0000
  H   H16       1.0  0.2954424105393442  0.06338407080252752  0.9309031263796682  1.0000
  H   H17       1.0  0.13285751365568638  0.16767045639966938  0.0800245391500027  1.0000
  H   H18       1.0  0.367143858658686  0.3323291053210937  0.5800263816178769  1.0000
  H   H19       1.0  0.8671418793923282  0.832327828319407  0.9199752257249187  1.0000
  H   H20       1.0  0.6328587835441868  0.6676713512184023  0.41997435565779984  1.0000
  H   H21       1.0  0.9995419387758775  0.016114472949560393  0.1513162113613902  1.0000
  H   H22       1.0  0.5004585941892187  0.48388411513283097  0.6513168499962347  1.0000
  H   H23       1.0  0.0004566635377543531  0.9838849330839922  0.848683553511428  1.0000
  H   H24       1.0  0.4995428403581457  0.5161163591086223  0.34868388727795  1.0000
  C   C1        1.0  0.10103129565558791  0.7399527596779477  0.7546364112958129  1.0000
  C   C2        1.0  0.39896581846522144  0.7600431492982339  0.25463892167334723  1.0000
  C   C3        1.0  0.898967680466562  0.26004442143070605  0.24536043638276783  1.0000
  C   C4        1.0  0.6010303685405488  0.23995629213784034  0.7453627879944519  1.0000
  C   C5        1.0  0.9068829965529374  0.638069853450716  0.616347778210425  1.0000
  C   C6        1.0  0.5931162642244842  0.86192865782467  0.1163473894199143  1.0000
  C   C7        1.0  0.09311481502631844  0.36193067389730527  0.3836519866602899  1.0000
  C   C8        1.0  0.40688150424688974  0.13806854098384488  0.883652375454126  1.0000
  C   C9        1.0  0.22186675682732468  0.10384157712125838  0.2431378354073316  1.0000
  C   C10       1.0  0.2781355616881598  0.3961588543374646  0.7431364136210235  1.0000
  C   C11       1.0  0.7781346777200328  0.896158897120195  0.756862901866846  1.0000
  C   C12       1.0  0.7218662897787596  0.6038427235172038  0.2568633512535641  1.0000
  C   C13       1.0  0.4263173858720322  0.199859729638554  0.37524325189949786  1.0000
  C   C14       1.0  0.07368373673433126  0.30013942649298997  0.8752415249991969  1.0000
  C   C15       1.0  0.5736832148362224  0.800138537376469  0.6247594301738744  1.0000
  C   C16       1.0  0.9263172808871688  0.6998599441380406  0.12475629507864736  1.0000
  N   N1        1.0  0.14098091688821068  0.8206134572277081  0.6456479554440406  1.0000
  N   N2        1.0  0.359017468150256  0.679383693931399  0.1456485869375896  1.0000
  N   N3        1.0  0.8590201007380144  0.1793859134012266  0.3543527818307481  1.0000
  N   N4        1.0  0.6409823418204681  0.3206156943994927  0.8543521503357141  1.0000
  N   N5        1.0  0.012874884928649435  0.7533965801682355  0.5558886340143943  1.0000
  N   N6        1.0  0.4871240426913559  0.7466029069161735  0.0558884699833797  1.0000
  N   N7        1.0  0.9871241774155876  0.24660725801664543  0.4441121032534808  1.0000
  N   N8        1.0  0.5128757672762135  0.253396481416118  0.9441103224919444  1.0000
  N   N9        1.0  0.9541824226728154  0.6247378014633966  0.7419399850905107  1.0000
  N   N10       1.0  0.5458160379837835  0.8752605474353601  0.2419404260223956  1.0000
  N   N11       1.0  0.04581538890486312  0.3752627258853281  0.2580588073812251  1.0000
  N   N12       1.0  0.4541853965588416  0.12473992680818918  0.7580573940548376  1.0000
  N   N13       1.0  0.19008420544558652  0.775845273816337  0.8691422984873326  1.0000
  N   N14       1.0  0.30991736322205543  0.7241548500274888  0.3691398019453587  1.0000
  N   N15       1.0  0.8099160214494249  0.22415521812568076  0.13086038358331817  1.0000
  N   N16       1.0  0.6900836544010148  0.27584452060284553  0.6308589905314647  1.0000
  N   N17       1.0  0.18383652380865104  0.0243978547159216  0.35260860226727425  1.0000
  N   N18       1.0  0.31616452535422473  0.47560133386831893  0.8526090571404907  1.0000
  N   N19       1.0  0.8161632861604958  0.9756015336156736  0.6473911626070432  1.0000
  N   N20       1.0  0.6838369091931398  0.5243991403731342  0.1473916801336941  1.0000
  N   N21       1.0  0.31765624026887457  0.08751045294031459  0.4389820415817951  1.0000
  N   N22       1.0  0.1823442984303369  0.4124897331143274  0.9389813248857803  1.0000
  N   N23       1.0  0.6823403205501464  0.9124867635687649  0.5610196680887185  1.0000
  N   N24       1.0  0.8176559284583647  0.5875107588304828  0.061017467588939694  1.0000
  N   N25       1.0  0.3726169038874545  0.21502010540246633  0.2524729371915909  1.0000
  N   N26       1.0  0.12738544491920578  0.2849803126714007  0.7524713723245213  1.0000
  N   N27       1.0  0.6273841137450873  0.7849792652236829  0.7475316896791354  1.0000
  N   N28       1.0  0.8726176142016371  0.7150212474820065  0.2475274201525792  1.0000
  N   N29       1.0  0.1236430174152545  0.0744643993653114  0.13232412933994198  1.0000
  N   N30       1.0  0.3763573169467803  0.4255351050701536  0.6323238605111142  1.0000
  N   N31       1.0  0.8763555848999616  0.9255350066675379  0.8676766079318625  1.0000
  N   N32       1.0  0.6236453252529301  0.5744653514707352  0.3676749319665901  1.0000
