data_image0
_chemical_formula_structural       Cu2H34C38N10O12
_chemical_formula_sum              "Cu2 H34 C38 N10 O12"
_cell_length_a       8.119935389016248
_cell_length_b       11.098864710812432
_cell_length_c       11.560707385331296
_cell_angle_alpha    75.87731812332241
_cell_angle_beta     71.16002961040752
_cell_angle_gamma    76.0198624591749

_space_group_name_H-M_alt    "P 1"
_space_group_IT_number       1

loop_
  _space_group_symop_operation_xyz
  'x, y, z'

loop_
  _atom_site_type_symbol
  _atom_site_label
  _atom_site_symmetry_multiplicity
  _atom_site_fract_x
  _atom_site_fract_y
  _atom_site_fract_z
  _atom_site_occupancy
  Cu  Cu1       1.0  0.2552683398694029  0.2000235861376822  0.29270318891317254  1.0000
  Cu  Cu2       1.0  0.7447214214092313  0.7999843424532712  0.7072955037350466  1.0000
  H   H1        1.0  0.1930630119067374  0.1501291592250098  0.6827638670069263  1.0000
  H   H2        1.0  0.8069490734678908  0.8498616703318408  0.3172371134269198  1.0000
  H   H3        1.0  0.9162325995455732  0.30863145136863335  0.7332998936381471  1.0000
  H   H4        1.0  0.08377983979395515  0.6913631818925197  0.266693207972402  1.0000
  H   H5        1.0  0.9061806582315058  0.49279007380128803  0.8239169402429237  1.0000
  H   H6        1.0  0.09383107525738413  0.5072074127894978  0.1760713397906315  1.0000
  H   H7        1.0  0.16872463986994993  0.524063672903303  0.8709344135230167  1.0000
  H   H8        1.0  0.8312864966623009  0.4759309667724524  0.12905898524680026  1.0000
  H   H9        1.0  0.6640932604601133  0.41884648698790977  0.9875775660717989  1.0000
  H   H10       1.0  0.33591249122501676  0.581149084021007  0.012424637300334478  1.0000
  H   H11       1.0  0.7117135279203878  0.26650491392151576  0.9438487453544865  1.0000
  H   H12       1.0  0.28828422079299537  0.7334859904554493  0.05615463916028316  1.0000
  H   H13       1.0  0.409729589813395  0.037670551890272505  0.10435236090130928  1.0000
  H   H14       1.0  0.5902513264659462  0.9623203592047247  0.8956704507623597  1.0000
  H   H15       1.0  0.31127917280596046  0.9484750792173672  0.9665670243691408  1.0000
  H   H16       1.0  0.6887039400657997  0.05149597362837001  0.03346938054747989  1.0000
  H   H17       1.0  0.7757473529252152  0.12105763780490973  0.1413262821995076  1.0000
  H   H18       1.0  0.2242439425901494  0.8789493361012577  0.8586731440344264  1.0000
  H   H19       1.0  0.9007069767575119  0.2007093038421317  0.2703509689730906  1.0000
  H   H20       1.0  0.0992796795543427  0.7993222633001837  0.7296326014553072  1.0000
  H   H21       1.0  0.10080272607436308  0.43496452433134897  0.4015268483496185  1.0000
  H   H22       1.0  0.8991974634436701  0.5650433486832825  0.5984703316954806  1.0000
  H   H23       1.0  0.2023683277993698  0.5746179429546033  0.4915755134411908  1.0000
  H   H24       1.0  0.797632544444724  0.4253870937685633  0.5084230294968178  1.0000
  H   H25       1.0  0.7067970405037869  0.317887277216279  0.437835894461635  1.0000
  H   H26       1.0  0.2931985569185755  0.6821178320202181  0.5621543257321802  1.0000
  H   H27       1.0  0.5774629937035414  0.18774102670283102  0.35525476146024443  1.0000
  H   H28       1.0  0.42253061240433715  0.8122669294992735  0.6447335283289134  1.0000
  H   H29       1.0  0.8588456191873632  0.1597781826937279  0.5901934694200006  1.0000
  H   H30       1.0  0.1411601556223445  0.8402173712770209  0.40981219263623087  1.0000
  H   H31       1.0  0.4271667079052435  0.9506510995301908  0.34790295340903293  1.0000
  H   H32       1.0  0.5728443727110886  0.04935482136775701  0.6520947755229116  1.0000
  H   H33       1.0  0.31189045829386686  0.022026172310752695  0.4615042408381952  1.0000
  H   H34       1.0  0.6881143108097802  0.9779788536877022  0.5384916812799574  1.0000
  C   C1        1.0  0.3286461751566776  0.3557883146451389  0.7990261925482541  1.0000
  C   C2        1.0  0.6713608677734371  0.6442072584682565  0.2009739843225731  1.0000
  C   C3        1.0  0.3370130294190972  0.2509836545618428  0.7466403672513663  1.0000
  C   C4        1.0  0.6629959932632161  0.7490090801050329  0.25336001068206565  1.0000
  C   C5        1.0  0.18783861106844316  0.23079164396085616  0.7227994238480943  1.0000
  C   C6        1.0  0.8121730172284386  0.7692010778768223  0.27720035976680873  1.0000
  C   C7        1.0  0.03540792162724671  0.31982969577656206  0.7508705884921766  1.0000
  C   C8        1.0  0.964604535055727  0.6801649247059701  0.24912510713144093  1.0000
  C   C9        1.0  0.029094126315271834  0.4253519597164868  0.8022768229361006  1.0000
  C   C10       1.0  0.970918098938249  0.5746436090362297  0.19771784194253425  1.0000
  C   C11       1.0  0.17451348856816648  0.4453454268794702  0.8284074921350847  1.0000
  C   C12       1.0  0.8254948340446544  0.5546501568574982  0.1715889288923762  1.0000
  C   C13       1.0  0.6096782968352485  0.34975829617376775  0.9634031211489853  1.0000
  C   C14       1.0  0.39032092925117473  0.6502373154272192  0.03659883867744182  1.0000
  C   C15       1.0  0.446783834732507  0.3158399778328019  0.06746240483126083  1.0000
  C   C16       1.0  0.5532240597082918  0.684157476887286  0.9325371427323714  1.0000
  C   C17       1.0  0.2708089030177021  0.0540741849060566  0.10801018134609558  1.0000
  C   C18       1.0  0.729175204270554  0.9459195687938688  0.8920051879207234  1.0000
  C   C19       1.0  0.213584389430622  0.004564865118240399  0.03160401723894072  1.0000
  C   C20       1.0  0.786401151735724  0.9954175455708598  0.9684179654297862  1.0000
  C   C21       1.0  0.032761251379362505  0.02627905771723251  0.03971896131722019  1.0000
  C   C22       1.0  0.9672250613093925  0.9737109135255153  0.9602967750861707  1.0000
  C   C23       1.0  0.9183997343895741  0.09931345016105549  0.12734326172247273  1.0000
  C   C24       1.0  0.0815868243178527  0.9006916443440507  0.8726611439805436  1.0000
  C   C25       1.0  0.986210297567105  0.14562736388137412  0.20044765994840216  1.0000
  C   C26       1.0  0.013773275682062533  0.8543900410979646  0.799546804753923  1.0000
  C   C27       1.0  0.23397429620789006  0.4131416658918924  0.4118925610917329  1.0000
  C   C28       1.0  0.7660248103700198  0.5868652737862379  0.5881042175155713  1.0000
  C   C29       1.0  0.2928599431523012  0.4906753137528809  0.46215468970266466  1.0000
  C   C30       1.0  0.7071406861000539  0.5093306797595433  0.5378410931483086  1.0000
  C   C31       1.0  0.465891401842171  0.45993514505692457  0.4735727824475262  1.0000
  C   C32       1.0  0.5341105244363148  0.5400708463004449  0.5264218385731567  1.0000
  C   C33       1.0  0.5710052964210135  0.3492594885800031  0.4326216303161558  1.0000
  C   C34       1.0  0.4289927040921954  0.6507465347997795  0.5673712881692622  1.0000
  C   C35       1.0  0.5021249012440236  0.275930090385728  0.3845170512058542  1.0000
  C   C36       1.0  0.497869810928563  0.7240787821147239  0.6154750987051969  1.0000
  C   C37       1.0  0.9953947230715271  0.14313171999922505  0.5275540426038744  1.0000
  C   C38       1.0  0.004608805869672511  0.8568676462454834  0.472445199618626  1.0000
  N   N1        1.0  0.49747122470166255  0.34048327142686935  0.806134646345555  1.0000
  N   N2        1.0  0.5025358124473056  0.6595123059460734  0.19386466585424958  1.0000
  N   N3        1.0  0.6030393306771129  0.23829693813060973  0.7618111198782315  1.0000
  N   N4        1.0  0.39696947213804623  0.7616967362873694  0.23818995665227052  1.0000
  N   N5        1.0  0.5065931323758761  0.1827922423796196  0.7266711013038573  1.0000
  N   N6        1.0  0.49341850748329097  0.8172004709389855  0.2733304116530917  1.0000
  N   N7        1.0  0.15989063260077066  0.12434120818003437  0.19123276337062114  1.0000
  N   N8        1.0  0.8400945664356884  0.8756695546484682  0.8087697812176129  1.0000
  N   N9        1.0  0.336242938920698  0.3075649941650909  0.3735182726833273  1.0000
  N   N10       1.0  0.6637517905953202  0.6924438655567329  0.6264764712407924  1.0000
  O   O1        1.0  0.5655177530169126  0.4169379447449373  0.8490477607637672  1.0000
  O   O2        1.0  0.4344879928870711  0.5830576305235199  0.1509535779373508  1.0000
  O   O3        1.0  0.4808414137993323  0.21796233888542824  0.14895420923093636  1.0000
  O   O4        1.0  0.5191490475487939  0.7820427406354328  0.8510484403232537  1.0000
  O   O5        1.0  0.29857079680284215  0.3820038731468571  0.06945455785609772  1.0000
  O   O6        1.0  0.70142244955899  0.618000283610492  0.9305407460853342  1.0000
  O   O7        1.0  0.4095580993273416  0.0277044126082799  0.3828457099260376  1.0000
  O   O8        1.0  0.5904485984459527  0.9723034325929021  0.6171491196516924  1.0000
  O   O9        1.0  0.01753233636947728  0.21879564759753126  0.42143177330753895  1.0000
  O   O10       1.0  0.9824635734183714  0.7812084537352179  0.5785715830255853  1.0000
  O   O11       1.0  0.10752387703738012  0.05803365679336991  0.5659961104548259  1.0000
  O   O12       1.0  0.8924835593778866  0.9419600708941546  0.43399575185368616  1.0000
