data_image0
_chemical_formula_structural       Mg6H6C30O30
_chemical_formula_sum              "Mg6 H6 C30 O30"
_cell_length_a       6.887781174040936
_cell_length_b       15.194589799297093
_cell_length_c       15.191214965696812
_cell_angle_alpha    117.75410165374517
_cell_angle_beta     98.69403279343639
_cell_angle_gamma    98.69118678194897

_space_group_name_H-M_alt    "P 1"
_space_group_IT_number       1

loop_
  _space_group_symop_operation_xyz
  'x, y, z'

loop_
  _atom_site_type_symbol
  _atom_site_label
  _atom_site_symmetry_multiplicity
  _atom_site_fract_x
  _atom_site_fract_y
  _atom_site_fract_z
  _atom_site_occupancy
  Mg  Mg1       1.0  0.47394302085744755  0.2665268701478993  0.5895177626083736  1.0000
  Mg  Mg2       1.0  0.20739561892334285  0.3229738368629357  0.7334360824570683  1.0000
  Mg  Mg3       1.0  0.8843812653497878  0.4104095531926363  0.6769638665445612  1.0000
  Mg  Mg4       1.0  0.5260580098267269  0.7334731373290923  0.41048263089081877  1.0000
  Mg  Mg5       1.0  0.7926047123758836  0.6770277080538495  0.26656432064638846  1.0000
  Mg  Mg6       1.0  0.11561976589786842  0.58959045426068  0.3230358687070805  1.0000
  H   H1        1.0  0.8124975581483794  0.4441122913541308  0.46612435795007917  1.0000
  H   H2        1.0  0.3683615120668051  0.021955402752830408  0.5559656321793511  1.0000
  H   H3        1.0  0.3463603046781927  0.5339307416161035  0.9779775808580667  1.0000
  H   H4        1.0  0.18750347253579489  0.555887716122868  0.5338760355491132  1.0000
  H   H5        1.0  0.6316417549992935  0.9780461422600272  0.444036947515187  1.0000
  H   H6        1.0  0.6536407265694707  0.4660692658372056  0.02202215439357503  1.0000
  C   C1        1.0  0.2562590674151863  0.4362869789975933  0.6100415238621864  1.0000
  C   C2        1.0  0.8200230270972922  0.1737425370059569  0.5636159867467968  1.0000
  C   C3        1.0  0.6462118012863697  0.3898816918350718  0.8262416939600428  1.0000
  C   C4        1.0  0.7437423476591009  0.5637137972173889  0.3899592540250226  1.0000
  C   C5        1.0  0.17997877180363275  0.8262590079706982  0.4363858337759794  1.0000
  C   C6        1.0  0.353788145622744  0.6101190843437153  0.1737583247553972  1.0000
  C   C7        1.0  0.3848037620715273  0.46600064897049254  0.5530574082446762  1.0000
  C   C8        1.0  0.9188701776247683  0.0870479238061037  0.5339222177273939  1.0000
  C   C9        1.0  0.8317859991834952  0.44687666460666264  0.9129404491247826  1.0000
  C   C10       1.0  0.6151976524392851  0.5340001272681788  0.4469440278900835  1.0000
  C   C11       1.0  0.08113162127615686  0.9129536211705587  0.46607960279537514  1.0000
  C   C12       1.0  0.16821247899695632  0.5531241115596117  0.08705946866645334  1.0000
  C   C13       1.0  0.565455741129192  0.4323886811981198  0.5336536592560819  1.0000
  C   C14       1.0  0.133105160353125  0.10125036189875661  0.567594306697508  1.0000
  C   C15       1.0  0.03180102923335689  0.46632151421839324  0.8987277639538719  1.0000
  C   C16       1.0  0.43454420521644016  0.5676120950043569  0.4663470177069158  1.0000
  C   C17       1.0  0.8668981067129663  0.8987511831141006  0.43240827299703  1.0000
  C   C18       1.0  0.9681993020658695  0.5336800306983919  0.10127263914958474  1.0000
  C   C19       1.0  0.6745922114209648  0.46860347631399435  0.4811708820746574  1.0000
  C   C20       1.0  0.20596815706049648  0.012552839076462903  0.5314506789225463  1.0000
  C   C21       1.0  0.1933952882009677  0.5188762765753339  0.9874269681460037  1.0000
  C   C22       1.0  0.3254077349246672  0.5313972998884752  0.5188297948883402  1.0000
  C   C23       1.0  0.7940336418404214  0.9874487059001923  0.4685511416002299  1.0000
  C   C24       1.0  0.8066046587081459  0.48112449960346054  0.012573050569436498  1.0000
  C   C25       1.0  0.21361547845425125  0.09428719874047431  0.3595220365912724  1.0000
  C   C26       1.0  0.11918563719076758  0.2653122942268098  0.905677421308333  1.0000
  C   C27       1.0  0.8540309947609541  0.6402446710551715  0.734706129761669  1.0000
  C   C28       1.0  0.7863796073565226  0.9057097337943603  0.6404778330783643  1.0000
  C   C29       1.0  0.8808127744118155  0.7346854069052928  0.09431842686484539  1.0000
  C   C30       1.0  0.14597087466221131  0.3597599487899076  0.26529515264627435  1.0000
  O   O1        1.0  0.3087418673797017  0.37621129940199444  0.6420615929237244  1.0000
  O   O2        1.0  0.9325590523233911  0.2658244178624187  0.6236762249317422  1.0000
  O   O3        1.0  0.6666316008995781  0.35787507377638417  0.7341323973030996  1.0000
  O   O4        1.0  0.691259548258074  0.6237894767893125  0.35793852671592674  1.0000
  O   O5        1.0  0.067442362750903  0.7341763583525707  0.3763245529554596  1.0000
  O   O6        1.0  0.3333668772808736  0.6421257023898902  0.2658675204881362  1.0000
  O   O7        1.0  0.0993092276857085  0.4697290916516865  0.6263611842266883  1.0000
  O   O8        1.0  0.6296396970484323  0.15662843375573493  0.5301650781490537  1.0000
  O   O9        1.0  0.47293335509883144  0.3735320832235019  0.84335108425433  1.0000
  O   O10       1.0  0.9006925717786983  0.5302724533013008  0.37363997804853005  1.0000
  O   O11       1.0  0.3703613341992309  0.8433715736975743  0.46983465710258804  1.0000
  O   O12       1.0  0.5270655074717396  0.6264694616807703  0.15664921792492248  1.0000
  O   O13       1.0  0.6360502079905855  0.36998916624455813  0.5629278121662936  1.0000
  O   O14       1.0  0.2661401382291686  0.19291119049974986  0.6299702553845634  1.0000
  O   O15       1.0  0.073121608175903  0.4369855770278619  0.8070291623510569  1.0000
  O   O16       1.0  0.36394935452841537  0.6300108411962456  0.43707182216113694  1.0000
  O   O17       1.0  0.7338612768451184  0.8070895857152395  0.3700305225026383  1.0000
  O   O18       1.0  0.9268791075134359  0.5630167366269206  0.19297162514041594  1.0000
  O   O19       1.0  0.1615816340488649  0.008756482807662298  0.29255359491196486  1.0000
  O   O20       1.0  0.15282034408951967  0.2839347880070592  0.9912462690442112  1.0000
  O   O21       1.0  0.8691591743850821  0.7072235979058733  0.71616338283782  1.0000
  O   O22       1.0  0.8384103777679639  0.9912342997758683  0.7074418831584666  1.0000
  O   O23       1.0  0.8471750640413731  0.7160598380421561  0.008744649414928958  1.0000
  O   O24       1.0  0.13084146740111177  0.2927756410225584  0.2838418922538111  1.0000
  O   O25       1.0  0.2645730714265824  0.18167583518791733  0.4244432172464414  1.0000
  O   O26       1.0  0.08260484211415081  0.2427838401858011  0.818252493457983  1.0000
  O   O27       1.0  0.8398532572697305  0.5753037724179962  0.7571642446918929  1.0000
  O   O28       1.0  0.7354204102458722  0.8183149473607614  0.5755510452530929  1.0000
  O   O29       1.0  0.9173943422130506  0.7572153982565271  0.1817395157583307  1.0000
  O   O30       1.0  0.16014584920993974  0.42469239146375065  0.24283685985746223  1.0000
