data_image0
_chemical_formula_structural       Cu2H26C34S2N2O20
_chemical_formula_sum              "Cu2 H26 C34 S2 N2 O20"
_cell_length_a       7.9727520607877596
_cell_length_b       9.722153584300466
_cell_length_c       12.040886415548549
_cell_angle_alpha    83.00519650076475
_cell_angle_beta     74.05664996211932
_cell_angle_gamma    78.64037974099132

_space_group_name_H-M_alt    "P 1"
_space_group_IT_number       1

loop_
  _space_group_symop_operation_xyz
  'x, y, z'

loop_
  _atom_site_type_symbol
  _atom_site_label
  _atom_site_symmetry_multiplicity
  _atom_site_fract_x
  _atom_site_fract_y
  _atom_site_fract_z
  _atom_site_occupancy
  Cu  Cu1       1.0  0.5724457977166253  0.4482373575861871  0.777282728018882  1.0000
  Cu  Cu2       1.0  0.42756079716505013  0.5517552315982355  0.22271396248648054  1.0000
  H   H1        1.0  0.35241457926177594  0.8324625565704551  0.6674512722975763  1.0000
  H   H2        1.0  0.6475833047484089  0.16752169763410754  0.3325487730460567  1.0000
  H   H3        1.0  0.4461452110245149  0.40408785537273667  0.6155799913112859  1.0000
  H   H4        1.0  0.5538565618371293  0.595902797440459  0.3844236083695165  1.0000
  H   H5        1.0  0.35071191122821693  0.5534860047926173  0.6557469291401787  1.0000
  H   H6        1.0  0.6493016534689674  0.4465107274383583  0.34424719657472014  1.0000
  H   H7        1.0  0.7977914707997018  0.34965549534114604  0.8960774451228417  1.0000
  H   H8        1.0  0.20222266450004875  0.6503573238804348  0.1039288795584383  1.0000
  H   H9        1.0  0.861692552024131  0.47703507736209627  0.7943298207269791  1.0000
  H   H10       1.0  0.1383053351655832  0.5229743672091871  0.2056665459298586  1.0000
  H   H11       1.0  0.14525403406101134  0.6665487989529593  0.49517893944089053  1.0000
  H   H12       1.0  0.8547449182553065  0.333449183275917  0.5048226826945096  1.0000
  H   H13       1.0  0.9662020217990418  0.9131511945530801  0.2135605130638751  1.0000
  H   H14       1.0  0.03378476424926901  0.08686146336066257  0.7864375064950409  1.0000
  H   H15       1.0  0.6556351768788746  0.9004502490355575  0.32115309323148017  1.0000
  H   H16       1.0  0.3443550737391164  0.09954566138463859  0.6788495128040211  1.0000
  H   H17       1.0  0.14116347014338973  0.05871765643722429  0.3089692063509801  1.0000
  H   H18       1.0  0.8588311135621898  0.9412951150005567  0.6910340293976136  1.0000
  H   H19       1.0  0.33592322684015136  0.23385171112280995  0.21719867336835116  1.0000
  H   H20       1.0  0.6640864051133021  0.7661514045370552  0.7827979369696648  1.0000
  H   H21       1.0  0.8680955741263717  0.964466935488559  0.9855082994220581  1.0000
  H   H22       1.0  0.13191514648958966  0.0355309219934909  0.014488707570983188  1.0000
  H   H23       1.0  0.9387366880028414  0.7166159839234112  0.9328412752979317  1.0000
  H   H24       1.0  0.061256865697267016  0.2833829021391807  0.0671537492978942  1.0000
  H   H25       1.0  0.7222097844236616  0.5536194504907854  0.02593710665786382  1.0000
  H   H26       1.0  0.27778224514894834  0.4463867970207431  0.9740573626209255  1.0000
  C   C1        1.0  0.8312066919305822  0.6125168394636019  0.6255059432140868  1.0000
  C   C2        1.0  0.16878662009911244  0.3874831965788487  0.37449314852635496  1.0000
  C   C3        1.0  0.8629403450110898  0.7068651791098474  0.5163166673575788  1.0000
  C   C4        1.0  0.137056861059655  0.2931349333634827  0.4836858617728197  1.0000
  C   C5        1.0  0.03714378289140543  0.7184448960319401  0.4579760282992353  1.0000
  C   C6        1.0  0.962849732910058  0.28154784487262663  0.5420263430055101  1.0000
  C   C7        1.0  0.07225299055491523  0.7911758526630734  0.3496479133107613  1.0000
  C   C8        1.0  0.9277411780420339  0.20882003584370779  0.6503539836390716  1.0000
  C   C9        1.0  0.9372252980511249  0.8571874294921001  0.29871472039675245  1.0000
  C   C10       1.0  0.0627643233072703  0.1428115374904806  0.70128350117011  1.0000
  C   C11       1.0  0.7628158333754983  0.8483922118870595  0.3590265754793975  1.0000
  C   C12       1.0  0.23718925254544138  0.15159507472191783  0.6409684965193918  1.0000
  C   C13       1.0  0.7239063568577607  0.7732621075679731  0.46684000616357935  1.0000
  C   C14       1.0  0.2760978290056713  0.226735806105303  0.5331590119340248  1.0000
  C   C15       1.0  0.5343642018392457  0.7644547685199825  0.5275865323168177  1.0000
  C   C16       1.0  0.4656408453790278  0.2355389779487638  0.4724144616950525  1.0000
  C   C17       1.0  0.4983213017696429  0.8412627840046268  0.1519323409754492  1.0000
  C   C18       1.0  0.5016763349785267  0.15873524486643478  0.8480711761120858  1.0000
  C   C19       1.0  0.33225969421657464  0.88494122960293  0.2324040500507607  1.0000
  C   C20       1.0  0.6677427162737856  0.11506523483684816  0.7676001384646726  1.0000
  C   C21       1.0  0.27101901781496446  0.024915829110199197  0.2514932818994993  1.0000
  C   C22       1.0  0.728978623318774  0.9750884826009096  0.7485086935449985  1.0000
  C   C23       1.0  0.38160877815975885  0.12397821728133349  0.19957495851833326  1.0000
  C   C24       1.0  0.6183943142535994  0.8760249742386037  0.8004244922193707  1.0000
  C   C25       1.0  0.5507919725752402  0.084786958545898  0.13141916321420413  1.0000
  C   C26       1.0  0.4492111342008585  0.9152161739674652  0.8685777996381249  1.0000
  C   C27       1.0  0.6122468189726787  0.942147411098901  0.10166924074269455  1.0000
  C   C28       1.0  0.3877532120289687  0.057851654798781696  0.8983337242900618  1.0000
  C   C29       1.0  0.7766908488220777  0.892070497054121  0.02457029600923018  1.0000
  C   C30       1.0  0.2233098541253753  0.1079316377703421  0.9754288774881275  1.0000
  C   C31       1.0  0.8163836662578987  0.7542595421266893  0.9959513557090319  1.0000
  C   C32       1.0  0.1836091911564708  0.24574267586231707  0.004050894549898508  1.0000
  C   C33       1.0  0.6969379760439124  0.6625091886599249  0.04783415464504515  1.0000
  C   C34       1.0  0.3030503437070635  0.3374960684671677  0.9521627616406648  1.0000
  S   S1        1.0  0.6933482774971014  0.21337872892624427  0.1037286333752689  1.0000
  S   S2        1.0  0.30665959903763707  0.7866202538068947  0.8962712548959147  1.0000
  N   N1        1.0  0.5455608067369583  0.7039417538997198  0.12518677086557523  1.0000
  N   N2        1.0  0.45443358397805866  0.29605936581154413  0.8748136637722226  1.0000
  O   O1        1.0  0.6768070041293227  0.5758748540443293  0.6526977564631268  1.0000
  O   O2        1.0  0.3231952373083828  0.4241198603246304  0.3472994844658928  1.0000
  O   O3        1.0  0.9487791535497506  0.5743446070366716  0.6794078646095444  1.0000
  O   O4        1.0  0.051214367039293114  0.4256481141990348  0.32059367740006917  1.0000
  O   O5        1.0  0.4680789694648978  0.8503716213823792  0.6119188838054441  1.0000
  O   O6        1.0  0.5319197511581847  0.1496211689797349  0.3880858592322483  1.0000
  O   O7        1.0  0.4466015162374008  0.6903909193300136  0.49733718838821517  1.0000
  O   O8        1.0  0.5534115555437964  0.3096081521983862  0.5026667302061654  1.0000
  O   O9        1.0  0.25000173709914714  0.7768611046393872  0.28992231308711075  1.0000
  O   O10       1.0  0.7499961361298302  0.2231420964295836  0.7100772538030143  1.0000
  O   O11       1.0  0.5782948283981993  0.3507334280625826  0.11559926881216141  1.0000
  O   O12       1.0  0.4217180304380789  0.6492666754325285  0.884403741156092  1.0000
  O   O13       1.0  0.8124092217925213  0.19819704423419887  0.9863730995470661  1.0000
  O   O14       1.0  0.18759454775624104  0.8018028940347577  0.013622442708026533  1.0000
  O   O15       1.0  0.7911973382695692  0.17529159500226393  0.19487418149227406  1.0000
  O   O16       1.0  0.20880771892588254  0.8246958096198683  0.8051258662772653  1.0000
  O   O17       1.0  0.38516527561548497  0.45732126792771066  0.6865868384713708  1.0000
  O   O18       1.0  0.6148302133371998  0.5426745542680251  0.3134123342312023  1.0000
  O   O19       1.0  0.7620353540810928  0.44318794297704023  0.8573812975994315  1.0000
  O   O20       1.0  0.23796795606475743  0.5568141969073395  0.14261823246927458  1.0000
