data_image0
_chemical_formula_structural       Zn4H32C32S8N32
_chemical_formula_sum              "Zn4 H32 C32 S8 N32"
_cell_length_a       8.822757041840019
_cell_length_b       8.803331302898622
_cell_length_c       19.4855
_cell_angle_alpha    92.71502719604854
_cell_angle_beta     102.47465052023199
_cell_angle_gamma    114.92455305893532

_space_group_name_H-M_alt    "P 1"
_space_group_IT_number       1

loop_
  _space_group_symop_operation_xyz
  'x, y, z'

loop_
  _atom_site_type_symbol
  _atom_site_label
  _atom_site_symmetry_multiplicity
  _atom_site_fract_x
  _atom_site_fract_y
  _atom_site_fract_z
  _atom_site_occupancy
  Zn  Zn1       1.0  0.657461018273608  0.16273198994156954  0.623279221554192  1.0000
  Zn  Zn2       1.0  0.0398692645703349  0.0348268448770312  0.8766818896592028  1.0000
  Zn  Zn3       1.0  0.34253907335592965  0.8372684466938833  0.376720437510393  1.0000
  Zn  Zn4       1.0  0.9601319878971992  0.9651735917584217  0.1233183961434889  1.0000
  H   H1        1.0  0.7557620056320501  0.875983541020801  0.6949718261776779  1.0000
  H   H2        1.0  0.6811272455990506  0.0606305668460365  0.804818643189769  1.0000
  H   H3        1.0  0.2442392468354768  0.12401689561464477  0.3050279464228892  1.0000
  H   H4        1.0  0.31887341897790117  0.9393711379725358  0.19518109905183678  1.0000
  H   H5        1.0  0.9116194708699368  0.8239880330476694  0.5080968874205851  1.0000
  H   H6        1.0  0.8156664208599337  0.4033075962345193  0.9921199079405484  1.0000
  H   H7        1.0  0.08837947486477299  0.17600986722153775  0.4919020920878409  1.0000
  H   H8        1.0  0.18433425866018635  0.596691572217807  0.007880807887246991  1.0000
  H   H9        1.0  0.7591349870354946  0.5524256403689733  0.6200050316918393  1.0000
  H   H10       1.0  0.43274290477560123  0.13872655163855535  0.8800001561840958  1.0000
  H   H11       1.0  0.24086453164662905  0.4475735280833532  0.379994544195732  1.0000
  H   H12       1.0  0.5672571868539364  0.8612738849968904  0.12000052928473788  1.0000
  H   H13       1.0  0.9129533786908437  0.6957011648636209  0.6962971653100851  1.0000
  H   H14       1.0  0.49922029948103136  0.21601724014905693  0.8037137743013005  1.0000
  H   H15       1.0  0.08704613999127993  0.3042980035887055  0.3037029237796034  1.0000
  H   H16       1.0  0.5007809529865027  0.7839831964863888  0.19628702470351558  1.0000
  H   H17       1.0  0.023018875711670737  0.5269605232933543  0.6312515213991787  1.0000
  H   H18       1.0  0.39633369951241804  0.392030911919953  0.8687143217843243  1.0000
  H   H19       1.0  0.976981215917867  0.4730399133420916  0.3687486508675305  1.0000
  H   H20       1.0  0.6036663921171198  0.607969524715493  0.1312858504823851  1.0000
  H   H21       1.0  0.9931073053052016  0.6226347943301602  0.5550627763650979  1.0000
  H   H22       1.0  0.5683352493711809  0.4387951645177423  0.9449001175313042  1.0000
  H   H23       1.0  0.006892786324336003  0.37736564230529257  0.4449373959016114  1.0000
  H   H24       1.0  0.4316648422583569  0.5612052721177037  0.055100054735405  1.0000
  H   H25       1.0  0.24214679754365417  0.9097945712176736  0.549010473760532  1.0000
  H   H26       1.0  0.8612456612331627  0.6937189946450388  0.9508069159512899  1.0000
  H   H27       1.0  0.7578527211384696  0.0902045972346528  0.450989102127032  1.0000
  H   H28       1.0  0.13875675207236074  0.3062814419904143  0.049193483387377106  1.0000
  H   H29       1.0  0.2625533625541366  0.7419873124246763  0.750339403362993  1.0000
  H   H30       1.0  0.4911343652308061  0.5119820124477312  0.7495559273902827  1.0000
  H   H31       1.0  0.7374467141322326  0.25801566057701547  0.24966030851965118  1.0000
  H   H32       1.0  0.5088657263987315  0.48801842418772157  0.2504442448764265  1.0000
  C   C1        1.0  0.7852701417624672  0.8978178498201499  0.6438194826898709  1.0000
  C   C2        1.0  0.7540303613147543  0.14138593164391713  0.856094848865723  1.0000
  C   C3        1.0  0.21472994986706342  0.1021825868152959  0.3561806895768385  1.0000
  C   C4        1.0  0.24597030326219024  0.8586157731746551  0.14390489337588258  1.0000
  C   C5        1.0  0.8661327556540498  0.8700700031262014  0.5480988567279397  1.0000
  C   C6        1.0  0.821723618961215  0.317804153830508  0.9520562077371437  1.0000
  C   C7        1.0  0.1338667630280739  0.129929165326125  0.4519007191596245  1.0000
  C   C8        1.0  0.17827763350631193  0.6821962828049379  0.04794407806554799  1.0000
  C   C9        1.0  0.8805222468242135  0.669434556055343  0.6380133195963396  1.0000
  C   C10       1.0  0.5314907921386336  0.24216210337769434  0.8619988049279141  1.0000
  C   C11       1.0  0.1194772718579102  0.3305646123969836  0.3619862562912316  1.0000
  C   C12       1.0  0.468509299490904  0.7578383332577585  0.1380018805409264  1.0000
  C   C13       1.0  0.020755299726076322  0.6425110283902313  0.6133125758238975  1.0000
  C   C14       1.0  0.5296203408605322  0.4077284825953597  0.8866590141032303  1.0000
  C   C15       1.0  0.9792465256888647  0.3574906764283411  0.3866877931558079  1.0000
  C   C16       1.0  0.4703797507690055  0.5922719540400931  0.1133416713656032  1.0000
  C   C17       1.0  0.2875187276453559  0.8974805131098902  0.6043482424005047  1.0000
  C   C18       1.0  0.7934501287469119  0.6836179160839109  0.8954885652264861  1.0000
  C   C19       1.0  0.7124807910367679  0.10251865534243618  0.3956513334870664  1.0000
  C   C20       1.0  0.20655171161119767  0.3163812523684156  0.1045112377330426  1.0000
  C   C21       1.0  0.30123582088553047  0.8147176144309967  0.7081566986555358  1.0000
  C   C22       1.0  0.6062442106122035  0.593063300307783  0.791736794368198  1.0000
  C   C23       1.0  0.6987636828534249  0.1852840903875688  0.291843443252219  1.0000
  C   C24       1.0  0.39375704185532356  0.40693713632767  0.20826349143449358  1.0000
  C   C25       1.0  0.6220560925090979  0.3460630783223451  0.49334952810092864  1.0000
  C   C26       1.0  0.3530545724806444  0.12892349611094284  0.006663236775253298  1.0000
  C   C27       1.0  0.37794341122985736  0.6539386264962275  0.5066495874025705  1.0000
  C   C28       1.0  0.6469408907400832  0.8710744041582641  0.993336941731613  1.0000
  C   C29       1.0  0.9186840123534878  0.4151968129966689  0.7579050804000217  1.0000
  C   C30       1.0  0.157161413439546  0.1609425835574214  0.742198486430041  1.0000
  C   C31       1.0  0.08131607927604992  0.5848036236387768  0.2420940654624388  1.0000
  C   C32       1.0  0.8428381052425777  0.839056584894905  0.25780262906390305  1.0000
  S   S1        1.0  0.6294150747192404  0.46036822759410967  0.4310667984013961  1.0000
  S   S2        1.0  0.5295269121302582  0.1983768129318335  0.06901626943999158  1.0000
  S   S3        1.0  0.37058444396288337  0.5396309408582238  0.5689327774861681  1.0000
  S   S4        1.0  0.4704685660336381  0.8016185509711349  0.930984882653064  1.0000
  S   S5        1.0  0.07305496411984784  0.5426403394050536  0.8238294080324948  1.0000
  S   S6        1.0  0.2184421834045054  0.2487972374683096  0.676237810045393  1.0000
  S   S7        1.0  0.9269462883476791  0.4573600972303922  0.17617036456807258  1.0000
  S   S8        1.0  0.7815573352776184  0.751201930984017  0.3237622790443027  1.0000
  N   N1        1.0  0.7643233107259775  0.007535544106737299  0.6034264809205678  1.0000
  N   N2        1.0  0.9041152802461524  0.1611581746880404  0.8965395032192305  1.0000
  N   N3        1.0  0.23567620795614622  0.9924636243455891  0.396573094966996  1.0000
  N   N4        1.0  0.09588654516879559  0.8388435301305319  0.1034603525583577  1.0000
  N   N5        1.0  0.8160293594513418  0.9914237141861262  0.5428502511898046  1.0000
  N   N6        1.0  0.9484001825275926  0.2733530672459635  0.9572683879859127  1.0000
  N   N7        1.0  0.1839701592307819  0.0085754542662002  0.45714932469776676  1.0000
  N   N8        1.0  0.051600496992527715  0.7266461012063627  0.04273181463975819  1.0000
  N   N9        1.0  0.8509268664137011  0.8095928864378406  0.6109990603217313  1.0000
  N   N10       1.0  0.6984876373202908  0.23962573713509974  0.8890415846296235  1.0000
  N   N11       1.0  0.14907265226842273  0.1904062820144858  0.3890005155658399  1.0000
  N   N12       1.0  0.3015124543092468  0.760374699500346  0.11095858763708577  1.0000
  N   N13       1.0  0.19415791565794652  0.7822863674700997  0.6412094259942691  1.0000
  N   N14       1.0  0.6411508321437722  0.5532245957353936  0.8587056535761022  1.0000
  N   N15       1.0  0.8058427489189981  0.21771533734847273  0.3587908294494611  1.0000
  N   N16       1.0  0.35884984737634074  0.4467745727169329  0.1412945490495687  1.0000
  N   N17       1.0  0.4425448151492191  0.9946766038922517  0.6468314659245351  1.0000
  N   N18       1.0  0.8480236230946687  0.7959954270113057  0.8529870466529416  1.0000
  N   N19       1.0  0.5574552764803188  0.005323832743201298  0.3531681931400498  1.0000
  N   N20       1.0  0.15197705642545148  0.20400374144102065  0.14701315597272918  1.0000
  N   N21       1.0  0.45248207040837934  0.9430704281373534  0.712796336051035  1.0000
  N   N22       1.0  0.7300769754350043  0.7396919009751315  0.7870585723323558  1.0000
  N   N23       1.0  0.5475180212211511  0.0569300084980924  0.28720383621568146  1.0000
  N   N24       1.0  0.26992427703252986  0.26030853566031437  0.21294120026821156  1.0000
  N   N25       1.0  0.6189380887719196  0.2620269237896693  0.5395174316724933  1.0000
  N   N26       1.0  0.2229175557122005  0.07978266834384577  0.9604609510034264  1.0000
  N   N27       1.0  0.38106200285761094  0.7379735128457765  0.4604817141899744  1.0000
  N   N28       1.0  0.7770784953991096  0.9202139637422417  0.039539257862394074  1.0000
  N   N29       1.0  0.8029764846640929  0.3222681584174723  0.7092276182768058  1.0000
  N   N30       1.0  0.11303446810186561  0.0941499149250049  0.7908459973953086  1.0000
  N   N31       1.0  0.1970265015888373  0.6777335464011003  0.29077235103675747  1.0000
  N   N32       1.0  0.8869673573130824  0.9058517898935603  0.2091538583822725  1.0000
