data_image0
_chemical_formula_structural       Zn16H40C104S16O52F8
_chemical_formula_sum              "Zn16 H40 C104 S16 O52 F8"
_cell_length_a       19.689053239864908
_cell_length_b       19.678548872945463
_cell_length_c       33.42623051213092
_cell_angle_alpha    79.08746474714384
_cell_angle_beta     79.05458786216015
_cell_angle_gamma    63.85486356837408

_space_group_name_H-M_alt    "P 1"
_space_group_IT_number       1

loop_
  _space_group_symop_operation_xyz
  'x, y, z'

loop_
  _atom_site_type_symbol
  _atom_site_label
  _atom_site_symmetry_multiplicity
  _atom_site_fract_x
  _atom_site_fract_y
  _atom_site_fract_z
  _atom_site_occupancy
  Zn  Zn1       1.0  0.0564019966070148  0.39956399159687817  0.4779082282657185  1.0000
  Zn  Zn2       1.0  0.9842735149179733  0.4835910182581954  0.5596897984401181  1.0000
  Zn  Zn3       1.0  0.05905876685255149  0.5607050740914022  0.4822671395349544  1.0000
  Zn  Zn4       1.0  0.9010124854520001  0.5552575234693503  0.47915987570542734  1.0000
  Zn  Zn5       1.0  0.6939806658944646  0.3500954487606335  0.2717426197123203  1.0000
  Zn  Zn6       1.0  0.688998900349354  0.1895086959633899  0.26677677282124523  1.0000
  Zn  Zn7       1.0  0.7682302067203111  0.2666512551488083  0.1903028002832414  1.0000
  Zn  Zn8       1.0  0.8474855986537407  0.19401637667942132  0.27158364009425645  1.0000
  Zn  Zn9       1.0  0.2667797455178658  0.7668348796154087  0.6892769744388119  1.0000
  Zn  Zn10      1.0  0.3487813753625133  0.6959149509591144  0.7714461373451797  1.0000
  Zn  Zn11      1.0  0.1927695034548123  0.8493726769147899  0.7713801675378632  1.0000
  Zn  Zn12      1.0  0.19126634841850884  0.6892874034897927  0.7674379961469171  1.0000
  Zn  Zn13      1.0  0.5603041052445334  0.060786121652547834  0.9833393471697393  1.0000
  Zn  Zn14      1.0  0.400835329755985  0.05536874200659982  0.9780898326356323  1.0000
  Zn  Zn15      1.0  0.5563442275551863  0.9011687315194478  0.9787904695200353  1.0000
  Zn  Zn16      1.0  0.4822908476184936  0.9826771227090632  0.06000135881576797  1.0000
  H   H1        1.0  0.7487532009960418  0.45213986467643946  0.3503470106594335  1.0000
  H   H2        1.0  0.0013595587769117002  0.2976710420732473  0.399530081511756  1.0000
  H   H3        1.0  0.2005112049581328  0.7003875798078665  0.59873577238492  1.0000
  H   H4        1.0  0.049503943506167006  0.5495758331091024  0.6512321739557052  1.0000
  H   H5        1.0  0.4636247697932489  0.2392438025791322  0.3407904909808366  1.0000
  H   H6        1.0  0.47905633514388773  0.7027020068438289  0.6013795684878716  1.0000
  H   H7        1.0  0.2029674971857602  0.9788034421328716  0.60123133850405  1.0000
  H   H8        1.0  0.948922958909769  0.9708009677040225  0.3478609216747088  1.0000
  H   H9        1.0  0.6512590715167618  0.1514293858257362  0.04954402555531347  1.0000
  H   H10       1.0  0.5987915160572824  0.09862978303534224  0.20038685961385033  1.0000
  H   H11       1.0  0.5470431674190196  0.7715332460372082  0.1485160308852825  1.0000
  H   H12       1.0  0.16258170653421186  0.14162575975359462  0.04007463262257719  1.0000
  H   H13       1.0  0.2977335949912217  0.0013623612814797127  0.8996394352689592  1.0000
  H   H14       1.0  0.4522437504724478  0.7487219970255979  0.8503230562748031  1.0000
  H   H15       1.0  0.30067189724326937  0.27954331999949034  0.9021478191184896  1.0000
  H   H16       1.0  0.7863960530116926  0.010899768971796654  0.9091684277773951  1.0000
  H   H17       1.0  0.2313310993457094  0.5755552119468135  0.3990928337632624  1.0000
  H   H18       1.0  0.3306650174690589  0.5509491229300494  0.3968955581125897  1.0000
  H   H19       1.0  0.2759646425233981  0.5357722114441615  0.4439927662255129  1.0000
  H   H20       1.0  0.8212014466256575  0.4769225236738708  0.6535159642763304  1.0000
  H   H21       1.0  0.7571055212320559  0.5367196587883214  0.6909483001560162  1.0000
  H   H22       1.0  0.8238181891599936  0.5642194863928935  0.6559279656544206  1.0000
  H   H23       1.0  0.0643684819187555  0.32366789186159645  0.6560398716484741  1.0000
  H   H24       1.0  0.0365467849836065  0.25703114461526877  0.690906361618083  1.0000
  H   H25       1.0  0.9770608102829003  0.32135425638342935  0.653462820318694  1.0000
  H   H26       1.0  0.7982687148487314  0.7219197996400697  0.3898864853938662  1.0000
  H   H27       1.0  0.7320539573525194  0.819920767706485  0.3863070501488792  1.0000
  H   H28       1.0  0.7585370835445886  0.7667317384573449  0.4347768787569067  1.0000
  H   H29       1.0  0.7730068223441081  0.42877424993197605  0.0966322838999005  1.0000
  H   H30       1.0  0.7132406096011862  0.49289344972361704  0.05925828548571128  1.0000
  H   H31       1.0  0.6858878831754324  0.4260416718189288  0.09420985026702064  1.0000
  H   H32       1.0  0.0720108814327816  0.14828133718631878  0.2397794250144969  1.0000
  H   H33       1.0  0.1577280322172356  0.0697614148886814  0.2239035611470896  1.0000
  H   H34       1.0  0.06938209611979572  0.061099049239452086  0.23723629545955296  1.0000
  H   H35       1.0  0.4917367717143152  0.48297358544834174  0.815245622982033  1.0000
  H   H36       1.0  0.5180423295143369  0.429998860614326  0.8637961564116878  1.0000
  H   H37       1.0  0.45174478522351086  0.5279879291738894  0.8600885199700415  1.0000
  H   H38       1.0  0.973763259547802  0.7142896043992052  0.8059912144115131  1.0000
  H   H39       1.0  0.9193730063004254  0.6987869293512716  0.8531549827741856  1.0000
  H   H40       1.0  0.0186859650216888  0.6745094076466669  0.8507923940105967  1.0000
  C   C1        1.0  0.061473686337926395  0.3157633561627335  0.5615329395751375  1.0000
  C   C2        1.0  0.06903992578318709  0.5691913626560988  0.5690149210683302  1.0000
  C   C3        1.0  0.18429870322746922  0.438302525602147  0.43839783023210543  1.0000
  C   C4        1.0  0.9384211132439405  0.6844634478153254  0.4385560695055162  1.0000
  C   C5        1.0  0.9307147212672575  0.4309301305908734  0.43088660732856704  1.0000
  C   C6        1.0  0.8159619971766361  0.5617505670945204  0.5616797763260166  1.0000
  C   C7        1.0  0.5654838616706073  0.3110250448870389  0.3114786590751777  1.0000
  C   C8        1.0  0.6811397401796242  0.18080014507094683  0.1808992600221586  1.0000
  C   C9        1.0  0.6887085415042974  0.4345891008255762  0.18869502426841217  1.0000
  C   C10       1.0  0.9344490622370502  0.1885873151793475  0.18861750676052216  1.0000
  C   C11       1.0  0.8192494069295791  0.3188030298018774  0.31903779885306693  1.0000
  C   C12       1.0  0.8117656856043638  0.06530619475031317  0.31131886442577894  1.0000
  C   C13       1.0  0.4341941746844569  0.688731524959337  0.6882133222323148  1.0000
  C   C14       1.0  0.31902031564460026  0.8192386101337519  0.8189964113618373  1.0000
  C   C15       1.0  0.18873774133245289  0.934042979813874  0.6879786565510956  1.0000
  C   C16       1.0  0.0654172814573641  0.8114652712924412  0.8114690199882374  1.0000
  C   C17       1.0  0.1809584792408998  0.6808052525452836  0.680974872924402  1.0000
  C   C18       1.0  0.31171789101871633  0.5658132126285339  0.8115431398391522  1.0000
  C   C19       1.0  0.4379390286774338  0.18438500545430256  0.9385564649515814  1.0000
  C   C20       1.0  0.4309566346216939  0.9308311807306708  0.9309468735962626  1.0000
  C   C21       1.0  0.6844422788088451  0.9392571844610984  0.9387176326369229  1.0000
  C   C22       1.0  0.5612858790956209  0.8157939792430893  0.061767205786353044  1.0000
  C   C23       1.0  0.5689704321250204  0.06913411973776108  0.06911799829705248  1.0000
  C   C24       1.0  0.3151143376752259  0.06166325935924989  0.061062629840080304  1.0000
  C   C25       1.0  0.9008579759621895  0.40367321091022007  0.4021386297959424  1.0000
  C   C26       1.0  0.849339374924483  0.3462045206728136  0.3476342448762395  1.0000
  C   C27       1.0  0.8295197717387309  0.4458501724886189  0.38749118294610707  1.0000
  C   C28       1.0  0.9207266061215831  0.30407975800691395  0.36224105411839963  1.0000
  C   C29       1.0  0.8043441308063137  0.4179621755297022  0.3610020928576176  1.0000
  C   C30       1.0  0.9458434687258971  0.3318935974001179  0.3887939780219654  1.0000
  C   C31       1.0  0.0985382658807623  0.598406617644244  0.5969687686852438  1.0000
  C   C32       1.0  0.1514752829427763  0.6515420293639665  0.6529895894922504  1.0000
  C   C33       1.0  0.1416177274270254  0.6413475926024007  0.5832496855319959  1.0000
  C   C34       1.0  0.108418652535498  0.608592072487525  0.6667017767276846  1.0000
  C   C35       1.0  0.1673623163335449  0.667260663713705  0.610448344193081  1.0000
  C   C36       1.0  0.082663233226917  0.5826887177092744  0.639501446350458  1.0000
  C   C37       1.0  0.30363264286358316  0.45532954816298615  0.4013038834858166  1.0000
  C   C38       1.0  0.44613240910852875  0.2960624041250881  0.34887711795254017  1.0000
  C   C39       1.0  0.25900449252495145  0.41444465145214326  0.4137307134334023  1.0000
  C   C40       1.0  0.49071147258961645  0.3362801757952524  0.3364456263555126  1.0000
  C   C41       1.0  0.3779235180790863  0.3387388176053675  0.3725393318348793  1.0000
  C   C42       1.0  0.3715977587762395  0.41095516935536114  0.3777132011983327  1.0000
  C   C43       1.0  0.7272217932139213  0.5753409169021282  0.6296855602413345  1.0000
  C   C44       1.0  0.5241168567892344  0.6736334323009532  0.6211069883026497  1.0000
  C   C45       1.0  0.7418333856945054  0.5858768171020398  0.5869826946438793  1.0000
  C   C46       1.0  0.5092125998609305  0.6634993918821833  0.6634659548930061  1.0000
  C   C47       1.0  0.6032703065455465  0.6417747058827173  0.6084374906985914  1.0000
  C   C48       1.0  0.6474804992598067  0.6078242637567254  0.6414354109771878  1.0000
  C   C49       1.0  0.07541087472687738  0.22714930078357295  0.6296025408526731  1.0000
  C   C50       1.0  0.1739136672799191  0.023938543758070793  0.6209521918584642  1.0000
  C   C51       1.0  0.0858417939611726  0.24167797455591966  0.5868721725581239  1.0000
  C   C52       1.0  0.1637466540509322  0.009105918503479412  0.6633114039077412  1.0000
  C   C53       1.0  0.14198212825711923  0.10309969768122326  0.6083170820593152  1.0000
  C   C54       1.0  0.10799420468187287  0.14736689785916465  0.6413321991149418  1.0000
  C   C55       1.0  0.8433510053281522  0.7998338780192852  0.39747488578750284  1.0000
  C   C56       1.0  0.9049914199265174  0.9498293992716287  0.3525031984882645  1.0000
  C   C57       1.0  0.9126986662964072  0.7588238285929942  0.4135555873572585  1.0000
  C   C58       1.0  0.8362998173603912  0.9906772201382882  0.33640874421816847  1.0000
  C   C59       1.0  0.908323840346803  0.8801837058955115  0.3747623182606148  1.0000
  C   C60       1.0  0.8419249018421625  0.8692048406615169  0.37531316527203984  1.0000
  C   C61       1.0  0.6529738965357125  0.15306726384415742  0.15150722132595004  1.0000
  C   C62       1.0  0.5970223261625377  0.09705432327435667  0.0984419455855345  1.0000
  C   C63       1.0  0.6666073234273924  0.16693105200423008  0.10852055630184762  1.0000
  C   C64       1.0  0.5832930797456726  0.08326424239030669  0.14142864122228357  1.0000
  C   C65       1.0  0.6395098934683076  0.13968501117820145  0.08266468083494521  1.0000
  C   C66       1.0  0.610474435593531  0.11045669669695707  0.1672659424910917  1.0000
  C   C67       1.0  0.6745146218226951  0.5228805934667516  0.12053530584505272  1.0000
  C   C68       1.0  0.5760729932385759  0.7262584862100211  0.1288798897035547  1.0000
  C   C69       1.0  0.6639668542079988  0.5085822403603826  0.16327429718848663  1.0000
  C   C70       1.0  0.5863666606454956  0.7408464570180444  0.08649818494892969  1.0000
  C   C71       1.0  0.607891404077172  0.647150295523254  0.1416523035471542  1.0000
  C   C72       1.0  0.6419545126638653  0.6026590153865641  0.1087350401646319  1.0000
  C   C73       1.0  0.080832068973514  0.12427378908878949  0.1783127194642944  1.0000
  C   C74       1.0  0.1695940250206363  0.1253446967957785  0.07247549967401308  1.0000
  C   C75       1.0  0.0094718115778676  0.16343312651124356  0.16423642577635184  1.0000
  C   C76       1.0  0.24056531899196895  0.08658129659470866  0.08623309268538999  1.0000
  C   C77       1.0  0.1109853117340265  0.1394345565923558  0.1056921469451453  1.0000
  C   C78       1.0  0.1383352211956819  0.11105667276115132  0.1443141502317573  1.0000
  C   C79       1.0  0.3462947328202972  0.8492815282670065  0.8476718868700955  1.0000
  C   C80       1.0  0.40367709425057535  0.9008407665969713  0.9022459020151459  1.0000
  C   C81       1.0  0.3041435535467656  0.9206768414967071  0.8623315168121763  1.0000
  C   C82       1.0  0.4458237417663611  0.8294499782630635  0.8875808886332521  1.0000
  C   C83       1.0  0.3319451988441173  0.9458122314902085  0.8888978814457502  1.0000
  C   C84       1.0  0.418006068002974  0.8042905715495651  0.8610416197457341  1.0000
  C   C85       1.0  0.4067921954736562  0.45004424403441584  0.8525188250484347  1.0000
  C   C86       1.0  0.3447476032042474  0.3003125531430015  0.8974819235085078  1.0000
  C   C87       1.0  0.33748906636392917  0.491241666263356  0.8364113953652677  1.0000
  C   C88       1.0  0.41338523043676645  0.259222956102505  0.9135938969154368  1.0000
  C   C89       1.0  0.3416558012971649  0.3698692202210267  0.8751865227961417  1.0000
  C   C90       1.0  0.40813363857799345  0.38066746860457085  0.8746649731784402  1.0000
  C   C91       1.0  0.946074209377251  0.7946186020987087  0.8487357402813416  1.0000
  C   C92       1.0  0.8037488462293892  0.9541054313178635  0.90109716994084  1.0000
  C   C93       1.0  0.9908060327403589  0.8353845016146831  0.8362593983682345  1.0000
  C   C94       1.0  0.7590777898624737  0.914001410383868  0.9136229454419436  1.0000
  C   C95       1.0  0.871905842906621  0.9112722948480394  0.8774412024752536  1.0000
  C   C96       1.0  0.8781168530667429  0.8390600606282774  0.8723257603008676  1.0000
  C   C97       1.0  0.2846900198194078  0.5335460594271737  0.41073103562327157  1.0000
  C   C98       1.0  0.7852015232551041  0.5362616802437047  0.6592647000137788  1.0000
  C   C99       1.0  0.03631872413234301  0.28515212805907447  0.6592362277103945  1.0000
  C   C100      1.0  0.7794566101602811  0.7761182362812137  0.4022603132374342  1.0000
  C   C101      1.0  0.7136841170570634  0.464806291348907  0.09094255007467211  1.0000
  C   C102      1.0  0.09616576370541449  0.09938246685287307  0.2220990040175721  1.0000
  C   C103      1.0  0.47070930895860386  0.47371447026343116  0.8477621888705755  1.0000
  C   C104      1.0  0.9651753116143312  0.716399224784901  0.8392623125941086  1.0000
  S   S1        1.0  0.2993054910573605  0.3245052870387042  0.3970088190686525  1.0000
  S   S2        1.0  0.45012735633206796  0.42584198416200564  0.3533169211208431  1.0000
  S   S3        1.0  0.6601755928308393  0.6340134370580301  0.5620712550232626  1.0000
  S   S4        1.0  0.5909889036725815  0.6153942523172516  0.6880678693735263  1.0000
  S   S5        1.0  0.1340904137927836  0.15995831874020175  0.5619637499716958  1.0000
  S   S6        1.0  0.11557920984417079  0.09088683116360838  0.6879509206349397  1.0000
  S   S7        1.0  0.974098075310998  0.8040867703030868  0.4018219082973005  1.0000
  S   S8        1.0  0.7755653861767656  0.945028482044549  0.3482677946126671  1.0000
  S   S9        1.0  0.6156114834404037  0.590464859949833  0.18806832681316618  1.0000
  S   S10       1.0  0.6346303963266634  0.6588547875786265  0.062030856602760275  1.0000
  S   S11       1.0  0.0129724494209995  0.18329096265738795  0.11094132949564539  1.0000
  S   S12       1.0  0.236523246021342  0.06705537035573168  0.13941765481976634  1.0000
  S   S13       1.0  0.2760014975152529  0.446061485921831  0.8480993074687859  1.0000
  S   S14       1.0  0.4743311445137833  0.30468782119127985  0.9017638130668999  1.0000
  S   S15       1.0  0.9506285453309078  0.9253498973342357  0.8529617122631308  1.0000
  S   S16       1.0  0.7995206718264781  0.8243529048293821  0.8968144646024215  1.0000
  O   O1        1.0  0.0007067264392404006  0.4986925842531209  0.49967296851453813  1.0000
  O   O2        1.0  0.0776745318709331  0.31484806033802215  0.5225793931990523  1.0000
  O   O3        1.0  0.030603121382903  0.5312700357172487  0.5864629072061973  1.0000
  O   O4        1.0  0.15570100905132728  0.5046479140045577  0.45011137501066395  1.0000
  O   O5        1.0  0.0261129571187269  0.37497979007709864  0.5804523286085796  1.0000
  O   O6        1.0  0.1539576981727819  0.3906473511397052  0.44609379114091746  1.0000
  O   O7        1.0  0.0843517986548719  0.5843699629069264  0.53066291507389  1.0000
  O   O8        1.0  0.0054132497585754995  0.6575337429975149  0.44949136618374297  1.0000
  O   O9        1.0  0.8882762608562871  0.49620981150184196  0.44238071657799344  1.0000
  O   O10       1.0  0.8922187362769947  0.6526907290989212  0.44745523601812925  1.0000
  O   O11       1.0  0.9965211392821017  0.38583509091038337  0.44136680322795036  1.0000
  O   O12       1.0  0.8752745514100939  0.5259089259005519  0.580408128808628  1.0000
  O   O13       1.0  0.8149187670106599  0.5787633705493814  0.522756353791344  1.0000
  O   O14       1.0  0.7484991784766066  0.2505468572815485  0.25047070179739717  1.0000
  O   O15       1.0  0.5965576909980825  0.3579270701367249  0.30362022010243805  1.0000
  O   O16       1.0  0.6639970652929819  0.1630956505906411  0.21903859319356658  1.0000
  O   O17       1.0  0.7246454463262354  0.3753300068877934  0.16991733920422541  1.0000
  O   O18       1.0  0.5925537862303543  0.2447313194519012  0.2999286593493125  1.0000
  O   O19       1.0  0.6722591462147136  0.4355739573886979  0.22768902968993388  1.0000
  O   O20       1.0  0.7194657965641937  0.2192243518166991  0.16558631161407789  1.0000
  O   O21       1.0  0.8764444509206015  0.22487143726598907  0.1687088504968415  1.0000
  O   O22       1.0  0.8616096934692692  0.2534790794545926  0.30760070175217885  1.0000
  O   O23       1.0  0.9328682842118567  0.17232827828163977  0.22759827298146718  1.0000
  O   O24       1.0  0.7533453642733435  0.3637979868183194  0.3086587056822622  1.0000
  O   O25       1.0  0.7452749142156065  0.09293981775140744  0.2998539530226481  1.0000
  O   O26       1.0  0.8590461988794331  0.09575976571348835  0.3031711891454165  1.0000
  O   O27       1.0  0.25039700254804126  0.7505447424388975  0.7494703106950312  1.0000
  O   O28       1.0  0.37597982549027614  0.7239855333806416  0.6686890704599406  1.0000
  O   O29       1.0  0.3642682149126911  0.7532356768773525  0.8086013652140593  1.0000
  O   O30       1.0  0.1723963471251508  0.9340787042850921  0.7269202262619885  1.0000
  O   O31       1.0  0.4342695555586431  0.6728730118426751  0.7271968350737694  1.0000
  O   O32       1.0  0.22426686597652426  0.8757777975992979  0.6684151013288046  1.0000
  O   O33       1.0  0.2538335655824184  0.8613291979038208  0.8074845544527136  1.0000
  O   O34       1.0  0.09540030839482229  0.8594497059112598  0.8034462675122853  1.0000
  O   O35       1.0  0.16553248120705183  0.6655539475741749  0.7193250836176334  1.0000
  O   O36       1.0  0.09449984388295721  0.7449752793103098  0.7999005653349583  1.0000
  O   O37       1.0  0.2193176709358085  0.7187479926115684  0.6635527600315213  1.0000
  O   O38       1.0  0.3576776208228906  0.5979476598691918  0.8029541739673932  1.0000
  O   O39       1.0  0.2448784628669429  0.5926331059772849  0.8004593206356603  1.0000
  O   O40       1.0  0.4996503839564284  0.0008030693196019472  0.9997712229950296  1.0000
  O   O41       1.0  0.504296937465078  0.157123935658376  0.9501517987572186  1.0000
  O   O42       1.0  0.3858871794946808  0.9968691258036766  0.9412690052538366  1.0000
  O   O43       1.0  0.6537570125569445  0.8920185828963696  0.9469284483609784  1.0000
  O   O44       1.0  0.39103284747092454  0.15351677477170259  0.9463805610972713  1.0000
  O   O45       1.0  0.6569684007484468  0.0057280161862607  0.9500867470146234  1.0000
  O   O46       1.0  0.4960701490886096  0.8884974718067793  0.942552988216825  1.0000
  O   O47       1.0  0.5780619365689219  0.8157910284492258  0.022815096900146208  1.0000
  O   O48       1.0  0.5306091821456107  0.030762499530744922  0.08448141682836757  1.0000
  O   O49       1.0  0.5250592082106422  0.8741178066398304  0.08120921936820477  1.0000
  O   O50       1.0  0.5862579984691791  0.08658062530576413  0.030958028928360196  1.0000
  O   O51       1.0  0.31501986487497646  0.0777927072125095  0.022174089686984606  1.0000
  O   O52       1.0  0.3735166201362787  0.025877918649676687  0.0805535904652643  1.0000
  F   F1        1.0  0.7821309485276302  0.5157953390424124  0.39869414936097064  1.0000
  F   F2        1.0  0.9682163900128489  0.23418645339082636  0.35097298006738237  1.0000
  F   F3        1.0  0.1598907890298236  0.6592497486090991  0.5427147184427028  1.0000
  F   F4        1.0  0.0901133897767536  0.5906144480775595  0.7072376908570632  1.0000
  F   F5        1.0  0.7069845174299801  0.2076927789680098  0.09045017990212045  1.0000
  F   F6        1.0  0.5428078115255771  0.04266456256009131  0.1595036394908433  1.0000
  F   F7        1.0  0.23432100944690148  0.9681012167347235  0.8511054567658931  1.0000
  F   F8        1.0  0.5156447584285928  0.7819906523811042  0.8987959580192566  1.0000
