data_image0
_chemical_formula_structural       Ho4Cu6H60C48N12O48
_chemical_formula_sum              "Ho4 Cu6 H60 C48 N12 O48"
_cell_length_a       13.38500004873854
_cell_length_b       13.384942831927054
_cell_length_c       14.29211755703228
_cell_angle_alpha    90.00015530705174
_cell_angle_beta     90.00008206773833
_cell_angle_gamma    120.00021186067673

_space_group_name_H-M_alt    "P 1"
_space_group_IT_number       1

loop_
  _space_group_symop_operation_xyz
  'x, y, z'

loop_
  _atom_site_type_symbol
  _atom_site_label
  _atom_site_symmetry_multiplicity
  _atom_site_fract_x
  _atom_site_fract_y
  _atom_site_fract_z
  _atom_site_occupancy
  Ho  Ho1       1.0  0.6666636547525897  0.33333204411715667  0.1684818428767798  1.0000
  Ho  Ho2       1.0  0.33333571351388996  0.6666695404291049  0.33152156211357914  1.0000
  Ho  Ho3       1.0  0.3333380103275018  0.6666694781058167  0.8315153504042883  1.0000
  Ho  Ho4       1.0  0.6666643417883975  0.3333320973830354  0.6684805289712372  1.0000
  Cu  Cu1       1.0  0.49999903300393095  0.9999991408366  0.9999996606853683  1.0000
  Cu  Cu2       1.0  0.49999939839845814  0.4999999607381796  9.600742175000003e-07  1.0000
  Cu  Cu3       1.0  1.1288240600688688e-06  0.5000006743219104  9.998677799999993e-08  1.0000
  Cu  Cu4       1.0  0.500000215115577  1.0560179290179176e-06  0.49999971711826413  1.0000
  Cu  Cu5       1.0  8.731253160019525e-07  0.500000189709027  0.5000000145193084  1.0000
  Cu  Cu6       1.0  0.49999933832636856  0.4999992668940364  0.49999964616723946  1.0000
  H   H1        1.0  0.640012698634507  0.9632930776063373  0.9162486469648241  1.0000
  H   H2        1.0  0.8316740064302762  0.13652379959003014  0.9738522143328793  1.0000
  H   H3        1.0  0.7402919404433845  0.027077298165963316  0.054434725633576896  1.0000
  H   H4        1.0  0.6892583222629584  0.08510015395798827  0.79345821304355  1.0000
  H   H5        1.0  0.7416020615793856  0.20433060631443575  0.8682625682619685  1.0000
  H   H6        1.0  0.32327869778969637  0.35998209473599013  0.9162497774836068  1.0000
  H   H7        1.0  0.30484047202019576  0.16831935146053917  0.9738526048830706  1.0000
  H   H8        1.0  0.28678518191162544  0.2597072154477403  0.054436117006289884  1.0000
  H   H9        1.0  0.3958415974124065  0.3107383846242797  0.7934590020253367  1.0000
  H   H10       1.0  0.462723371168508  0.2583921873610037  0.8682603523786199  1.0000
  H   H11       1.0  0.03670144730787684  0.6767182298362826  0.9162471871192892  1.0000
  H   H12       1.0  0.8634759016389995  0.6951509152371147  0.973851538494763  1.0000
  H   H13       1.0  0.9729242776915115  0.7132175844909908  0.05443224416602989  1.0000
  H   H14       1.0  0.9148929413028599  0.604149133986958  0.7934569161981955  1.0000
  H   H15       1.0  0.7956645431608322  0.537267272664458  0.868260224002178  1.0000
  H   H16       1.0  0.67672773276189  0.03670590611802283  0.5837453432420645  1.0000
  H   H17       1.0  0.6951575283931746  0.8634747034478708  0.5261426147814845  1.0000
  H   H18       1.0  0.7132273725299569  0.9729244346204028  0.4455612833421938  1.0000
  H   H19       1.0  0.6041577344513842  0.9148970683445371  0.7065343623319292  1.0000
  H   H20       1.0  0.5372687097994202  0.7956687405902796  0.6317299974774143  1.0000
  H   H21       1.0  0.9632979215359965  0.6400245241897691  0.583748390862425  1.0000
  H   H22       1.0  0.1365289614101929  0.8316817517314875  0.5261422046145439  1.0000
  H   H23       1.0  0.0270753835500985  0.7403002059388158  0.4455647342466306  1.0000
  H   H24       1.0  0.08510785019785781  0.6892628734325328  0.7065393321329765  1.0000
  H   H25       1.0  0.2043325238696526  0.7416021857278993  0.631735306353235  1.0000
  H   H26       1.0  0.3599771205584901  0.32327290692757765  0.5837496918095085  1.0000
  H   H27       1.0  0.16831958041939302  0.30485136309447114  0.5261436622637062  1.0000
  H   H28       1.0  0.25969558937576664  0.2867718915131476  0.4455650177829966  1.0000
  H   H29       1.0  0.3107393296547231  0.3958469683430011  0.7065384130029173  1.0000
  H   H30       1.0  0.2583994950079998  0.4627316954203807  0.6317328924497616  1.0000
  H   H31       1.0  0.3599855466811731  0.03670588752873271  0.08375204474266697  1.0000
  H   H32       1.0  0.1683245546562235  0.8634763440020661  0.0261498767490664  1.0000
  H   H33       1.0  0.2597063048751023  0.97292166697256  0.9455673654466705  1.0000
  H   H34       1.0  0.3107388601782193  0.9148968856152069  0.20654317834719643  1.0000
  H   H35       1.0  0.2583969308455852  0.7956691059323762  0.13173882313333957  1.0000
  H   H36       1.0  0.6767202946310678  0.6400176175056561  0.0837495148525633  1.0000
  H   H37       1.0  0.6951589517418384  0.8316799294392682  0.02614738713921839  1.0000
  H   H38       1.0  0.7132149889597059  0.7402928125638155  0.9455645747038088  1.0000
  H   H39       1.0  0.6041608147811888  0.689263884715608  0.20654099000269344  1.0000
  H   H40       1.0  0.537275621253663  0.7416075248823689  0.1317396396439321  1.0000
  H   H41       1.0  0.9632990393272677  0.32328297662367333  0.08375140553336989  1.0000
  H   H42       1.0  0.13652309078317162  0.3048487970062581  0.0261484535277816  1.0000
  H   H43       1.0  0.027076640284903447  0.2867831906271335  0.9455670481727478  1.0000
  H   H44       1.0  0.08510679822579452  0.39585132536470974  0.20654237613940293  1.0000
  H   H45       1.0  0.20433488059979502  0.46273200823362953  0.1317390683337294  1.0000
  H   H46       1.0  0.32327350098114505  0.9632960474519622  0.4162532494120228  1.0000
  H   H47       1.0  0.3048451995656336  0.13652874434214363  0.4738559778754733  1.0000
  H   H48       1.0  0.2867742925515415  0.027077087604297462  0.5544366096252631  1.0000
  H   H49       1.0  0.3958426366119028  0.0851057479125572  0.29346423032266955  1.0000
  H   H50       1.0  0.4627313454944471  0.2043328972115148  0.3682678954891117  1.0000
  H   H51       1.0  0.03670224933393486  0.35997550382005983  0.4162516011612993  1.0000
  H   H52       1.0  0.863469283904081  0.16831721340186334  0.47385778740656537  1.0000
  H   H53       1.0  0.9729236088720652  0.25969950630454947  0.5544352577759213  1.0000
  H   H54       1.0  0.9148920049054539  0.31073597612544285  0.29346135957543135  1.0000
  H   H55       1.0  0.7956672156590018  0.25839827362376155  0.3682639859843703  1.0000
  H   H56       1.0  0.6400227345448217  0.6767259426303981  0.4162509998989066  1.0000
  H   H57       1.0  0.8316798433426414  0.6951479178053432  0.4738563297585826  1.0000
  H   H58       1.0  0.7403038343862747  0.7132273893866665  0.5544349742392923  1.0000
  H   H59       1.0  0.6892596627674408  0.6041527439003644  0.2934615790196274  1.0000
  H   H60       1.0  0.7415999287526345  0.5372675854777069  0.3682663998861456  1.0000
  C   C1        1.0  0.7388025371823445  0.18428736737987358  0.0696873857382698  1.0000
  C   C2        1.0  0.7461843457104607  0.09499931380351963  0.007676173527265498  1.0000
  C   C3        1.0  0.6683573251800824  0.11691692329450382  0.857250045864788  1.0000
  C   C4        1.0  0.562806515745578  0.12853563469763427  0.8384123341130801  1.0000
  C   C5        1.0  0.44548275656774916  0.2611921853119484  0.06968728806917569  1.0000
  C   C6        1.0  0.3488109936406332  0.25380970597634434  0.007676809585376498  1.0000
  C   C7        1.0  0.4485558099964209  0.3316369664548446  0.8572508699000209  1.0000
  C   C8        1.0  0.5657285593097826  0.43718622800663814  0.8384134238566503  1.0000
  C   C9        1.0  0.8157113996540776  0.5545169970217289  0.0696865028859435  1.0000
  C   C10       1.0  0.9050006651770346  0.6511858932006405  0.0076762784756426  1.0000
  C   C11       1.0  0.8830787000394836  0.5514371580957587  0.8572507345537588  1.0000
  C   C12       1.0  0.8714634017458495  0.43426976208147033  0.8384178209097612  1.0000
  C   C13       1.0  0.5545224286886707  0.8157157893595937  0.4303057183373014  1.0000
  C   C14       1.0  0.6511959346264363  0.9050024304833997  0.4923169995011775  1.0000
  C   C15       1.0  0.551440538111038  0.8830816791372558  0.6427424807276408  1.0000
  C   C16       1.0  0.4342762178486269  0.871467364199148  0.6615786455248198  1.0000
  C   C17       1.0  0.18428503125926465  0.738808236927632  0.4303074753406975  1.0000
  C   C18       1.0  0.09499896318197909  0.7461909348390705  0.4923192299683023  1.0000
  C   C19       1.0  0.11691981110200088  0.6683596870674435  0.6427461208929515  1.0000
  C   C20       1.0  0.12853769280221883  0.5628103682683303  0.6615794541640481  1.0000
  C   C21       1.0  0.2611945292462536  0.44547612857820695  0.4303057580755904  1.0000
  C   C22       1.0  0.2538090742898407  0.3488071322556722  0.4923188355067296  1.0000
  C   C23       1.0  0.3316416241686114  0.44856165268194564  0.6427452871060808  1.0000
  C   C24       1.0  0.4371932056175753  0.5657278671362463  0.6615810617431563  1.0000
  C   C25       1.0  0.26119421391614855  0.8157101035334335  0.9303126062799691  1.0000
  C   C26       1.0  0.25381315249872954  0.9049989042232556  0.9923252178651722  1.0000
  C   C27       1.0  0.3316409201369978  0.883082041842293  0.14275134552908497  1.0000
  C   C28       1.0  0.43719310821121854  0.8714664344511648  0.1615869582264651  1.0000
  C   C29       1.0  0.5545154887437178  0.7388067798179564  0.9303113045791773  1.0000
  C   C30       1.0  0.6511876830135106  0.7461888278134408  0.992323182435477  1.0000
  C   C31       1.0  0.5514443608749103  0.668363061556711  0.142749821810078  1.0000
  C   C32       1.0  0.4342740840303209  0.5628128217424262  0.16158796754024243  1.0000
  C   C33       1.0  0.18429049657112265  0.44548130560870186  0.9303113900776124  1.0000
  C   C34       1.0  0.09500025279937327  0.34881488191748394  0.9923230138631354  1.0000
  C   C35       1.0  0.116921470830448  0.4485628699140776  0.1427492574699585  1.0000
  C   C36       1.0  0.12853987313170026  0.5657316445764665  0.1615842701768955  1.0000
  C   C37       1.0  0.4454820246296265  0.18428593305619492  0.5696928743186263  1.0000
  C   C38       1.0  0.34880679333237913  0.09500101730661467  0.5076815931557801  1.0000
  C   C39       1.0  0.4485606956319899  0.11692027443272218  0.3572561119264464  1.0000
  C   C40       1.0  0.565724268785111  0.12853384225908823  0.33841924744145757  1.0000
  C   C41       1.0  0.8157145926989388  0.2611938322228938  0.5696925166852295  1.0000
  C   C42       1.0  0.905000029240192  0.25380877740430213  0.5076807620542425  1.0000
  C   C43       1.0  0.8830812224490712  0.3316394782569955  0.357254570816636  1.0000
  C   C44       1.0  0.8714633407404335  0.4371887970457634  0.33841703942726287  1.0000
  C   C45       1.0  0.738805325858458  0.5545227209814955  0.569695633319199  1.0000
  C   C46       1.0  0.7461903494721936  0.6511921486441421  0.5076811565155593  1.0000
  C   C47       1.0  0.6683588624707398  0.551439553783183  0.3572554046057163  1.0000
  C   C48       1.0  0.5628068496790989  0.4342737706689945  0.3384182305961332  1.0000
  N   N1        1.0  0.652749211886814  0.04268679220046322  0.9386500562881464  1.0000
  N   N2        1.0  0.38993540211739497  0.3472469928782687  0.9386516644785485  1.0000
  N   N3        1.0  0.9573099523054082  0.6100601056689071  0.9386495721980808  1.0000
  N   N4        1.0  0.6100673973267021  0.9573129082746306  0.5613431984994077  1.0000
  N   N5        1.0  0.042689032337037226  0.6527549834813299  0.5613466376569889  1.0000
  N   N6        1.0  0.347244422416118  0.38993216865622315  0.5613465089841367  1.0000
  N   N7        1.0  0.34724946477014373  0.9573117415927754  0.061351335105470584  1.0000
  N   N8        1.0  0.6100635903047688  0.6527527193650965  0.06134832754399609  1.0000
  N   N9        1.0  0.042690534331136176  0.3899411007927824  0.061349720140952996  1.0000
  N   N10       1.0  0.3899334050764622  0.04268947663890536  0.43865539415493515  1.0000
  N   N11       1.0  0.9573115698727576  0.3472446131849409  0.4386533543664796  1.0000
  N   N12       1.0  0.652754254238026  0.6100663651335694  0.4386534830367168  1.0000
  O   O1        1.0  0.64780488924103  0.19275527275602397  0.0629934364846392  1.0000
  O   O2        1.0  0.8202513473339792  0.24408563828640678  0.12536435893154868  1.0000
  O   O3        1.0  0.5644030255586046  0.18795096855733812  0.7692365165252395  1.0000
  O   O4        1.0  0.4764835991255153  0.07945890748359122  0.8936944361023506  1.0000
  O   O5        1.0  0.5449480300277045  0.352194802689489  0.062990770070094  1.0000
  O   O6        1.0  0.4238377020649582  0.1797466567818305  0.12536191627504678  1.0000
  O   O7        1.0  0.623540595911372  0.4355801291830089  0.769241065220207  1.0000
  O   O8        1.0  0.602978240115526  0.523513307810049  0.8936950783148416  1.0000
  O   O9        1.0  0.8072430713743375  0.45505007573397194  0.0629945716559064  1.0000
  O   O10       1.0  0.7559113987640272  0.576167223198631  0.1253598360752832  1.0000
  O   O11       1.0  0.8120400129174284  0.3764490403161955  0.7692383170322046  1.0000
  O   O12       1.0  0.9205365388332893  0.39702024937606956  0.8936951296901153  1.0000
  O   O13       1.0  0.45506076292879527  0.8072549970575196  0.4370016404467875  1.0000
  O   O14       1.0  0.576168376737499  0.7559114016007484  0.3746330115727331  1.0000
  O   O15       1.0  0.37645541857220627  0.8120461517637452  0.7307628220835197  1.0000
  O   O16       1.0  0.3970232748932007  0.9205396927799968  0.6063041581898145  1.0000
  O   O17       1.0  0.19274581945759206  0.6478049619421783  0.4369984673675872  1.0000
  O   O18       1.0  0.2440894683959417  0.820261027838079  0.3746384699221892  1.0000
  O   O19       1.0  0.18795995686004113  0.5644105314507328  0.7307623857767283  1.0000
  O   O20       1.0  0.07946687566498413  0.4764852116861888  0.6063019899929998  1.0000
  O   O21       1.0  0.35219383729347703  0.544940360909557  0.4369991433660586  1.0000
  O   O22       1.0  0.17974188353878162  0.42382625111917355  0.3746330309687593  1.0000
  O   O23       1.0  0.4356007219952006  0.6235528164859758  0.7307598255060765  1.0000
  O   O24       1.0  0.5235169798324506  0.6029754572298599  0.6063017436251172  1.0000
  O   O25       1.0  0.3521926089639466  0.8072429452655855  0.9370058558486605  1.0000
  O   O26       1.0  0.17974273110799305  0.7559100226490187  0.8746391315145485  1.0000
  O   O27       1.0  0.4355971453113272  0.8120490594524982  0.23076347549848455  1.0000
  O   O28       1.0  0.5235145306169073  0.9205416674468979  0.10630555592070577  1.0000
  O   O29       1.0  0.45505096239305964  0.647804909552157  0.9370085222660689  1.0000
  O   O30       1.0  0.5761621530355472  0.8202521927726992  0.8746373760606045  1.0000
  O   O31       1.0  0.3764601218801006  0.5644178576981957  0.23076382460597955  1.0000
  O   O32       1.0  0.397021614993399  0.47648554175481916  0.10630841213909288  1.0000
  O   O33       1.0  0.19275796216690824  0.5449490895783954  0.9370012222490229  1.0000
  O   O34       1.0  0.24408900325240507  0.42382958522037467  0.8746415553173035  1.0000
  O   O35       1.0  0.18796219907859785  0.6235504407712541  0.230760975305806  1.0000
  O   O36       1.0  0.07946512625522213  0.6029812728572495  0.1063062617092356  1.0000
  O   O37       1.0  0.544942080607477  0.19274684094225591  0.5629997509537432  1.0000
  O   O38       1.0  0.42383328834540623  0.24409012062567828  0.6253655810810983  1.0000
  O   O39       1.0  0.623545499401402  0.1879546233509329  0.2692350708825018  1.0000
  O   O40       1.0  0.6029764646340466  0.07946076656994448  0.393694434461402  1.0000
  O   O41       1.0  0.8072534887325915  0.35219592875476724  0.5630015246566487  1.0000
  O   O42       1.0  0.755910586904939  0.17974060997233474  0.6253629214762384  1.0000
  O   O43       1.0  0.8120447276131842  0.43558797138457095  0.269241804366345  1.0000
  O   O44       1.0  0.9205368305468226  0.5235157636213043  0.3936973023478743  1.0000
  O   O45       1.0  0.6478060178112415  0.45505848865014537  0.5630022480287378  1.0000
  O   O46       1.0  0.82025828733255  0.5761737768923753  0.6253676607413394  1.0000
  O   O47       1.0  0.5644016902026082  0.37644945285908454  0.2692422655810915  1.0000
  O   O48       1.0  0.47648201258831346  0.397024255011786  0.3936975487110459  1.0000
