data_image0
_chemical_formula_structural       K2Cu2H48C32I4O12
_chemical_formula_sum              "K2 Cu2 H48 C32 I4 O12"
_cell_length_a       9.276242285298038
_cell_length_b       9.639158734109476
_cell_length_c       12.680092801486072
_cell_angle_alpha    93.12982189641205
_cell_angle_beta     93.71666629098783
_cell_angle_gamma    109.81045180594005

_space_group_name_H-M_alt    "P 1"
_space_group_IT_number       1

loop_
  _space_group_symop_operation_xyz
  'x, y, z'

loop_
  _atom_site_type_symbol
  _atom_site_label
  _atom_site_symmetry_multiplicity
  _atom_site_fract_x
  _atom_site_fract_y
  _atom_site_fract_z
  _atom_site_occupancy
  K   K1        1.0  0.5981613931318179  0.6507820096900048  0.14735340972960387  1.0000
  K   K2        1.0  0.40183168345148346  0.3492158093795723  0.8526456791623714  1.0000
  Cu  Cu1       1.0  0.9592514519067309  0.998207825095285  0.4023906752726276  1.0000
  Cu  Cu2       1.0  0.0407466584105052  0.0017889345850505983  0.5976093901765863  1.0000
  H   H1        1.0  0.276356295051734  0.31554518361897266  0.4309020004929919  1.0000
  H   H2        1.0  0.7236418953998154  0.6844548872530113  0.5690981915163889  1.0000
  H   H3        1.0  0.3134749630328599  0.081511411448588  0.46623842319367975  1.0000
  H   H4        1.0  0.6865239164818462  0.9184875528210058  0.5337609701708246  1.0000
  H   H5        1.0  0.5567295339505804  0.03999694408243929  0.4203823454217428  1.0000
  H   H6        1.0  0.4432701147615887  0.9600042247764121  0.579616375858059  1.0000
  H   H7        1.0  0.7511933154379379  0.227249589220456  0.33329771915543915  1.0000
  H   H8        1.0  0.24880595180194828  0.7727504813715315  0.6667017327886525  1.0000
  H   H9        1.0  0.8402687857511069  0.35932338240994705  0.20767118642939408  1.0000
  H   H10       1.0  0.15972792768111074  0.6406755663085945  0.7923281085779337  1.0000
  H   H11       1.0  0.9412513795017076  0.48156244841875656  0.32053582544979514  1.0000
  H   H12       1.0  0.05874641697175063  0.5184365080753112  0.6794635187361208  1.0000
  H   H13       1.0  0.9505328775264131  0.6993112538202765  0.21477591166703283  1.0000
  H   H14       1.0  0.04946787298570851  0.30068994698068263  0.7852252265229892  1.0000
  H   H15       1.0  0.05202066692403658  0.587131109581847  0.16207339248114744  1.0000
  H   H16       1.0  0.9479807851570499  0.41286900072777405  0.8379285255517529  1.0000
  H   H17       1.0  0.012670299593011636  0.6612701903564258  0.9810458376593514  1.0000
  H   H18       1.0  0.9873307522570798  0.3387287975197423  0.018954443306213875  1.0000
  H   H19       1.0  0.9220109238438852  0.7801872868560976  0.03879614985154228  1.0000
  H   H20       1.0  0.0779915925197301  0.21981280706246048  0.9612034496283144  1.0000
  H   H21       1.0  0.8437318838828815  0.6982425002866605  0.8425951466643156  1.0000
  H   H22       1.0  0.15626916171430588  0.30175647953398516  0.15740434505737258  1.0000
  H   H23       1.0  0.7639894969019779  0.511824355823812  0.8771829941583035  1.0000
  H   H24       1.0  0.23601194892619762  0.4881757464302795  0.1228181346307196  1.0000
  H   H25       1.0  0.6521615023521649  0.7951234481075602  0.8102166045360659  1.0000
  H   H26       1.0  0.34783954324502286  0.2048755317130855  0.18978288718562195  1.0000
  H   H27       1.0  0.7297814571460818  0.8759085119324722  0.9411717101948437  1.0000
  H   H28       1.0  0.2702214406898165  0.1240926802529501  0.0588271586207227  1.0000
  H   H29       1.0  0.45760915019101833  0.8788751891927475  0.8753263771892463  1.0000
  H   H30       1.0  0.542391895406169  0.12112379062789098  0.12467311453244176  1.0000
  H   H31       1.0  0.39124332598541395  0.6853194766734418  0.8902714925263452  1.0000
  H   H32       1.0  0.6087588089059253  0.31467951897825225  0.10972883761780847  1.0000
  H   H33       1.0  0.24267461512617675  0.7186865485712418  0.0253067840179355  1.0000
  H   H34       1.0  0.7573282150812161  0.2813113485335846  0.9746935367252191  1.0000
  H   H35       1.0  0.307835736107144  0.9143675944530542  0.018182916926363587  1.0000
  H   H36       1.0  0.6921645277867725  0.08562916466728147  0.9818156683922722  1.0000
  H   H37       1.0  0.4384611161407221  0.9372636132804072  0.20810596603984516  1.0000
  H   H38       1.0  0.5615381448462599  0.06273644925605029  0.7918926966603692  1.0000
  H   H39       1.0  0.2329331286720091  0.8681623069089426  0.19726091741107865  1.0000
  H   H40       1.0  0.7670664399058467  0.1318355507582538  0.8027376773085564  1.0000
  H   H41       1.0  0.27297569987878484  0.7588281858226152  0.36553594748593793  1.0000
  H   H42       1.0  0.7270235611081973  0.2411718767138424  0.6344627152142762  1.0000
  H   H43       1.0  0.4754717265945487  0.8028636551344591  0.357677377037291  1.0000
  H   H44       1.0  0.5245283160957115  0.19713862810230862  0.6423221920659684  1.0000
  H   H45       1.0  0.3495110438991631  0.5755448322129483  0.45357427282989693  1.0000
  H   H46       1.0  0.6504900818323378  0.4244574587993455  0.5464253454519578  1.0000
  H   H47       1.0  0.23950279738348706  0.4874319885022445  0.33201622372546774  1.0000
  H   H48       1.0  0.7604990299169785  0.5125692120187039  0.6679841743992583  1.0000
  C   C1        1.0  0.49033061302709063  0.40512663537543137  0.3585428659631801  1.0000
  C   C2        1.0  0.5096679651496457  0.594874541818946  0.641457384625788  1.0000
  C   C3        1.0  0.38033864744393503  0.29780934712366053  0.40796433007270844  1.0000
  C   C4        1.0  0.619661013774042  0.7021918378462358  0.5920359696948481  1.0000
  C   C5        1.0  0.4025159995681449  0.16493933656360577  0.42903659614669454  1.0000
  C   C6        1.0  0.5974825723556876  0.8350618325752492  0.570962865198389  1.0000
  C   C7        1.0  0.5359657708505523  0.141229680992609  0.4026401739253983  1.0000
  C   C8        1.0  0.4640345731776706  0.8587703893193749  0.5973585379534114  1.0000
  C   C9        1.0  0.6476633031794278  0.24840520538555205  0.35322971068335807  1.0000
  C   C10       1.0  0.3523363580385492  0.7515959795843513  0.6467705890841913  1.0000
  C   C11       1.0  0.6249177964628316  0.37935671109399033  0.3296914221098318  1.0000
  C   C12       1.0  0.37508116318618795  0.6206455643672514  0.6703080978148392  1.0000
  C   C13       1.0  0.8637898421403918  0.4697997111744527  0.24835545621152721  1.0000
  C   C14       1.0  0.1362087485421455  0.5302014821309768  0.7516463728651884  1.0000
  C   C15       1.0  0.9366595269624369  0.5890574495685642  0.17658672527262806  1.0000
  C   C16       1.0  0.06333935255226208  0.4109415147010295  0.8234126680918763  1.0000
  C   C17       1.0  0.9015494120417673  0.6668763888040629  0.0035202695152634004  1.0000
  C   C18       1.0  0.09845202753351145  0.33312370539449887  0.9964800700298824  1.0000
  C   C19       1.0  0.7899468598113302  0.6282571598028922  0.9052438323186391  1.0000
  C   C20       1.0  0.21005419203876133  0.3717418280732829  0.094756448646919  1.0000
  C   C21       1.0  0.6368703168787917  0.7846206028278219  0.8952985437080725  1.0000
  C   C22       1.0  0.36313219948482356  0.21537949109073648  0.10470105577178399  1.0000
  C   C23       1.0  0.4818324415109528  0.7914303582729402  0.9179383405070566  1.0000
  C   C24       1.0  0.5181686040862344  0.20856862154770536  0.08206115121463137  1.0000
  C   C25       1.0  0.33312616947269186  0.8237626810094412  0.05599611113247248  1.0000
  C   C26       1.0  0.6668744821464117  0.17623518443328834  0.9440025327657579  1.0000
  C   C27       1.0  0.3357741537893871  0.8439613121657671  0.17499384634647439  1.0000
  C   C28       1.0  0.6642272732800832  0.15603876592174257  0.8250049147109165  1.0000
  C   C29       1.0  0.36103088733965194  0.7217854998480036  0.3305391669614082  1.0000
  C   C30       1.0  0.6389705459827227  0.27821458629502877  0.6694603833398601  1.0000
  C   C31       1.0  0.34778526611595584  0.5721594578358733  0.3666154293536507  1.0000
  C   C32       1.0  0.6522158658684488  0.4278428412319497  0.6333849781720815  1.0000
  I   I1        1.0  0.8837035163227255  0.013219603968202898  0.20879729793797708  1.0000
  I   I2        1.0  0.11629260068645651  0.9867837786554359  0.7912045007621343  1.0000
  I   I3        1.0  0.9926119687281058  0.22985091607085914  0.5287343926638356  1.0000
  I   I4        1.0  0.007390159910329431  0.7701480715253127  0.4712651482364335  1.0000
  O   O1        1.0  0.4773612703291477  0.5369532079672225  0.3323671032883765  1.0000
  O   O2        1.0  0.5226380031636495  0.46304687068028744  0.6676331378995924  1.0000
  O   O3        1.0  0.7230037756934493  0.4878341913675968  0.2764939589107982  1.0000
  O   O4        1.0  0.27699549779934074  0.5121658872799132  0.7235062822771707  1.0000
  O   O5        1.0  0.8402823446363427  0.5608022790260067  0.07882282424343859  1.0000
  O   O6        1.0  0.15971800564479108  0.4391977993414997  0.9211766768792417  1.0000
  O   O7        1.0  0.6444142474811018  0.6443122346650014  0.9237717959248143  1.0000
  O   O8        1.0  0.35558828138832144  0.35568787536460894  0.0762293820427971  1.0000
  O   O9        1.0  0.4794630589789293  0.820111299658741  0.029674575898276573  1.0000
  O   O10       1.0  0.5205387620686254  0.17988989280668477  0.9703250329825792  1.0000
  O   O11       1.0  0.33904330999778415  0.7100154995929274  0.21691763075454415  1.0000
  O   O12       1.0  0.6609581170716863  0.2899845784945824  0.7830811303028468  1.0000
