data_image0
_chemical_formula_structural       Ba8H32C56N8O40
_chemical_formula_sum              "Ba8 H32 C56 N8 O40"
_cell_length_a       9.84500346516671
_cell_length_b       13.313215062773176
_cell_length_c       14.687040579715115
_cell_angle_alpha    115.90478843952975
_cell_angle_beta     109.58674047394703
_cell_angle_gamma    90.00816270172753

_space_group_name_H-M_alt    "P 1"
_space_group_IT_number       1

loop_
  _space_group_symop_operation_xyz
  'x, y, z'

loop_
  _atom_site_type_symbol
  _atom_site_label
  _atom_site_symmetry_multiplicity
  _atom_site_fract_x
  _atom_site_fract_y
  _atom_site_fract_z
  _atom_site_occupancy
  Ba  Ba1       1.0  0.7014741292583506  0.08521433591366898  0.6636742894142885  1.0000
  Ba  Ba2       1.0  0.03763363565035149  0.41481131169169316  0.336205374334874  1.0000
  Ba  Ba3       1.0  0.29852421393196943  0.914787075716127  0.3363248404954932  1.0000
  Ba  Ba4       1.0  0.9623677653013942  0.5851892666755133  0.6637954712601302  1.0000
  Ba  Ba5       1.0  0.7868920579178036  0.39219902796977374  0.9596711507824555  1.0000
  Ba  Ba6       1.0  0.8273480707136683  0.10778941890123407  0.04034120533727765  1.0000
  Ba  Ba7       1.0  0.2131069942100652  0.6078006944574523  0.04032815553726013  1.0000
  Ba  Ba8       1.0  0.17265098609567534  0.8922103081970008  0.9596587847423595  1.0000
  H   H1        1.0  0.777121752800589  0.1265271219126518  0.2955595430872649  1.0000
  H   H2        1.0  0.4812942735092633  0.3738973038306241  0.7044942969557584  1.0000
  H   H3        1.0  0.22287926453608256  0.8734717515060877  0.7044391869017875  1.0000
  H   H4        1.0  0.5187090926512851  0.6261024255280886  0.29550597230857534  1.0000
  H   H5        1.0  0.19943084589154128  0.15495622957683247  0.5274084471552387  1.0000
  H   H6        1.0  0.6717014443819165  0.34502587702180404  0.47255484734518666  1.0000
  H   H7        1.0  0.8005718113314586  0.8450451889844571  0.4725916456991543  1.0000
  H   H8        1.0  0.3282992523137622  0.6549763952189804  0.5274465055997981  1.0000
  H   H9        1.0  0.3125468156248345  0.16984099821104334  0.6715987830001284  1.0000
  H   H10       1.0  0.6405720769737541  0.329829959947844  0.3282312668482208  1.0000
  H   H11       1.0  0.6874535068187413  0.8301595784232916  0.32840182185872663  1.0000
  H   H12       1.0  0.3594275063285721  0.6701672348156007  0.6717692093582103  1.0000
  H   H13       1.0  0.29917989241708637  0.13859575022694762  0.9470234941835474  1.0000
  H   H14       1.0  0.35195539131909465  0.3612042859708068  0.05280839348728251  1.0000
  H   H15       1.0  0.7008161159938027  0.8614048194759005  0.052976147730689045  1.0000
  H   H16       1.0  0.6480458318695596  0.638795453935188  0.9471934455844961  1.0000
  H   H17       1.0  0.46118558625929035  0.5075567479893622  0.9038655130756514  1.0000
  H   H18       1.0  0.5572876353618882  0.992476952798988  0.09605474620024532  1.0000
  H   H19       1.0  0.5388147361842783  0.49244382864497294  0.09613509178319662  1.0000
  H   H20       1.0  0.44271034293929284  0.007522772566375102  0.9039450031432354  1.0000
  H   H21       1.0  0.4264556781823856  0.3752020161404488  0.8370101432634559  1.0000
  H   H22       1.0  0.589688737313814  0.12485050500354326  0.1629824957880572  1.0000
  H   H23       1.0  0.5735448173427925  0.6247993942840891  0.16298878435871705  1.0000
  H   H24       1.0  0.41031069842912155  0.8751509223721496  0.8370189261376243  1.0000
  H   H25       1.0  0.8348201228592484  0.5791796970532203  0.2166560434128756  1.0000
  H   H26       1.0  0.6181640714191872  0.9206548440225004  0.7834141626423875  1.0000
  H   H27       1.0  0.16517875150552896  0.4208191869127943  0.7833442563836075  1.0000
  H   H28       1.0  0.3818349807086817  0.0793448784047257  0.21658514367732815  1.0000
  H   H29       1.0  0.9824080453403425  0.5997174727878158  0.208989590487036  1.0000
  H   H30       1.0  0.7734599690145602  0.9002851879684713  0.7910205004463794  1.0000
  H   H31       1.0  0.01759011072392271  0.4002830910387587  0.7910091653796771  1.0000
  H   H32       1.0  0.2265392749208388  0.0997153869329921  0.20897986367631927  1.0000
  C   C1        1.0  0.7845664077616378  0.11960541607092517  0.4413442074012296  1.0000
  C   C2        1.0  0.3429734107198286  0.38070130555615833  0.5586406673601163  1.0000
  C   C3        1.0  0.21543334394081626  0.8803926078117069  0.558653907808605  1.0000
  C   C4        1.0  0.6570267292791739  0.6192984279459566  0.4413602472155846  1.0000
  C   C5        1.0  0.8467674130561205  0.13261594971995547  0.3736349205035054  1.0000
  C   C6        1.0  0.4728434151911074  0.3677305259164214  0.6263989922885076  1.0000
  C   C7        1.0  0.1532336042805582  0.867382923698777  0.6263638094855396  1.0000
  C   C8        1.0  0.5271579810791565  0.6322700477797766  0.37360116954658223  1.0000
  C   C9        1.0  0.9981947354316174  0.14314512711583657  0.4037576918541675  1.0000
  C   C10       1.0  0.5941126892082238  0.3570570752006859  0.5962575707783416  1.0000
  C   C11       1.0  0.0018066608386390194  0.8568554465803612  0.596242469980922  1.0000
  C   C12       1.0  0.405890159822313  0.6429451958348338  0.4037435798790343  1.0000
  C   C13       1.0  0.0812514909947595  0.14758408726052608  0.5035815890014137  1.0000
  C   C14       1.0  0.5773892801443239  0.35249747445808294  0.49641688045846893  1.0000
  C   C15       1.0  0.9187509837836741  0.8524164881685435  0.4964188135698324  1.0000
  C   C16       1.0  0.4226135782491766  0.6475048059194534  0.5035856377187359  1.0000
  C   C17       1.0  0.0115032721963715  0.1418684136471313  0.5707123136809289  1.0000
  C   C18       1.0  0.4405034568508198  0.35816890130753615  0.42924920272569983  1.0000
  C   C19       1.0  0.9884981193924033  0.8581321553780582  0.42928716439424636  1.0000
  C   C20       1.0  0.5594966878296646  0.64183083686558  0.5707523956099225  1.0000
  C   C21       1.0  0.09684841352327568  0.1479509611911567  0.6782432211941938  1.0000
  C   C22       1.0  0.41830131330458187  0.3519508724423018  0.3216668696238188  1.0000
  C   C23       1.0  0.9031515253052262  0.8520479104947113  0.3217552680587021  1.0000
  C   C24       1.0  0.5816990185019506  0.6480497135340498  0.678335102754865  1.0000
  C   C25       1.0  0.2500236174667521  0.1594667940855388  0.7164273571969562  1.0000
  C   C26       1.0  0.533247926106192  0.34028003113057526  0.2834322999132653  1.0000
  C   C27       1.0  0.7499745432790021  0.8405337744120442  0.2835720824296717  1.0000
  C   C28       1.0  0.46675221857429244  0.6597197070425408  0.7165692984223498  1.0000
  C   C29       1.0  0.32574514789977366  0.1546299113865288  0.8129568358898145  1.0000
  C   C30       1.0  0.5125115009006577  0.3451045398351835  0.1869059119489407  1.0000
  C   C31       1.0  0.6742533917795583  0.8453723573885128  0.18704403558286506  1.0000
  C   C32       1.0  0.4874906136701113  0.6548943540004544  0.8130957938159258  1.0000
  C   C33       1.0  0.24572021471826838  0.14286047141808914  0.871271239014263  1.0000
  C   C34       1.0  0.3742121329056545  0.35695228531244555  0.128570225891501  1.0000
  C   C35       1.0  0.7542786502835452  0.8571384032059083  0.12872769326239109  1.0000
  C   C36       1.0  0.625790351235743  0.6430482994586412  0.8714315441995738  1.0000
  C   C37       1.0  0.09443365971348779  0.13770406354104378  0.8309451940638869  1.0000
  C   C38       1.0  0.26329995584574556  0.3622702436684475  0.16896714952164163  1.0000
  C   C39       1.0  0.9055657619850024  0.8622973498216311  0.16905417658205132  1.0000
  C   C40       1.0  0.736701632232048  0.6377311825019801  0.8310340701164239  1.0000
  C   C41       1.0  0.004468982816476302  0.1269217560559781  0.8929527904372707  1.0000
  C   C42       1.0  0.11137184603568069  0.3731071093935937  0.10696194720544139  1.0000
  C   C43       1.0  0.9955266419793458  0.8730771086983962  0.10704473587100696  1.0000
  C   C44       1.0  0.8886289888564177  0.6268909208929258  0.8930370925004568  1.0000
  C   C45       1.0  0.48964889076598433  0.1579276937127716  0.8504152228915987  1.0000
  C   C46       1.0  0.6391074574543438  0.34177571182287625  0.14958142270869965  1.0000
  C   C47       1.0  0.5103503531694145  0.8420728811886915  0.1495851412310999  1.0000
  C   C48       1.0  0.36089230829255564  0.6582223260727813  0.8504187437808783  1.0000
  C   C49       1.0  0.0680290986638497  0.14205851416219414  0.3261336281544446  1.0000
  C   C50       1.0  0.7414911527910915  0.35805250111213377  0.6738904110975812  1.0000
  C   C51       1.0  0.9319701359085851  0.8579420513972519  0.6738653684484249  1.0000
  C   C52       1.0  0.258510435286702  0.6419489250583011  0.3261108085404914  1.0000
  C   C53       1.0  0.6191477193275146  0.09096392832135078  0.4015173887421001  1.0000
  C   C54       1.0  0.21739401151062043  0.40934374995708095  0.598389251382983  1.0000
  C   C55       1.0  0.38085203237493903  0.9090340955612886  0.5984807264677274  1.0000
  C   C56       1.0  0.7826059319993632  0.5906551263997881  0.4016099216298274  1.0000
  N   N1        1.0  0.8642822409946403  0.12454842907332159  0.5379064528969979  1.0000
  N   N2        1.0  0.3261046186098682  0.3755940429330947  0.4620261018967256  1.0000
  N   N3        1.0  0.1357176931523796  0.8754504379415309  0.4620913525959838  1.0000
  N   N4        1.0  0.6738955213891343  0.6244056905690198  0.537974812678975  1.0000
  N   N5        1.0  0.021048417073693305  0.1388057187940603  0.7362227503364027  1.0000
  N   N6        1.0  0.2846124535574929  0.36124222233456044  0.2637105559074301  1.0000
  N   N7        1.0  0.9789502514391016  0.8611922986846993  0.263774440377354  1.0000
  N   N8        1.0  0.7153878688860756  0.6387583542997743  0.7362900489514248  1.0000
  O   O1        1.0  0.884849710976809  0.1660807599124681  0.8817945778337661  1.0000
  O   O2        1.0  0.002846814279642692  0.3341185321922921  0.11821155571625044  1.0000
  O   O3        1.0  0.11514735721632254  0.8339197928392179  0.11820256977696889  1.0000
  O   O4        1.0  0.9971540206124629  0.6658794980942274  0.8817874839896478  1.0000
  O   O5        1.0  0.05324508399562689  0.07920492432783988  0.9527434837421185  1.0000
  O   O6        1.0  0.10037708412559002  0.4206902305149285  0.047064865781983774  1.0000
  O   O7        1.0  0.9467514321823174  0.9207930943561846  0.04725390925925426  1.0000
  O   O8        1.0  0.8996241250186187  0.579309495378041  0.9529349220100374  1.0000
  O   O9        1.0  0.5465613093529385  0.12359636187696307  0.9205596829580004  1.0000
  O   O10       1.0  0.6261492238321722  0.37625525897623646  0.07957177410840904  1.0000
  O   O11       1.0  0.4534370478818274  0.8764050637658585  0.07944149823153178  1.0000
  O   O12       1.0  0.3738530731831702  0.6237444779916214  0.9204296219396044  1.0000
  O   O13       1.0  0.5585549591731153  0.1951664038884928  0.8087959910428497  1.0000
  O   O14       1.0  0.7494893850339465  0.30440627494305517  0.19119321994572405  1.0000
  O   O15       1.0  0.4414444765698207  0.8048350234872003  0.1912054308828319  1.0000
  O   O16       1.0  0.2505120299622448  0.6955943174371767  0.8088096769290305  1.0000
  O   O17       1.0  0.18271543656997116  0.09861850637696529  0.3285764756828372  1.0000
  O   O18       1.0  0.853848276480953  0.40148573085757977  0.6715651819030202  1.0000
  O   O19       1.0  0.817283975765548  0.9013828976436924  0.6714215274432648  1.0000
  O   O20       1.0  0.1461533115968408  0.5985156953128552  0.3284360377350526  1.0000
  O   O21       1.0  0.005374818132601412  0.1830601481161409  0.2620809400617788  1.0000
  O   O22       1.0  0.7426947202865009  0.3169657182366733  0.737846886316895  1.0000
  O   O23       1.0  0.9946246082473703  0.8169412699175425  0.7379191143440738  1.0000
  O   O24       1.0  0.2573079462994627  0.6830357096666262  0.26215457405732695  1.0000
  O   O25       1.0  0.54638019270498  0.09437877990672658  0.3145528975211961  1.0000
  O   O26       1.0  0.2315337125057937  0.4061181157339745  0.6854221593055315  1.0000
  O   O27       1.0  0.4536188547414071  0.905620937849491  0.6854457250386051  1.0000
  O   O28       1.0  0.7684656696260319  0.5938782172132162  0.3145758915780804  1.0000
  O   O29       1.0  0.5664714499736191  0.06200768977416969  0.4570530432101877  1.0000
  O   O30       1.0  0.10915346227393029  0.4381056648759695  0.5426937929233449  1.0000
  O   O31       1.0  0.4335261447124949  0.9379903306427265  0.5429445905273342  1.0000
  O   O32       1.0  0.8908454167723292  0.5618932237610537  0.45730719063305275  1.0000
  O   O33       1.0  0.5071692269988617  0.43823411146401275  0.8872248202867258  1.0000
  O   O34       1.0  0.6200106887072678  0.061772124499995584  0.11270171899935377  1.0000
  O   O35       1.0  0.4928310954447069  0.5617664651703151  0.11277578457212208  1.0000
  O   O36       1.0  0.37998748140145  0.9382284533395974  0.8872990881471099  1.0000
  O   O37       1.0  0.8771063446649449  0.5779417537487958  0.16373043651176997  1.0000
  O   O38       1.0  0.7134974941925093  0.9220383720303926  0.836325998637854  1.0000
  O   O39       1.0  0.12289036800201102  0.4220571220804672  0.8362686980524932  1.0000
  O   O40       1.0  0.2865015579353595  0.0779613503968335  0.16367330768186863  1.0000
