data_image0
_chemical_formula_structural       Al4H38C48N2O22
_chemical_formula_sum              "Al4 H38 C48 N2 O22"
_cell_length_a       6.679317890631462
_cell_length_b       18.152085488582916
_cell_length_c       20.637752204652738
_cell_angle_alpha    107.47424337530359
_cell_angle_beta     90.00118511178918
_cell_angle_gamma    89.99869816818472

_space_group_name_H-M_alt    "P 1"
_space_group_IT_number       1

loop_
  _space_group_symop_operation_xyz
  'x, y, z'

loop_
  _atom_site_type_symbol
  _atom_site_label
  _atom_site_symmetry_multiplicity
  _atom_site_fract_x
  _atom_site_fract_y
  _atom_site_fract_z
  _atom_site_occupancy
  Al  Al1       1.0  0.8664779430017264  0.5000271927890623  0.5004470757820769  1.0000
  Al  Al2       1.0  0.36647775918692826  0.49997446187419553  0.499560382647971  1.0000
  Al  Al3       1.0  0.3841180893061136  0.00012389523215009435  0.9994831546771932  1.0000
  Al  Al4       1.0  0.8841121726533886  0.9998772040860686  0.0005147659234837005  1.0000
  H   H1        1.0  0.29812820281897257  0.8703402736281091  0.2922504919754089  1.0000
  H   H2        1.0  0.7981159344970693  0.12965570929156908  0.7077464334213345  1.0000
  H   H3        1.0  0.8139834461302371  0.7822724789689134  0.21107478104397606  1.0000
  H   H4        1.0  0.3139765039886129  0.21773634070449793  0.7889147359620238  1.0000
  H   H5        1.0  0.9113369743178623  0.8662046554666533  0.270384256261643  1.0000
  H   H6        1.0  0.4113254919456466  0.133807041894876  0.7296047763510102  1.0000
  H   H7        1.0  0.9567248523612336  0.8031514913323932  0.35354376264113796  1.0000
  H   H8        1.0  0.4567313162561176  0.1968655738456775  0.6464526421189304  1.0000
  H   H9        1.0  0.8009790639001011  0.729578483587879  0.30217476324475  1.0000
  H   H10       1.0  0.30099619672740363  0.2704443823365493  0.6978218961441411  1.0000
  H   H11       1.0  0.3055968682074378  0.6931405825789768  0.1446981895089223  1.0000
  H   H12       1.0  0.8056083782467881  0.3068474530492011  0.855309852186295  1.0000
  H   H13       1.0  0.0472211431656362  0.6904743163466732  0.12466411588596321  1.0000
  H   H14       1.0  0.5472187598752143  0.3095224389036914  0.8753370877223928  1.0000
  H   H15       1.0  0.233090959584338  0.6095438030926986  0.2072407904537172  1.0000
  H   H16       1.0  0.733121936301977  0.3904532477493632  0.7927710036438497  1.0000
  H   H17       1.0  0.4548014375430682  0.8066022300013459  0.23110119815537186  1.0000
  H   H18       1.0  0.9548010452803979  0.19338533117024076  0.7689025472681478  1.0000
  H   H19       1.0  0.44380647084098973  0.717430110605683  0.2936346357747226  1.0000
  H   H20       1.0  0.9438281998917261  0.28256096007832093  0.7063711084118225  1.0000
  H   H21       1.0  0.47471451838257656  0.8584900534447754  0.4551852431620631  1.0000
  H   H22       1.0  0.616503290131149  0.8200143787562411  0.3799782970206991  1.0000
  H   H23       1.0  0.416720386864128  0.7248914192325984  0.46253815667681397  1.0000
  H   H24       1.0  0.5687962637343134  0.6857608356084128  0.3907703250429293  1.0000
  H   H25       1.0  0.8655341882350669  0.7631695056401427  0.45218297402266927  1.0000
  H   H26       1.0  0.7689122930691282  0.7031592677181139  0.4976615983204411  1.0000
  H   H27       1.0  0.7120854111098751  0.803235771089099  0.5246926584283285  1.0000
  H   H28       1.0  0.9747138871184191  0.14150681334375284  0.5448171639232909  1.0000
  H   H29       1.0  0.1165091464076937  0.17997413015896052  0.6200247161285188  1.0000
  H   H30       1.0  0.9167261157140274  0.2751074729940369  0.5374705520908875  1.0000
  H   H31       1.0  0.0687977468246501  0.3142331129606005  0.6092395782986556  1.0000
  H   H32       1.0  0.3655365911595466  0.23682336325494194  0.5478228860911613  1.0000
  H   H33       1.0  0.2689127057917702  0.29684516211656137  0.5023600678853413  1.0000
  H   H34       1.0  0.21209175473223496  0.19677482163986332  0.4753145814162493  1.0000
  H   H35       1.0  0.6162564457129349  0.5990676228966763  0.5065790409681553  1.0000
  H   H36       1.0  0.1162709087116482  0.40090755634014397  0.4933255869974857  1.0000
  H   H37       1.0  0.6331981258962857  0.9005780655760064  0.9914092208744448  1.0000
  H   H38       1.0  0.1331829865662542  0.09941656549931112  0.008571135091131098  1.0000
  C   C1        1.0  0.6152758635208784  0.4265153826098  0.5800232724174919  1.0000
  C   C2        1.0  0.1152228427141253  0.5734903083305624  0.41997835879936923  1.0000
  C   C3        1.0  0.6175439741775363  0.39127874855562084  0.3976096452360949  1.0000
  C   C4        1.0  0.1175629872935247  0.6087193608645194  0.6023924408287086  1.0000
  C   C5        1.0  0.11958721135941629  0.6706083281336036  0.6654677475397576  1.0000
  C   C6        1.0  0.6195830394150122  0.3293903466304471  0.3345394193690723  1.0000
  C   C7        1.0  0.1237284108554633  0.7230231580084662  0.7189772303753797  1.0000
  C   C8        1.0  0.6237360999951066  0.27696659655551775  0.28101975200199547  1.0000
  C   C9        1.0  0.12787560474232862  0.7808935591139632  0.778046892825614  1.0000
  C   C10       1.0  0.627887657711895  0.21909544677713197  0.22194959821521815  1.0000
  C   C11       1.0  0.1314913006230611  0.8333422857893567  0.8315622310056623  1.0000
  C   C12       1.0  0.6314882676096618  0.1666588084799017  0.16844755070061979  1.0000
  C   C13       1.0  0.3132428168374162  0.8106363736947911  0.2591006872202897  1.0000
  C   C14       1.0  0.8132214725437523  0.1893559566669367  0.7409038841769229  1.0000
  C   C15       1.0  0.9359709229890143  0.803969687546264  0.24760473246224277  1.0000
  C   C16       1.0  0.43596154472636783  0.19603778822358459  0.7523904710697733  1.0000
  C   C17       1.0  0.9393499942235836  0.7622349758096975  0.30260176395716337  1.0000
  C   C18       1.0  0.4393571172868533  0.23777862812236344  0.6973970544776334  1.0000
  C   C19       1.0  0.1134923092120417  0.6169749771331751  0.37205691845593236  1.0000
  C   C20       1.0  0.6135165198648095  0.38302181232546667  0.6279410830869452  1.0000
  C   C21       1.0  0.1369813159120739  0.7911489196315956  0.20802969202133428  1.0000
  C   C22       1.0  0.6369604492193873  0.2088461969782998  0.7919638580900424  1.0000
  C   C23       1.0  0.3129359691529672  0.7562567597198323  0.30442319735298895  1.0000
  C   C24       1.0  0.8129459252423389  0.2437391503408719  0.6955788698045068  1.0000
  C   C25       1.0  0.11919273533830221  0.7061449078375333  0.2905822773359077  1.0000
  C   C26       1.0  0.6192154611995235  0.29386092497424693  0.7094198821258216  1.0000
  C   C27       1.0  0.11634586715947391  0.6540784897824209  0.21446606729480067  1.0000
  C   C28       1.0  0.6163731259417559  0.34592407383995294  0.78554111554498  1.0000
  C   C29       1.0  0.1549905005361012  0.704714034552147  0.16670101276003627  1.0000
  C   C30       1.0  0.6549968618042856  0.29527813081960375  0.8333007108928568  1.0000
  C   C31       1.0  0.11379833150363788  0.6578000327953505  0.3350618729388586  1.0000
  C   C32       1.0  0.6138333156306714  0.3422060783348114  0.6649443133869896  1.0000
  C   C33       1.0  0.1422290011240932  0.8378234550773698  0.16199968591602948  1.0000
  C   C34       1.0  0.6422048535312257  0.16216804861010556  0.8379963938365477  1.0000
  C   C35       1.0  0.1384058657793759  0.8765334406360595  0.12313135505207377  1.0000
  C   C36       1.0  0.6383760096172253  0.1234640919810914  0.8768612095893714  1.0000
  C   C37       1.0  0.6333640984840088  0.10559310324351398  0.10476623210380612  1.0000
  C   C38       1.0  0.1333718409841751  0.8944079727162804  0.8952319083770702  1.0000
  C   C39       1.0  0.635601606251612  0.07847009516183333  0.9237528006212016  1.0000
  C   C40       1.0  0.1356213185827926  0.9215250097738944  0.0762473275846887  1.0000
  C   C41       1.0  0.4942855754529205  0.8070928264233359  0.4108900215925501  1.0000
  C   C42       1.0  0.5461919394102566  0.7374704011452665  0.43461833857161736  1.0000
  C   C43       1.0  0.7328017445131182  0.752754093029715  0.4796792304681716  1.0000
  C   C44       1.0  0.9942950317400658  0.1928992737280879  0.5891134600486437  1.0000
  C   C45       1.0  0.0461953590520068  0.2625250668855941  0.5653889275920889  1.0000
  C   C46       1.0  0.23280180757625152  0.2472464903070842  0.5203315785939041  1.0000
  C   C47       1.0  0.9215156226564433  0.6159796126149004  0.19989682494043848  1.0000
  C   C48       1.0  0.4215381478324218  0.38403281674818146  0.800107969921079  1.0000
  N   N1        1.0  0.7601822091102761  0.5907334633144431  0.1887711926328421  1.0000
  N   N2        1.0  0.2602188539262258  0.40928480424980057  0.811233828220871  1.0000
  O   O1        1.0  0.4462854967627905  0.4151354335624545  0.42201986603905073  1.0000
  O   O2        1.0  0.9462808146526314  0.5848653434932983  0.5779753347251527  1.0000
  O   O3        1.0  0.7864239823594801  0.4428757883621088  0.5608288369597572  1.0000
  O   O4        1.0  0.2864060873623302  0.5571296441102406  0.4391746923329976  1.0000
  O   O5        1.0  0.7877964488369144  0.41508163213274674  0.4229903556022093  1.0000
  O   O6        1.0  0.287797376369987  0.5849166090757407  0.5770131204781846  1.0000
  O   O7        1.0  0.9454255041651791  0.5571548242963116  0.44007169738921437  1.0000
  O   O8        1.0  0.4454220688289894  0.44284528496598335  0.5599214670873424  1.0000
  O   O9        1.0  0.616514053999488  0.5452034596336831  0.5049642756444186  1.0000
  O   O10       1.0  0.1165193421877007  0.45480044433031713  0.49503532091118524  1.0000
  O   O11       1.0  0.8051964066414499  0.06115555629323665  0.9433423147317014  1.0000
  O   O12       1.0  0.3052033677806421  0.9388448253642355  0.0566597498461832  1.0000
  O   O13       1.0  0.46309213463273113  0.08237812286812841  0.07912147579151708  1.0000
  O   O14       1.0  0.9631018624493777  0.9176193269833631  0.9208823956486751  1.0000
  O   O15       1.0  0.46420196697235383  0.06112363823434211  0.9420484301728108  1.0000
  O   O16       1.0  0.9642272880729053  0.9388775975531235  0.05795193294734699  1.0000
  O   O17       1.0  0.30468877096332386  0.9180690126421924  0.9196778464894279  1.0000
  O   O18       1.0  0.8046959298385801  0.0819262791716113  0.08032214649886531  1.0000
  O   O19       1.0  0.6339735625992305  0.9545193797283601  0.9932733559805696  1.0000
  O   O20       1.0  0.1339735785392264  0.04547994019741  0.0067278122369601  1.0000
  O   O21       1.0  0.3079333129978679  0.7997463460881207  0.37465919988279944  1.0000
  O   O22       1.0  0.8079475600849831  0.2002523598091415  0.6253428648301451  1.0000
