data_image0
_chemical_formula_structural       Na2H10C8N16O2
_chemical_formula_sum              "Na2 H10 C8 N16 O2"
_cell_length_a       3.6557827238960945
_cell_length_b       6.1927819296721776
_cell_length_c       18.35446446245958
_cell_angle_alpha    89.73751315071328
_cell_angle_beta     89.59523955178808
_cell_angle_gamma    72.54729059372683

_space_group_name_H-M_alt    "P 1"
_space_group_IT_number       1

loop_
  _space_group_symop_operation_xyz
  'x, y, z'

loop_
  _atom_site_type_symbol
  _atom_site_label
  _atom_site_symmetry_multiplicity
  _atom_site_fract_x
  _atom_site_fract_y
  _atom_site_fract_z
  _atom_site_occupancy
  Na  Na1       1.0  0.48263092656922896  0.308633500637363  0.3070077532195938  1.0000
  Na  Na2       1.0  0.7991683797720844  0.6902774492854956  0.806647101167009  1.0000
  H   H1        1.0  0.20824930545317968  0.958401912977585  0.255417785468893  1.0000
  H   H2        1.0  0.16562341529850508  0.04166215986134598  0.754523818371162  1.0000
  H   H3        1.0  0.42465965257816424  0.8747701685149066  0.6029389437416841  1.0000
  H   H4        1.0  0.3108614548839484  0.12785588217919747  0.10380120575454302  1.0000
  H   H5        1.0  0.7051209127417126  0.1431985767170403  0.48203209812987774  1.0000
  H   H6        1.0  0.8439720816797094  0.8550670893297504  0.9815239152655623  1.0000
  H   H7        1.0  0.07009203346820682  0.9563461652094316  0.3371365101578975  1.0000
  H   H8        1.0  0.02758810113822822  0.04259949660640668  0.8363207265527424  1.0000
  H   H9        1.0  0.5157207239310397  0.49149151149921266  0.55145448334617  1.0000
  H   H10       1.0  0.007022343789934494  0.5081229420262756  0.0515430203506355  1.0000
  C   C1        1.0  0.7526254740740658  0.7941998926620001  0.4663657825085041  1.0000
  C   C2        1.0  0.5463845777520078  0.20625091835756845  0.9661544661232926  1.0000
  C   C3        1.0  0.645416247974666  0.9993017458664039  0.5087803511201798  1.0000
  C   C4        1.0  0.6451642670212295  0.0005206079706851997  0.0087211454682645  1.0000
  C   C5        1.0  0.4839157157360179  0.01784240585700299  0.5758215920335986  1.0000
  C   C6        1.0  0.5079645609886612  0.98317195410398  0.07632792357978252  1.0000
  C   C7        1.0  0.3702296698675056  0.22346469361398383  0.6176862137290301  1.0000
  C   C8        1.0  0.5975390128695113  0.7769597558052649  0.11820082820977261  1.0000
  N   N1        1.0  0.9209903976535048  0.7781690860074445  0.40001919958221077  1.0000
  N   N2        1.0  0.6983093394802894  0.22136760680039905  0.899688361973226  1.0000
  N   N3        1.0  0.25078698588255605  0.5757175697981934  0.6530815645900889  1.0000
  N   N4        1.0  0.825435372575747  0.42323845263022236  0.1533209564789288  1.0000
  N   N5        1.0  0.3958929689114684  0.4300365560392619  0.5989274786114224  1.0000
  N   N6        1.0  0.8268940902481109  0.5692755123096588  0.09922656724355511  1.0000
  N   N7        1.0  0.1371207085698672  0.46156503859612014  0.7040096754840164  1.0000
  N   N8        1.0  0.5992716963112559  0.5383063093915864  0.20436619439076512  1.0000
  N   N9        1.0  0.7026499005224383  0.5928733612461413  0.4847162204757113  1.0000
  N   N10       1.0  0.2938771232695388  0.4083499223369101  0.9841777296418074  1.0000
  N   N11       1.0  0.9730106830720973  0.5651840479935542  0.3782161186926629  1.0000
  N   N12       1.0  0.5362948243112344  0.43457027839639273  0.877484365382948  1.0000
  N   N13       1.0  0.20604962101715085  0.2434085998373944  0.6841710902529528  1.0000
  N   N14       1.0  0.4531479377733024  0.7574806080754396  0.18471374659203832  1.0000
  N   N15       1.0  0.8417132916833481  0.4534892974222513  0.4290139049417832  1.0000
  N   N16       1.0  0.2926083017621651  0.5472446260794681  0.9281230326751101  1.0000
  O   O1        1.0  0.10831954664495673  0.05969190941035409  0.2976200664056919  1.0000
  O   O2        1.0  0.17068175210043537  0.9398941331570326  0.7968775730953511  1.0000
