data_image0
_chemical_formula_structural       Er2H32C36N6O16
_chemical_formula_sum              "Er2 H32 C36 N6 O16"
_cell_length_a       9.55764921161415
_cell_length_b       11.761025896379982
_cell_length_c       11.767301204504939
_cell_angle_alpha    119.98138831592827
_cell_angle_beta     112.59035264839692
_cell_angle_gamma    90.00300124235203

_space_group_name_H-M_alt    "P 1"
_space_group_IT_number       1

loop_
  _space_group_symop_operation_xyz
  'x, y, z'

loop_
  _atom_site_type_symbol
  _atom_site_label
  _atom_site_symmetry_multiplicity
  _atom_site_fract_x
  _atom_site_fract_y
  _atom_site_fract_z
  _atom_site_occupancy
  Er  Er1       1.0  0.7500008121354185  0.5040421190824206  5.783029784871374e-06  1.0000
  Er  Er2       1.0  0.2500020003593022  0.4959487914998705  0.9999948895043145  1.0000
  H   H1        1.0  0.4989770587325709  0.6313461397113401  0.9278698078885271  1.0000
  H   H2        1.0  0.0010497590001251117  0.7034730295962603  0.07212562871875156  1.0000
  H   H3        1.0  0.5010222436659576  0.36863562596889204  0.07211246980949684  1.0000
  H   H4        1.0  0.9989553439991071  0.2965178869560248  0.9278698175867532  1.0000
  H   H5        1.0  0.5527223234886663  0.6096315708230406  0.8098342731359053  1.0000
  H   H6        1.0  0.9473030291533889  0.7998004863878876  0.190150788251785  1.0000
  H   H7        1.0  0.4473132113485576  0.39037576495163523  0.19017549381904095  1.0000
  H   H8        1.0  0.052682754767296607  0.20019422719447993  0.8098209304946167  1.0000
  H   H9        1.0  0.5962793532395309  0.7127549371504358  0.639146897329546  1.0000
  H   H10       1.0  0.9037554408538283  0.07358282446845268  0.360814055909941  1.0000
  H   H11       1.0  0.4037473702749708  0.28724411360714447  0.3608066946576045  1.0000
  H   H12       1.0  0.09625534656825621  0.9264292786346718  0.6391758593838193  1.0000
  H   H13       1.0  0.4086956272924597  0.6758363753870498  0.3974108580887759  1.0000
  H   H14       1.0  0.09130725028766312  0.27840087503531663  0.6025649761501555  1.0000
  H   H15       1.0  0.5912978754693228  0.3241573738669459  0.6025517585311206  1.0000
  H   H16       1.0  0.9086959967291648  0.7216001026373675  0.39743233793604554  1.0000
  H   H17       1.0  0.05249601379198766  0.46674252978071706  0.412430075430315  1.0000
  H   H18       1.0  0.4475210909042532  0.05432388315696101  0.5876061702440936  1.0000
  H   H19       1.0  0.9475388390110169  0.5332880239482377  0.5876012141584112  1.0000
  H   H20       1.0  0.552473346742012  0.9456740300706059  0.41240384986382167  1.0000
  H   H21       1.0  0.25744720053231174  0.5046823711678954  0.6499069696198416  1.0000
  H   H22       1.0  0.2425847597803497  0.8547696826655057  0.3501017744020275  1.0000
  H   H23       1.0  0.7426088957417606  0.4953554002697018  0.35011758407724614  1.0000
  H   H24       1.0  0.757414292598007  0.1452282132087035  0.6498867416489984  1.0000
  H   H25       1.0  0.6491485597817359  0.9783256487528079  0.1421934737887938  1.0000
  H   H26       1.0  0.8507697152959109  0.8361439557553821  0.8578975864664071  1.0000
  H   H27       1.0  0.35079536709127984  0.0216829278367854  0.8578255244359595  1.0000
  H   H28       1.0  0.14917105316442303  0.1638313009211956  0.14210131050025146  1.0000
  H   H29       1.0  0.6434600907566762  0.1946992730588875  0.14760708302794978  1.0000
  H   H30       1.0  0.8565225682386952  0.0470837040972469  0.8524500711712832  1.0000
  H   H31       1.0  0.35653027708914214  0.8053218074812848  0.8524165717801324  1.0000
  H   H32       1.0  0.1434609790973411  0.9528990219163802  0.14756597637623523  1.0000
  C   C1        1.0  0.4746927252860971  0.6581119593166634  0.585061188276086  1.0000
  C   C2        1.0  0.025336927039560905  0.07303628984366381  0.414917533964882  1.0000
  C   C3        1.0  0.5253382307281316  0.3418861620975732  0.41490771832700096  1.0000
  C   C4        1.0  0.974669667288147  0.9269687518658573  0.5850820015972148  1.0000
  C   C5        1.0  0.370683114047374  0.6394957826771731  0.45239407362401357  1.0000
  C   C6        1.0  0.1293376124039369  0.18709344846738668  0.5475934186433236  1.0000
  C   C7        1.0  0.6293299328362564  0.36049919633193644  0.5475880409618695  1.0000
  C   C8        1.0  0.8706690535081024  0.8129075528069691  0.4524015818998351  1.0000
  C   C9        1.0  0.2157731403847762  0.5701929726192745  0.3887960482523524  1.0000
  C   C10       1.0  0.28424598536594203  0.18140002329291605  0.6112179992156257  1.0000
  C   C11       1.0  0.7842392089001323  0.42982523786412236  0.6112126897056314  1.0000
  C   C12       1.0  0.715764012292496  0.8186050555382849  0.3887843235417564  1.0000
  C   C13       1.0  0.17252430878444613  0.5212865653966999  0.4602144658588259  1.0000
  C   C14       1.0  0.32749341985854846  0.06107576039990899  0.5398032482891395  1.0000
  C   C15       1.0  0.8275039521101135  0.4787317927833998  0.5397976442825226  1.0000
  C   C16       1.0  0.6725075288715274  0.938925218062785  0.46020184239481676  1.0000
  C   C17       1.0  0.28560468740570844  0.5418445653169853  0.5907754211781011  1.0000
  C   C18       1.0  0.21442217711489775  0.9510673753341125  0.4092374713178232  1.0000
  C   C19       1.0  0.7144400446306848  0.45817594255322547  0.4092335835222087  1.0000
  C   C20       1.0  0.7855799025999702  0.048933618506922016  0.5907696819286342  1.0000
  C   C21       1.0  0.09871111920937643  0.5465479941300587  0.24492767224075612  1.0000
  C   C22       1.0  0.40130037002743535  0.301628164664848  0.7550844755700297  1.0000
  C   C23       1.0  0.9012853356605108  0.45344891843746643  0.7550782351431309  1.0000
  C   C24       1.0  0.5987135034311137  0.6983658501325821  0.24491101655956996  1.0000
  C   C25       1.0  0.6948486325193245  0.9973690159200856  0.07946415402658863  1.0000
  C   C26       1.0  0.8050647980422525  0.9179171038998604  0.9206035685836726  1.0000
  C   C27       1.0  0.3050926523377342  0.0026294155024046994  0.9205362249369315  1.0000
  C   C28       1.0  0.1948826806043513  0.0820662673303758  0.07939467059645013  1.0000
  C   C29       1.0  0.6915294499055733  0.11772625040672578  0.0831005231457951  1.0000
  C   C30       1.0  0.8084220710443759  0.034624522647732206  0.9169463591732097  1.0000
  C   C31       1.0  0.30843791609796517  0.8822764534726562  0.916905923129221  1.0000
  C   C32       1.0  0.19154578453714782  0.9653630869610552  0.08306378684394394  1.0000
  C   C33       1.0  0.7499677645774199  0.13692383553297557  1.5424483201874292e-05  1.0000
  C   C34       1.0  0.25000760546853235  0.8630749220396011  0.9999958239720428  1.0000
  C   C35       1.0  0.7500007071103525  0.264002229796688  1.2815368371947878e-05  1.0000
  C   C36       1.0  0.2500104732234476  0.7360039379481762  6.951089517309594e-06  1.0000
  N   N1        1.0  0.4344368623989467  0.6095613718471142  0.6528563596532065  1.0000
  N   N2        1.0  0.06559365813018307  0.9566949763926972  0.34713400658391463  1.0000
  N   N3        1.0  0.5656083810180803  0.3904480010676182  0.3471302753782338  1.0000
  N   N4        1.0  0.9344087285886502  0.0433069947850271  0.6528609815582769  1.0000
  N   N5        1.0  0.7499494742447653  0.8984426011040086  3.687495382147297e-05  1.0000
  N   N6        1.0  0.24999062783187043  0.10153870290280761  0.9999656679523595  1.0000
  O   O1        1.0  0.15062278137166626  0.5357969069802663  0.15648437433015522  1.0000
  O   O2        1.0  0.34937864647302064  0.3793185997717288  0.8435172586898075  1.0000
  O   O3        1.0  0.849356378461586  0.46418166075147144  0.8434976348720795  1.0000
  O   O4        1.0  0.6506335519470099  0.6206905412379768  0.15649032371929658  1.0000
  O   O5        1.0  0.9574301277272926  0.5390772998860244  0.2219618936106331  1.0000
  O   O6        1.0  0.5425884334343749  0.3171148679786668  0.7780595026945107  1.0000
  O   O7        1.0  0.042586068822814106  0.460929871350281  0.7780493650731585  1.0000
  O   O8        1.0  0.45741149116240365  0.68287804578204  0.22194635711182542  1.0000
  O   O9        1.0  0.6710111976753197  0.34438556501320516  0.052994769004975184  1.0000
  O   O10       1.0  0.8289933764536386  0.2913833735048001  0.9470260515935466  1.0000
  O   O11       1.0  0.3289998920566717  0.655619562996357  0.9470223681607097  1.0000
  O   O12       1.0  0.17103791089950698  0.7085997910922683  0.052998412257956456  1.0000
  O   O13       1.0  0.5818335734720107  0.6022449342580671  0.8969305750512218  1.0000
  O   O14       1.0  0.9181697813000298  0.7053147029509149  0.10304261214268018  1.0000
  O   O15       1.0  0.4181612402544986  0.397732761020329  0.10305081910062346  1.0000
  O   O16       1.0  0.0818199981566536  0.2946780431113893  0.896933633001467  1.0000
