data_image0
_chemical_formula_structural       Cu8Si4H64C28S8I8
_chemical_formula_sum              "Cu8 Si4 H64 C28 S8 I8"
_cell_length_a       6.780696415029076
_cell_length_b       8.247666191729719
_cell_length_c       24.949712122072764
_cell_angle_alpha    94.99969417392288
_cell_angle_beta     89.99968033828323
_cell_angle_gamma    90.00004426901435

_space_group_name_H-M_alt    "P 1"
_space_group_IT_number       1

loop_
  _space_group_symop_operation_xyz
  'x, y, z'

loop_
  _atom_site_type_symbol
  _atom_site_label
  _atom_site_symmetry_multiplicity
  _atom_site_fract_x
  _atom_site_fract_y
  _atom_site_fract_z
  _atom_site_occupancy
  Cu  Cu1       1.0  0.0402134036525084  0.4885124371167606  0.5523065819332302  1.0000
  Cu  Cu2       1.0  0.5402022209345391  0.011496145502619  0.9476961104689181  1.0000
  Cu  Cu3       1.0  0.9598013952701979  0.511495168541458  0.4476937295301795  1.0000
  Cu  Cu4       1.0  0.4597771833843965  0.9885029478729592  0.05230476586696401  1.0000
  Cu  Cu5       1.0  0.44692221063279913  0.48963782554323376  0.5682183784917569  1.0000
  Cu  Cu6       1.0  0.946912812568293  0.010374508635578601  0.9317833710758592  1.0000
  Cu  Cu7       1.0  0.5530852143925743  0.5103698021592746  0.4317843384390018  1.0000
  Cu  Cu8       1.0  0.05307396561686772  0.9896258091788611  0.06821834092841782  1.0000
  Si  Si1       1.0  0.8192675657785533  0.4815471719901011  0.7065263303878312  1.0000
  Si  Si2       1.0  0.3192603482771475  0.0184553487507841  0.7934705393971131  1.0000
  Si  Si3       1.0  0.18073838449758037  0.5184494761872499  0.2934732754888572  1.0000
  Si  Si4       1.0  0.6807323290380085  0.9815425054917526  0.20652789761303583  1.0000
  H   H1        1.0  0.7808764808938877  0.7711631025772901  0.6938431059220848  1.0000
  H   H2        1.0  0.28086920158994394  0.7288360936946249  0.8061589730916695  1.0000
  H   H3        1.0  0.219138318027369  0.22883598345440248  0.30615696856529695  1.0000
  H   H4        1.0  0.7191175765869745  0.271161797289217  0.1938434730256731  1.0000
  H   H5        1.0  0.9182097764849931  0.9762933365189497  0.6218264643192485  1.0000
  H   H6        1.0  0.41821565657684096  0.523708329039465  0.8781754651063878  1.0000
  H   H7        1.0  0.08180059806560541  0.023709444871158798  0.37817852265582996  1.0000
  H   H8        1.0  0.5817681720892695  0.4762870910229324  0.12182290420332012  1.0000
  H   H9        1.0  0.9907663439813137  0.8939789505598412  0.5568484229954294  1.0000
  H   H10       1.0  0.49076217877751577  0.6060227188477327  0.9431517880000371  1.0000
  H   H11       1.0  0.009249929693304203  0.1060323284123044  0.44315439548949337  1.0000
  H   H12       1.0  0.5092260742197042  0.3939666084193049  0.0568456102170671  1.0000
  H   H13       1.0  0.6526635292040269  0.0023052006638551005  0.5548981825021642  1.0000
  H   H14       1.0  0.1526581974371339  0.4977070766666571  0.9451060371818871  1.0000
  H   H15       1.0  0.3473571687567941  0.9977122004984336  0.44510881435038396  1.0000
  H   H16       1.0  0.8473256312030274  0.5022968887417034  0.054895375475631204  1.0000
  H   H17       1.0  0.6530120991735303  0.7905887948436713  0.5370246938436622  1.0000
  H   H18       1.0  0.15300616330812747  0.7094225433123356  0.9629783269201512  1.0000
  H   H19       1.0  0.3470056492880148  0.2094249072850545  0.4629769896167701  1.0000
  H   H20       1.0  0.8469894635301999  0.2905814220975386  0.03702308572803051  1.0000
  H   H21       1.0  0.3729591842111049  0.8815877026509752  0.5984612354756322  1.0000
  H   H22       1.0  0.8729563716282202  0.6184139513391499  0.9015407655511894  1.0000
  H   H23       1.0  0.6270600390320099  0.1184199066820071  0.4015394768945342  1.0000
  H   H24       1.0  0.1270318813247187  0.38159124218190493  0.09846188368730682  1.0000
  H   H25       1.0  0.5426330344191684  0.954704106659676  0.6490587637884104  1.0000
  H   H26       1.0  0.042636516094383105  0.5453023128786467  0.850941890730418  1.0000
  H   H27       1.0  0.4573773401670707  0.0453010758415857  0.35094268270182033  1.0000
  H   H28       1.0  0.9573458377705963  0.4546992183505196  0.14905945422082573  1.0000
  H   H29       1.0  0.12168979182473554  0.3891013610858493  0.7493109154599155  1.0000
  H   H30       1.0  0.6216604242817569  0.11090959570507408  0.750682895728673  1.0000
  H   H31       1.0  0.878322057560567  0.6108855393536103  0.2506872168515955  1.0000
  H   H32       1.0  0.37832192962977734  0.8890894572546202  0.24931357059208645  1.0000
  H   H33       1.0  0.13135709460416933  0.6028408071750491  0.7432038380123914  1.0000
  H   H34       1.0  0.6313529320732627  0.8971716396573512  0.7567880253786258  1.0000
  H   H35       1.0  0.8686518052278843  0.39714731402774106  0.256794729065426  1.0000
  H   H36       1.0  0.36863679571233393  0.1028286303927857  0.24320847479003052  1.0000
  H   H37       1.0  0.1791919085559286  0.46248538197811223  0.6862520231045225  1.0000
  H   H38       1.0  0.6791936892326053  0.03752921873903149  0.8137393931807253  1.0000
  H   H39       1.0  0.8208140417311258  0.5375063868186059  0.3137462446265289  1.0000
  H   H40       1.0  0.3207975133318828  0.9624722647265924  0.18625673993022224  1.0000
  H   H41       1.0  0.5115036935468639  0.5272463296619067  0.7597015524696078  1.0000
  H   H42       1.0  0.0114890679524891  0.9727345193628947  0.7402980394772245  1.0000
  H   H43       1.0  0.48850668107624534  0.4727454281127592  0.24029551252719022  1.0000
  H   H44       1.0  0.988491811143469  0.027254833622642093  0.2597021651174884  1.0000
  H   H45       1.0  0.7117144222564848  0.6361130105789529  0.7922514716183998  1.0000
  H   H46       1.0  0.21170623539362776  0.8638739934440663  0.7077499773750303  1.0000
  H   H47       1.0  0.2882944775809335  0.3638836265761538  0.2077469315252003  1.0000
  H   H48       1.0  0.7882805427896715  0.13611537056484482  0.2922514299457788  1.0000
  H   H49       1.0  0.6903020350237912  0.4229045126896337  0.796148842186021  1.0000
  H   H50       1.0  0.19028334734235136  0.0770784832798981  0.703845685443106  1.0000
  H   H51       1.0  0.3097024405002316  0.5770872450842718  0.20384822281543796  1.0000
  H   H52       1.0  0.8096990065395033  0.9229072074147024  0.2961532148585206  1.0000
  H   H53       1.0  0.5821639004978325  0.2734189573799242  0.6665055550266601  1.0000
  H   H54       1.0  0.0821634590417375  0.22658349907801073  0.8334912889818755  1.0000
  H   H55       1.0  0.4178258272605647  0.7265825554791546  0.3334937853674803  1.0000
  H   H56       1.0  0.9178380669080402  0.7734241065785027  0.16650902249203633  1.0000
  H   H57       1.0  0.8057011604744276  0.18394691286968617  0.6881617629515304  1.0000
  H   H58       1.0  0.3056953221234907  0.3160629106146898  0.8118357323292996  1.0000
  H   H59       1.0  0.19428856727160596  0.8160509597435064  0.3118386786122187  1.0000
  H   H60       1.0  0.6943062038415279  0.6839422461659977  0.18816290779616204  1.0000
  H   H61       1.0  0.8001330496799711  0.2785633661395933  0.6270554531183948  1.0000
  H   H62       1.0  0.30012888341397576  0.22143792159830156  0.8729402103537823  1.0000
  H   H63       1.0  0.19986110238317423  0.7214381650910864  0.3729458918235125  1.0000
  H   H64       1.0  0.6998726425679183  0.7785513946478203  0.1270559851220696  1.0000
  C   C1        1.0  0.7720103718531635  0.6626718596774595  0.6646826903511993  1.0000
  C   C2        1.0  0.2720055683465219  0.837329761158969  0.8353186685752476  1.0000
  C   C3        1.0  0.22800885138828875  0.3373260129394993  0.33531775118920853  1.0000
  C   C4        1.0  0.7279856341629557  0.16267055665603178  0.1646830434255264  1.0000
  C   C5        1.0  0.8883281565298449  0.8783647121403604  0.5901173372106001  1.0000
  C   C6        1.0  0.3883276046404519  0.621639368935135  0.9098835044747207  1.0000
  C   C7        1.0  0.11169401623045162  0.12163684113913578  0.4098864131706678  1.0000
  C   C8        1.0  0.6116591735669631  0.37835362429704833  0.0901155989457223  1.0000
  C   C9        1.0  0.6760935097419108  0.8832352231232149  0.5708410449436628  1.0000
  C   C10       1.0  0.17609700127974293  0.616763927993908  0.9291591952951778  1.0000
  C   C11       1.0  0.3239227639357908  0.1167711838167094  0.42916123721613536  1.0000
  C   C12       1.0  0.8238956760236678  0.38323393727124255  0.0708404444457287  1.0000
  C   C13       1.0  0.5221310168578698  0.8652260245521503  0.6141641877242705  1.0000
  C   C14       1.0  0.0221250472579442  0.6347840667320881  0.8858394071727176  1.0000
  C   C15       1.0  0.47788968113260216  0.13478161050046816  0.3858393310164986  1.0000
  C   C16       1.0  0.9778573065959082  0.36522112678820656  0.1141632420704397  1.0000
  C   C17       1.0  0.08882473870186662  0.4847928559527901  0.722660334509172  1.0000
  C   C18       1.0  0.5888198370407239  0.0152144485200338  0.7773342289176457  1.0000
  C   C19       1.0  0.9111812115849748  0.5151976957544234  0.2773378993681632  1.0000
  C   C20       1.0  0.41117136551489614  0.9847809568464854  0.2226625367452187  1.0000
  C   C21       1.0  0.6692794243073196  0.5211915392430341  0.7695135325931233  1.0000
  C   C22       1.0  0.1692576218858619  0.9787954392339838  0.7304863799095996  1.0000
  C   C23       1.0  0.33073095030466254  0.4788038808227597  0.230484836695581  1.0000
  C   C24       1.0  0.830726206767267  0.0211926893140202  0.26951298900855397  1.0000
  C   C25       1.0  0.7434319836438592  0.2864607982877273  0.6684056893874627  1.0000
  C   C26       1.0  0.24342566868909196  0.21354412622419258  0.8315901653585129  1.0000
  C   C27       1.0  0.25656364321363173  0.7135407145721046  0.33159365100200944  1.0000
  C   C28       1.0  0.7565788068287633  0.7864573756141553  0.1684079722932097  1.0000
  S   S1        1.0  0.9674214586012159  0.6899814409023931  0.6167708350305716  1.0000
  S   S2        1.0  0.46741864447776754  0.8100238664579179  0.883228712640147  1.0000
  S   S3        1.0  0.0326036637483895  0.3100237269039282  0.3832290078069818  1.0000
  S   S4        1.0  0.5325769823710617  0.1899727853923139  0.11677129415496523  1.0000
  S   S5        1.0  0.5201249888670391  0.6645260076042375  0.639303193169269  1.0000
  S   S6        1.0  0.020119687887309102  0.8354779830229545  0.8606986319914681  1.0000
  S   S7        1.0  0.4798971839288981  0.3354779467864049  0.36069701672715127  1.0000
  S   S8        1.0  0.9798729894093018  0.16452597503812433  0.1393019788385388  1.0000
  I   I1        1.0  0.7283245101278837  0.3388696684834826  0.5075963295137882  1.0000
  I   I2        1.0  0.22831943143075514  0.16114868791596137  0.9924051333580621  1.0000
  I   I3        1.0  0.2716755410448642  0.661147677563072  0.4924046537012928  1.0000
  I   I4        1.0  0.7716688215782316  0.8388637567032191  0.007592106259195905  1.0000
  I   I5        1.0  0.2322773160487586  0.23884599979897558  0.585057108645465  1.0000
  I   I6        1.0  0.7322669939667963  0.2611662611401044  0.914942975977148  1.0000
  I   I7        1.0  0.7677345333433581  0.7611579362193266  0.4149410967078568  1.0000
  I   I8        1.0  0.2677286329094315  0.738830364990683  0.085054224446182  1.0000
