data_image0
_chemical_formula_structural       Zr2H44C36N8O16
_chemical_formula_sum              "Zr2 H44 C36 N8 O16"
_cell_length_a       8.017599247547109
_cell_length_b       9.595878185923553
_cell_length_c       15.291880477779552
_cell_angle_alpha    98.7534185302068
_cell_angle_beta     89.99081192538219
_cell_angle_gamma    114.67072239299618

_space_group_name_H-M_alt    "P 1"
_space_group_IT_number       1

loop_
  _space_group_symop_operation_xyz
  'x, y, z'

loop_
  _atom_site_type_symbol
  _atom_site_label
  _atom_site_symmetry_multiplicity
  _atom_site_fract_x
  _atom_site_fract_y
  _atom_site_fract_z
  _atom_site_occupancy
  Zr  Zr1       1.0  0.7159511041569856  0.00021126483182600046  0.75004692283769  1.0000
  Zr  Zr2       1.0  0.28404296664745493  0.9997817153541675  0.24994967895239736  1.0000
  H   H1        1.0  0.08294994108133835  0.7783157405553637  0.497192264995931  1.0000
  H   H2        1.0  0.30473500268222853  0.22139421009357815  0.002820941757690299  1.0000
  H   H3        1.0  0.9170588278544045  0.22168418904735177  0.5028069921617727  1.0000
  H   H4        1.0  0.6952668740930006  0.7786069024077802  0.9971771259093883  1.0000
  H   H5        1.0  0.9125134063761067  0.5619322560026916  0.7572515371118127  1.0000
  H   H6        1.0  0.35078672120657467  0.438851263419586  0.7429892358462381  1.0000
  H   H7        1.0  0.08748952063670859  0.4380734547704677  0.24275091354954265  1.0000
  H   H8        1.0  0.6492091687445125  0.5611428614648517  0.2570087881220857  1.0000
  H   H9        1.0  0.008103793740495656  0.4483075271512361  0.8061260389866405  1.0000
  H   H10       1.0  0.5599013033394016  0.5519576459963105  0.6938702611953289  1.0000
  H   H11       1.0  0.9918942385463936  0.5516958762587975  0.19387487349992225  1.0000
  H   H12       1.0  0.4400933301790531  0.44803646092187677  0.3061290689546822  1.0000
  H   H13       1.0  0.9469100681543097  0.4356739636146471  0.6192902098712665  1.0000
  H   H14       1.0  0.5117865524151738  0.5650448169907918  0.8808286998872034  1.0000
  H   H15       1.0  0.05308727971632267  0.5643305667795387  0.3807134310523849  1.0000
  H   H16       1.0  0.4882055163034876  0.43495164434786904  0.11916890363931999  1.0000
  H   H17       1.0  0.09559245906342535  0.36584116203312067  0.666336796160337  1.0000
  H   H18       1.0  0.7300157867908225  0.6347680597920301  0.8335582189552608  1.0000
  H   H19       1.0  0.9043989205877948  0.6341564171805844  0.3336641888555363  1.0000
  H   H20       1.0  0.26998251292801  0.36522839117768774  0.16644003723767747  1.0000
  H   H21       1.0  0.17786590917728506  0.7188298041824479  0.923861700461728  1.0000
  H   H22       1.0  0.45886133297008763  0.28121496695379716  0.5763209505456145  1.0000
  H   H23       1.0  0.8221332717935397  0.28117589823750677  0.07614140348338337  1.0000
  H   H24       1.0  0.5411394563580956  0.7187814744028811  0.423677958545248  1.0000
  H   H25       1.0  0.12270553603200085  0.8394413946021116  0.8620729367575064  1.0000
  H   H26       1.0  0.2832065235943588  0.1607023120214137  0.6381324898685533  1.0000
  H   H27       1.0  0.8772955904388977  0.16056320790904263  0.13792547951658204  1.0000
  H   H28       1.0  0.7167948610061073  0.8392953198312085  0.36186457621642626  1.0000
  H   H29       1.0  0.35723456515786717  0.8690841569819696  0.8798334422372844  1.0000
  H   H30       1.0  0.48814083129127533  0.13108722432643563  0.6204303218439334  1.0000
  H   H31       1.0  0.6427709499106412  0.13091924491626367  0.12016746978627417  1.0000
  H   H32       1.0  0.5118599580369076  0.8689092170302429  0.37956858724692916  1.0000
  H   H33       1.0  0.21326748561645542  0.5116084835045098  0.5106260026777105  1.0000
  H   H34       1.0  0.7024886695470656  0.4889508038585219  0.9893662079949406  1.0000
  H   H35       1.0  0.7867238893835804  0.4883890866000868  0.4893756353904166  1.0000
  H   H36       1.0  0.2975045525067087  0.511047965599168  0.010632933937877478  1.0000
  H   H37       1.0  0.43470301582448906  0.5816416866238964  0.566849652943297  1.0000
  H   H38       1.0  0.8539377716803711  0.4190596677604218  0.93298359411596  1.0000
  H   H39       1.0  0.5652908813431806  0.41835593763141776  0.4331480666569475  1.0000
  H   H40       1.0  0.14605593789697485  0.5809425732368895  0.0670172024512183  1.0000
  H   H41       1.0  0.34999948384379553  0.7167397991810844  0.5414168385110114  1.0000
  H   H42       1.0  0.6343656509993352  0.2838592134819606  0.9584875402443201  1.0000
  H   H43       1.0  0.6499892325612961  0.28326243371498083  0.45858461141708756  1.0000
  H   H44       1.0  0.3656306233778038  0.7161406730948766  0.04151498294633877  1.0000
  C   C1        1.0  0.8688878699628686  0.7878419720689177  0.627163790465019  1.0000
  C   C2        1.0  0.08142672917506388  0.21222462344122306  0.8728222394780117  1.0000
  C   C3        1.0  0.1311229809002654  0.212152140682818  0.37283488562955813  1.0000
  C   C4        1.0  0.9185723719541413  0.7877834146770509  0.1271804437937973  1.0000
  C   C5        1.0  0.9352522747231118  0.9004489376028671  0.5635633711386417  1.0000
  C   C6        1.0  0.03504929378591019  0.09960205982332579  0.936415035803719  1.0000
  C   C7        1.0  0.06476563180648039  0.09955679747402968  0.4364371194399296  1.0000
  C   C8        1.0  0.9649632351453689  0.9003979054599256  0.0635816089134451  1.0000
  C   C9        1.0  0.8869126800880096  0.027949331611146988  0.566234901008279  1.0000
  C   C10       1.0  0.8591398219507697  0.9723013082570662  0.9337853781485064  1.0000
  C   C11       1.0  0.11310090373203957  0.9720552410530202  0.4337654736509009  1.0000
  C   C12       1.0  0.14087377117164118  0.027703282625317592  0.06621369040616538  1.0000
  C   C13       1.0  0.0464543631572382  0.875848874205367  0.49796351286752827  1.0000
  C   C14       1.0  0.1706793734872747  0.1239555995697756  0.002013275254988397  1.0000
  C   C15       1.0  0.9535623900372414  0.12415455275250045  0.5020354393047413  1.0000
  C   C16       1.0  0.8293287342881114  0.8760455025626399  0.9979854450785053  1.0000
  C   C17       1.0  0.29629494098696085  0.7113269718320223  0.7164397489482466  1.0000
  C   C18       1.0  0.5851071059985244  0.28911069990456173  0.7836679620860776  1.0000
  C   C19       1.0  0.7037004808167922  0.2886612273960623  0.283565530738386  1.0000
  C   C20       1.0  0.41488960396766555  0.7108950485648717  0.21633187675208623  1.0000
  C   C21       1.0  0.029144348234041127  0.5305640256276688  0.7602189046069723  1.0000
  C   C22       1.0  0.4986743308061391  0.4698862017691353  0.7398727597212158  1.0000
  C   C23       1.0  0.970849525677714  0.46943355308210494  0.23978208025456377  1.0000
  C   C24       1.0  0.5013238704663507  0.5301125484624691  0.2601276880074437  1.0000
  C   C25       1.0  0.06430400613992047  0.46722201132939734  0.6666962580404814  1.0000
  C   C26       1.0  0.5974870959145235  0.5333847138438443  0.8333387466288611  1.0000
  C   C27       1.0  0.9356855969968193  0.5327720146146786  0.3333089498885257  1.0000
  C   C28       1.0  0.4025067214115339  0.4666152461097966  0.16665855229807386  1.0000
  C   C29       1.0  0.2145522301335915  0.7813584416836646  0.8673839329232818  1.0000
  C   C30       1.0  0.4330585136748438  0.21878605336647175  0.6328402686453599  1.0000
  C   C31       1.0  0.7854495435441106  0.21864496097047237  0.13261697933177166  1.0000
  C   C32       1.0  0.5669422803045235  0.7812103970993147  0.36715798739324157  1.0000
  C   C33       1.0  0.31014660649213965  0.602736887824065  0.5616537724073395  1.0000
  C   C34       1.0  0.7083307809623278  0.3978966648143114  0.9382846778873455  1.0000
  C   C35       1.0  0.6898446840150996  0.3972630088697428  0.4383480980397322  1.0000
  C   C36       1.0  0.2916611846588068  0.602102086677128  0.06171577022715269  1.0000
  N   N1        1.0  0.19846252464675726  0.6721427095605108  0.7876945915076092  1.0000
  N   N2        1.0  0.5260476796897464  0.3280813861441203  0.7124689577587515  1.0000
  N   N3        1.0  0.8015364036741487  0.32785250511575004  0.21230877287533184  1.0000
  N   N4        1.0  0.4739543521175236  0.6719150458514846  0.28753060430720007  1.0000
  N   N5        1.0  0.2236472909694882  0.6001149611703909  0.6447279045357703  1.0000
  N   N6        1.0  0.6242111413134167  0.400562448257176  0.8552998618656671  1.0000
  N   N7        1.0  0.7763515435562595  0.3998825618768648  0.3552769983306376  1.0000
  N   N8        1.0  0.37577976011659325  0.5994316776351241  0.14469816241133057  1.0000
  O   O1        1.0  0.8077378289064397  0.831468015062917  0.7015184750125768  1.0000
  O   O2        1.0  0.9764259158840003  0.1688402119118564  0.7985792104397049  1.0000
  O   O3        1.0  0.19226894724588564  0.16853541391067486  0.2984804777770406  1.0000
  O   O4        1.0  0.02357587639842499  0.8311632271787132  0.20141908960631838  1.0000
  O   O5        1.0  0.7792958186511854  0.05702639676535168  0.6267680554631168  1.0000
  O   O6        1.0  0.7225403155557187  0.9433642745632864  0.8732796626922549  1.0000
  O   O7        1.0  0.22070730525431495  0.9429747154840339  0.3732300121267968  1.0000
  O   O8        1.0  0.2774652979591323  0.05663682807306  0.1267190577955759  1.0000
  O   O9        1.0  0.4401919637063186  0.8368665671433034  0.7162737798842186  1.0000
  O   O10       1.0  0.6034125956300826  0.16352238198100366  0.783881811986525  1.0000
  O   O11       1.0  0.559810138640202  0.1631275109357659  0.28372750895955784  1.0000
  O   O12       1.0  0.39659208546977703  0.8364693690049163  0.21611924432396987  1.0000
  O   O13       1.0  0.8722104755607489  0.658139096445069  0.6103174416198839  1.0000
  O   O14       1.0  0.21468181292791388  0.34172162474335  0.8895802047106754  1.0000
  O   O15       1.0  0.12780410191118108  0.34187245573477304  0.3896836300989789  1.0000
  O   O16       1.0  0.7853106588215297  0.6582806347241429  0.11041928582915257  1.0000
