data_image0
_chemical_formula_structural       Nd2H22C34O22
_chemical_formula_sum              "Nd2 H22 C34 O22"
_cell_length_a       8.829334732774944
_cell_length_b       8.866431707502812
_cell_length_c       12.690878111049129
_cell_angle_alpha    81.54762330686705
_cell_angle_beta     69.57749850492799
_cell_angle_gamma    61.31217590798965

_space_group_name_H-M_alt    "P 1"
_space_group_IT_number       1

loop_
  _space_group_symop_operation_xyz
  'x, y, z'

loop_
  _atom_site_type_symbol
  _atom_site_label
  _atom_site_symmetry_multiplicity
  _atom_site_fract_x
  _atom_site_fract_y
  _atom_site_fract_z
  _atom_site_occupancy
  Nd  Nd1       1.0  0.0853339289650705  0.7667224240543717  0.5810658596502948  1.0000
  Nd  Nd2       1.0  0.9146679209964785  0.23327835744543535  0.41893417863686017  1.0000
  H   H1        1.0  0.5436360014728691  0.8183424102422309  0.4614895484693591  1.0000
  H   H2        1.0  0.4563640165244038  0.18165965070316767  0.5385100086906505  1.0000
  H   H3        1.0  0.4816462710906818  0.008497474322375402  0.14091127643122547  1.0000
  H   H4        1.0  0.518354369417153  0.9915033090236848  0.8590890539223538  1.0000
  H   H5        1.0  0.9309506626958209  0.9716568751156417  0.22544512543670694  1.0000
  H   H6        1.0  0.0690493970773858  0.028342624037698303  0.7745554815869227  1.0000
  H   H7        1.0  0.7143421934558699  0.9125009189329988  0.9857776082619978  1.0000
  H   H8        1.0  0.28565845326048833  0.08749985597342662  0.014221933501637807  1.0000
  H   H9        1.0  0.8489046157243931  0.013129435122976903  0.8967923095995759  1.0000
  H   H10       1.0  0.15109482153824408  0.9868713416297015  0.10320752423047712  1.0000
  H   H11       1.0  0.8309316513568559  0.27663631612387013  0.9359500477124174  1.0000
  H   H12       1.0  0.16907024038063403  0.7233619035838786  0.06405104043835759  1.0000
  H   H13       1.0  0.057208862000706386  0.546157347917209  0.8400095214817327  1.0000
  H   H14       1.0  0.9427887308806149  0.45384472516033014  0.1599914084010692  1.0000
  H   H15       1.0  0.6202229282398122  0.6677580851965815  0.7068900329486354  1.0000
  H   H16       1.0  0.3797764966057926  0.3322427084353592  0.2931113780613187  1.0000
  H   H17       1.0  0.3357116552453049  0.37506562247546077  0.8823715173074049  1.0000
  H   H18       1.0  0.6642883503349281  0.6249364553492002  0.11762961703249893  1.0000
  H   H19       1.0  0.21046946865263993  0.40409911587165237  0.5018680746773825  1.0000
  H   H20       1.0  0.7895324355018828  0.5958990869568269  0.4981314362934981  1.0000
  H   H21       1.0  0.3910726387615355  0.43187043295991157  0.45264934747990543  1.0000
  H   H22       1.0  0.6089280497307499  0.5681277801544555  0.5473512441473432  1.0000
  C   C1        1.0  0.8464926902903469  0.8569224777422164  0.433974908530189  1.0000
  C   C2        1.0  0.15350799820193825  0.14307573537215035  0.5660256830970596  1.0000
  C   C3        1.0  0.7474844313804353  0.8923714579049504  0.35232889182259436  1.0000
  C   C4        1.0  0.2525168440550018  0.10762803096250202  0.6476706345446601  1.0000
  C   C5        1.0  0.5951117478753002  0.8646151805049415  0.3796177000854398  1.0000
  C   C6        1.0  0.40488768938733694  0.1353855962477368  0.62038213374462  1.0000
  C   C7        1.0  0.5007334456231758  0.9075282438579181  0.3027591028348625  1.0000
  C   C8        1.0  0.4992672010931756  0.09247253104850733  0.6972404389287662  1.0000
  C   C9        1.0  0.32417751142707374  0.8991247338137924  0.33730429995595296  1.0000
  C   C10       1.0  0.6758219320440871  0.10087603449925105  0.6626947452841634  1.0000
  C   C11       1.0  0.5618181842135925  0.9704277256915932  0.19730373918854127  1.0000
  C   C12       1.0  0.43818125304904487  0.029573051061085206  0.8026960946415117  1.0000
  C   C13       1.0  0.7216864912336399  0.9854883037529095  0.16794082438987365  1.0000
  C   C14       1.0  0.2783135747480827  0.0145111869607959  0.8320589940438124  1.0000
  C   C15       1.0  0.8106983354253142  0.9528823474857193  0.24683087625096092  1.0000
  C   C16       1.0  0.18930357493772476  0.0471158469031252  0.7531678461299762  1.0000
  C   C17       1.0  0.740344583515501  0.024024314508274407  0.9755654953400565  1.0000
  C   C18       1.0  0.2596548537471363  0.9759764622444111  0.024434338490003423  1.0000
  C   C19       1.0  0.5863175304536979  0.3072412790039962  0.9115779652673694  1.0000
  C   C20       1.0  0.4136837325647064  0.6927582267427185  0.08842313827977931  1.0000
  C   C21       1.0  0.7287537194641586  0.3469064726902574  0.8938660965524505  1.0000
  C   C22       1.0  0.2712475559712785  0.653093016177188  0.1061334298148111  1.0000
  C   C23       1.0  0.7379554262829586  0.4788077244957237  0.819920829525593  1.0000
  C   C24       1.0  0.2620464902885972  0.5211904614534929  0.18007710426539345  1.0000
  C   C25       1.0  0.8861522122720585  0.5280318254011505  0.7919009672667415  1.0000
  C   C26       1.0  0.11384722499057885  0.4719689513515278  0.2080988665633114  1.0000
  C   C27       1.0  0.607270137746951  0.569002983601749  0.7656851370266722  1.0000
  C   C28       1.0  0.3927311376884858  0.4309965052657034  0.23431438934058244  1.0000
  C   C29       1.0  0.4600027832490524  0.5349179328692915  0.7895596382896741  1.0000
  C   C30       1.0  0.539996019085983  0.46508413836199486  0.2104409995267033  1.0000
  C   C31       1.0  0.32630787159895647  0.6277407604278692  0.727255710841412  1.0000
  C   C32       1.0  0.6736915532466483  0.3722600332040784  0.2727457001685422  1.0000
  C   C33       1.0  0.44734494552455556  0.406142755172617  0.8645471755370409  1.0000
  C   C34       1.0  0.5526550662641937  0.5938593142124093  0.13545317021291237  1.0000
  O   O1        1.0  0.867770567697633  0.7300759791591602  0.4992522751557473  1.0000
  O   O2        1.0  0.1322301270031758  0.2699222255155719  0.5007475278815576  1.0000
  O   O3        1.0  0.914783833880484  0.9544913904953138  0.4368502664577394  1.0000
  O   O4        1.0  0.08521685461180079  0.0455068226190534  0.5631503251695165  1.0000
  O   O5        1.0  0.3081581956596792  0.7814767942241616  0.40289012807717484  1.0000
  O   O6        1.0  0.6918430859842812  0.21852268620365586  0.5971086097001361  1.0000
  O   O7        1.0  0.1999512029136881  0.018272585856031802  0.3001964800652317  1.0000
  O   O8        1.0  0.8000494438026633  0.9817281890503937  0.699803061698404  1.0000
  O   O9        1.0  0.800219599404869  0.0330289956296284  0.06323740991431491  1.0000
  O   O10       1.0  0.199781041102966  0.9669717877164249  0.9367629204392643  1.0000
  O   O11       1.0  0.5733824840018895  0.17009525792708763  0.9740434745881856  1.0000
  O   O12       1.0  0.42661758197983346  0.8299042327866176  0.025956343845500395  1.0000
  O   O13       1.0  0.9696525069290512  0.49421983610819353  0.8682826185752222  1.0000
  O   O14       1.0  0.03034141581519377  0.5057848043001628  0.13171813764324006  1.0000
  O   O15       1.0  0.9246880014904519  0.5995094983551112  0.7023276555532689  1.0000
  O   O16       1.0  0.07531022631847145  0.400491280243827  0.2976724703432155  1.0000
  O   O17       1.0  0.1590403046559459  0.6598707394202564  0.7721491344330005  1.0000
  O   O18       1.0  0.8409591201896516  0.34013005421168435  0.22785227657695384  1.0000
  O   O19       1.0  0.38069248248096693  0.6749221915169059  0.6269919042564922  1.0000
  O   O20       1.0  0.6193075772922397  0.32507730763642695  0.37300870276713743  1.0000
  O   O21       1.0  0.2613837599618094  0.48393666671978525  0.501633907338821  1.0000
  O   O22       1.0  0.7386163060199138  0.51606282399392  0.49836591109486506  1.0000
