data_image0
_chemical_formula_structural       Zn2H16C30Br4N2O9
_chemical_formula_sum              "Zn2 H16 C30 Br4 N2 O9"
_cell_length_a       9.865034534592754
_cell_length_b       11.003283349813172
_cell_length_c       16.068208087439746
_cell_angle_alpha    88.17625357911925
_cell_angle_beta     89.06003611007954
_cell_angle_gamma    95.7257924134896

_space_group_name_H-M_alt    "P 1"
_space_group_IT_number       1

loop_
  _space_group_symop_operation_xyz
  'x, y, z'

loop_
  _atom_site_type_symbol
  _atom_site_label
  _atom_site_symmetry_multiplicity
  _atom_site_fract_x
  _atom_site_fract_y
  _atom_site_fract_z
  _atom_site_occupancy
  Zn  Zn1       1.0  0.36232443586821717  0.47916727793837316  0.5074133564376027  1.0000
  Zn  Zn2       1.0  0.6508095176473887  0.5076596198946888  0.5088629820909814  1.0000
  H   H1        1.0  0.2817370766151654  0.5304594676350405  0.08462439316298997  1.0000
  H   H2        1.0  0.1977538158198655  0.0825125492489462  0.4592217616871109  1.0000
  H   H3        1.0  0.15366276382079036  0.5719928180025348  0.6213454168390695  1.0000
  H   H4        1.0  0.12562558898718376  0.423962758621613  0.3173568881817701  1.0000
  H   H5        1.0  0.10001868424754426  0.2806662414746696  0.3731803110427307  1.0000
  H   H6        1.0  0.8439011447123617  0.29962701243912443  0.379172534081313  1.0000
  H   H7        1.0  0.2833561345774953  0.5048967871656274  0.9309948070491953  1.0000
  H   H8        1.0  0.7189721485129394  0.5257703969254663  0.08412045368740449  1.0000
  H   H9        1.0  0.7195794408989753  0.12869292919980782  0.5506890672683795  1.0000
  H   H10       1.0  0.7183882702970122  0.9024360274918378  0.5631391210196453  1.0000
  H   H11       1.0  0.19529581452082564  0.853623401447109  0.4768707367303832  1.0000
  H   H12       1.0  0.08986611680595759  0.8685231094242095  0.3175712740617555  1.0000
  H   H13       1.0  0.090820772480285  0.7307375978858629  0.379468434230496  1.0000
  H   H14       1.0  0.22631255825162805  0.6416684194154241  0.2655554798453537  1.0000
  H   H15       1.0  0.06680086431621389  0.6833015650781389  0.22893731577805446  1.0000
  H   H16       1.0  0.2204588870304747  0.7783109270374169  0.20372691133951548  1.0000
  C   C1        1.0  0.5226533241589164  0.26156733700538837  0.49210591426419364  1.0000
  C   C2        1.0  0.37703467437076194  0.5239145915293975  0.0506360800309977  1.0000
  C   C3        1.0  0.4975269101697818  0.4845667100935457  0.8334526674965301  1.0000
  C   C4        1.0  0.4993066894951426  0.5367564700255156  0.18229180592333444  1.0000
  C   C5        1.0  0.4964130207010768  0.5381006649777048  0.25806592548015317  1.0000
  C   C6        1.0  0.4903859595762368  0.4717048018669415  0.7585527871846408  1.0000
  C   C7        1.0  0.41572049478734385  0.0464938124548482  0.4665227780412307  1.0000
  C   C8        1.0  0.5229755721207922  0.12597433149346668  0.49467874783300647  1.0000
  C   C9        1.0  0.6328373995228842  0.0700027718918861  0.5286007355390152  1.0000
  C   C10       1.0  0.6320693777904081  0.9429038547619366  0.5359556275115478  1.0000
  C   C11       1.0  0.5215207851568238  0.8636829328138016  0.5094127750469468  1.0000
  C   C12       1.0  0.488738024532374  0.5269932397792871  0.3478545294287442  1.0000
  C   C13       1.0  0.4153213970407633  0.9199185123062672  0.4733450651871108  1.0000
  C   C14       1.0  0.277286097058024  0.894578238390771  0.43372109901095957  1.0000
  C   C15       1.0  0.2788601866931941  0.04120355540905509  0.42626049890708356  1.0000
  C   C16       1.0  0.9322137088911544  0.45779797375164594  0.4480167701116072  1.0000
  C   C17       1.0  0.9505060194775079  0.5545631307849205  0.5689500157191886  1.0000
  C   C18       1.0  0.09045141698092608  0.5387659736865017  0.5702809638923866  1.0000
  C   C19       1.0  0.070469111350242  0.44254806598902974  0.4486415064352584  1.0000
  C   C20       1.0  0.06928793301639759  0.37388961759582867  0.3692296151513687  1.0000
  C   C21       1.0  0.9104678220742882  0.38491491327045674  0.3697494539155527  1.0000
  C   C22       1.0  0.5202889265691225  0.7282608152551474  0.5180765477238153  1.0000
  C   C23       1.0  0.4861293404325053  0.4654070644310622  0.6690740532554429  1.0000
  C   C24       1.0  0.3780032599904573  0.509761138386807  0.9653471118023729  1.0000
  C   C25       1.0  0.5006665188162029  0.5002104478083493  0.9202462676102383  1.0000
  C   C26       1.0  0.6233899380342365  0.5073788579332896  0.9650882453938433  1.0000
  C   C27       1.0  0.6237399878921578  0.5215272634196708  0.05059196178101639  1.0000
  C   C28       1.0  0.5001000864745607  0.5288799910596609  0.09461625673856837  1.0000
  C   C29       1.0  0.14756275884211328  0.7891849305957305  0.3304308090364642  1.0000
  C   C30       1.0  0.1664890879931775  0.7188483071968931  0.2523410038912742  1.0000
  Br  Br1       1.0  0.8798874577047398  0.63499174573802  0.658850114432326  1.0000
  Br  Br2       1.0  0.8464172699543653  0.46690136513453934  0.27089116559025667  1.0000
  Br  Br3       1.0  0.7916067205464685  0.497258252904018  0.9079856382037901  1.0000
  Br  Br4       1.0  0.27937982552303714  0.109986201958705  0.31173931300643426  1.0000
  N   N1        1.0  0.8671568730129521  0.5128609523960819  0.5076382002126534  1.0000
  N   N2        1.0  0.15196111878285729  0.4808159584641628  0.5097712421912489  1.0000
  O   O1        1.0  0.40672980930436603  0.3021439009610204  0.49942758375767216  1.0000
  O   O2        1.0  0.6378525806315595  0.32508349714949947  0.48457341125372  1.0000
  O   O3        1.0  0.37033674048289095  0.4965911575924408  0.3795201337124183  1.0000
  O   O4        1.0  0.5994345462223477  0.5462874087352958  0.3869491902047314  1.0000
  O   O5        1.0  0.4051524113125352  0.6661841355057516  0.5120412763454922  1.0000
  O   O6        1.0  0.6342576783949241  0.6858840138218837  0.5305452714809176  1.0000
  O   O7        1.0  0.3701940621633995  0.470849309719256  0.6358430877332495  1.0000
  O   O8        1.0  0.5989731607453804  0.45657948303626483  0.6312408289453018  1.0000
  O   O9        1.0  0.28018478762505333  0.8296624289952205  0.360547079248981  1.0000
