data_image0
_chemical_formula_structural       Al4H36C64O28
_chemical_formula_sum              "Al4 H36 C64 O28"
_cell_length_a       6.7796824666203275
_cell_length_b       23.760933439718535
_cell_length_c       25.69958199690556
_cell_angle_alpha    89.98129423829363
_cell_angle_beta     90.04631960148369
_cell_angle_gamma    90.02788301063065

_space_group_name_H-M_alt    "P 1"
_space_group_IT_number       1

loop_
  _space_group_symop_operation_xyz
  'x, y, z'

loop_
  _atom_site_type_symbol
  _atom_site_label
  _atom_site_symmetry_multiplicity
  _atom_site_fract_x
  _atom_site_fract_y
  _atom_site_fract_z
  _atom_site_occupancy
  Al  Al1       1.0  0.0019610451459471  0.0008459694528112999  0.4991728279562224  1.0000
  Al  Al2       1.0  0.5019486932228788  0.9992445362228252  0.5007910483106599  1.0000
  Al  Al3       1.0  0.9981204732634199  0.5007658321779402  0.9992116031666995  1.0000
  Al  Al4       1.0  0.4981102300485746  0.4991643613358505  0.0008464773036962  1.0000
  H   H1        1.0  0.25016921022012184  0.07536735197668068  0.50102945851485  1.0000
  H   H2        1.0  0.7543574939257598  0.9247554766654316  0.4992391219929573  1.0000
  H   H3        1.0  0.24992144659850626  0.42464665977072963  0.9989466963348193  1.0000
  H   H4        1.0  0.7457113988728992  0.5752541656363306  0.0007666027674062999  1.0000
  H   H5        1.0  0.43477151397930675  0.3848801173726457  0.1182467922281916  1.0000
  H   H6        1.0  0.4339710806733025  0.31337306626273426  0.18842488767769078  1.0000
  H   H7        1.0  0.07197413885067051  0.3136135348173211  0.1879801615843704  1.0000
  H   H8        1.0  0.4282575623179029  0.1862722625536506  0.31188703433758036  1.0000
  H   H9        1.0  0.06539995238120612  0.11508393523426717  0.38172817046521595  1.0000
  H   H10       1.0  0.06626072661835282  0.18653039730359205  0.3114967812647009  1.0000
  H   H11       1.0  0.9362729386665337  0.6153014523537266  0.8823143608006417  1.0000
  H   H12       1.0  0.9341217565545038  0.6866904270714541  0.812097096012323  1.0000
  H   H13       1.0  0.5721418233845271  0.6862003053776247  0.8115454729749771  1.0000
  H   H14       1.0  0.9279099555634432  0.8139472387142205  0.6885832288722182  1.0000
  H   H15       1.0  0.5637843834173922  0.8846748276896507  0.6176762321144551  1.0000
  H   H16       1.0  0.565920893149766  0.8133203565448354  0.6879246193892641  1.0000
  H   H17       1.0  0.5637464360276568  0.6149019636062008  0.1179468925254881  1.0000
  H   H18       1.0  0.5667355313989548  0.6863041879058328  0.18806508940020444  1.0000
  H   H19       1.0  0.9287457781805843  0.6866500166023356  0.18829105015268505  1.0000
  H   H20       1.0  0.5712787742249292  0.8135132563164474  0.3116002491837477  1.0000
  H   H21       1.0  0.9362472759871353  0.8850512686553029  0.3821070833054137  1.0000
  H   H22       1.0  0.9332920789445398  0.8136793540020758  0.31196125823935716  1.0000
  H   H23       1.0  0.4335243528388021  0.3840144621422538  0.8825682733392667  1.0000
  H   H24       1.0  0.431846358209441  0.31271926970681807  0.8123081574790305  1.0000
  H   H25       1.0  0.06974466252948731  0.3140995019473677  0.8113873712239013  1.0000
  H   H26       1.0  0.4302251400744269  0.18578148866060934  0.6886977430486425  1.0000
  H   H27       1.0  0.0665059500224245  0.11592250909352227  0.6175090561444065  1.0000
  H   H28       1.0  0.06813233796202671  0.18719749266318786  0.6877878474992372  1.0000
  H   H29       1.0  0.07797691809661703  0.4162720584291577  0.0881543082986838  1.0000
  H   H30       1.0  0.422151794455175  0.08373491918564467  0.4118155856621399  1.0000
  H   H31       1.0  0.579901527229744  0.5825986676063407  0.9104890770716523  1.0000
  H   H32       1.0  0.9201544739456652  0.9174537771267592  0.5895602603799404  1.0000
  H   H33       1.0  0.9195518610253687  0.5832487099226284  0.089398673063009  1.0000
  H   H34       1.0  0.580475673672929  0.916848059270336  0.4105381623395985  1.0000
  H   H35       1.0  0.0773733574359241  0.4176896857661489  0.9100573918945543  1.0000
  H   H36       1.0  0.4226436072501373  0.08225570882444087  0.5899798566315866  1.0000
  C   C1        1.0  0.7541960908840013  0.06866709825401779  0.5706568372016818  1.0000
  C   C2        1.0  0.7546384250623603  0.0686397585171363  0.4293281080916529  1.0000
  C   C3        1.0  0.24941413573884572  0.9314717019699115  0.429312039616299  1.0000
  C   C4        1.0  0.25140257524896736  0.9314596802084975  0.5706456707252414  1.0000
  C   C5        1.0  0.7458530818096706  0.431293291822918  0.9293846466374589  1.0000
  C   C6        1.0  0.7454841753394775  0.431360322034358  0.0706720912810042  1.0000
  C   C7        1.0  0.25061962402151755  0.5685540878110659  0.07069139054931378  1.0000
  C   C8        1.0  0.24864473351557595  0.5685470549122371  0.9293628616366618  1.0000
  C   C9        1.0  0.751339672470671  0.38990358512607054  0.1129163727652269  1.0000
  C   C10       1.0  0.5734631575176793  0.36905350720877533  0.1336280686819862  1.0000
  C   C11       1.0  0.5723641964546573  0.3292297004520747  0.172730943250464  1.0000
  C   C12       1.0  0.7532277092977326  0.3085603648267962  0.19278970526222847  1.0000
  C   C13       1.0  0.9320108959721553  0.3290227700803285  0.17282874676605078  1.0000
  C   C14       1.0  0.9329590652854238  0.369476251424274  0.1332736183204943  1.0000
  C   C15       1.0  0.7524214185842623  0.2676093741748459  0.23270718263506038  1.0000
  C   C16       1.0  0.7478247466918618  0.23224933288450697  0.2671556926623566  1.0000
  C   C17       1.0  0.7470067103520678  0.1913273769286974  0.3070930093651185  1.0000
  C   C18       1.0  0.5682102736849829  0.17087969909263728  0.32706252491684745  1.0000
  C   C19       1.0  0.5672238467668367  0.1304741863003755  0.3666518845647815  1.0000
  C   C20       1.0  0.7488167544077059  0.11005610317005217  0.38704297898632223  1.0000
  C   C21       1.0  0.9267138882450682  0.1308952429247867  0.3663176676976576  1.0000
  C   C22       1.0  0.9278452274327763  0.17068033805874447  0.32718873136092697  1.0000
  C   C23       1.0  0.2530565639395094  0.6099713991411305  0.8870642894409498  1.0000
  C   C24       1.0  0.07475490866836762  0.6310260818334255  0.8667286627193888  1.0000
  C   C25       1.0  0.07288169865550741  0.6708387065507038  0.8275982745645293  1.0000
  C   C26       1.0  0.25333549557558405  0.6914633508380772  0.8072471694517134  1.0000
  C   C27       1.0  0.43244458063334434  0.6708633868885058  0.8268960231939886  1.0000
  C   C28       1.0  0.43420111902582187  0.6302224571698003  0.8662747749911759  1.0000
  C   C29       1.0  0.2521003277920358  0.7323939775184416  0.7673003211551687  1.0000
  C   C30       1.0  0.2479220929279862  0.7676927049041423  0.7327844630033624  1.0000
  C   C31       1.0  0.2467075481377209  0.8086115512100703  0.6928267232387952  1.0000
  C   C32       1.0  0.067594086917282  0.829235500367325  0.6731965429203299  1.0000
  C   C33       1.0  0.0658463297023104  0.869847817558572  0.6337893910030984  1.0000
  C   C34       1.0  0.24699226368138483  0.8900521670710405  0.6129629179438822  1.0000
  C   C35       1.0  0.4253012584944572  0.8689802322394299  0.6332849289797196  1.0000
  C   C36       1.0  0.42715091841512287  0.8291882239271262  0.6724359348197453  1.0000
  C   C37       1.0  0.24691131321738174  0.6100112341477697  0.1129572541873785  1.0000
  C   C38       1.0  0.42541773727255366  0.6308050731585481  0.13340738912256  1.0000
  C   C39       1.0  0.42779311768578765  0.6706375152127533  0.1725175868746263  1.0000
  C   C40       1.0  0.24759952123752535  0.6914893958396034  0.1927743070744157  1.0000
  C   C41       1.0  0.06829665070548431  0.6711423153183275  0.1730298804376531  1.0000
  C   C42       1.0  0.06603531898503691  0.6305494404606264  0.13364509214707  1.0000
  C   C43       1.0  0.2486333556646159  0.7324023429995492  0.2327114720977193  1.0000
  C   C44       1.0  0.25140476224508035  0.7676933218672132  0.2672250210638012  1.0000
  C   C45       1.0  0.2524415606855968  0.8085839606412647  0.3071793105374638  1.0000
  C   C46       1.0  0.4317399822834176  0.8289651353826385  0.3268961048486431  1.0000
  C   C47       1.0  0.4339880590971675  0.8695356998837624  0.3663015180788777  1.0000
  C   C48       1.0  0.2531150546963374  0.8900221328158223  0.38703333350009217  1.0000
  C   C49       1.0  0.0746042280212507  0.8691899901259816  0.366611608904293  1.0000
  C   C50       1.0  0.07225390693567853  0.8293756500340094  0.32748506815717343  1.0000
  C   C51       1.0  0.750278233115779  0.3898370470576183  0.8871141804406477  1.0000
  C   C52       1.0  0.5721037359139559  0.3685124879282141  0.8669085162769575  1.0000
  C   C53       1.0  0.5704599220622981  0.3287537650888054  0.8277505152957972  1.0000
  C   C54       1.0  0.7510119645648033  0.3084217103892826  0.8072972510680713  1.0000
  C   C55       1.0  0.9299829054029518  0.3292422703325286  0.826818616453984  1.0000
  C   C56       1.0  0.9315273245116417  0.36986076725884937  0.8661554733645004  1.0000
  C   C57       1.0  0.7508454201084264  0.26754334836970617  0.7673418736906044  1.0000
  C   C58       1.0  0.7490814105209582  0.23230801251084188  0.7327914450120048  1.0000
  C   C59       1.0  0.7489473026209764  0.191451961720503  0.6928193355995234  1.0000
  C   C60       1.0  0.5699984635593935  0.17064150738860204  0.6732804607805463  1.0000
  C   C61       1.0  0.5684790995623105  0.13004953066179328  0.6339214229688751  1.0000
  C   C62       1.0  0.7497488448805145  0.11008672061331738  0.6129596029543123  1.0000
  C   C63       1.0  0.9279071417818872  0.1314062251359687  0.6331816090270905  1.0000
  C   C64       1.0  0.9295214678799726  0.1711476877901957  0.6723536177979454  1.0000
  O   O1        1.0  0.9187268746689057  0.053138385290821995  0.5517753290574419  1.0000
  O   O2        1.0  0.586447343702993  0.05173640954848221  0.4479498228065779  1.0000
  O   O3        1.0  0.4190759516226309  0.9493493015026854  0.4463461563814377  1.0000
  O   O4        1.0  0.0828264463337831  0.9498181199374326  0.5536195724944192  1.0000
  O   O5        1.0  0.0849111092553159  0.9475568615597181  0.4478140851233547  1.0000
  O   O6        1.0  0.4170102143691708  0.9469832165036748  0.5521589388317665  1.0000
  O   O7        1.0  0.5846687753277139  0.05024569128869419  0.5540018072545365  1.0000
  O   O8        1.0  0.9208258918543211  0.0517301577633873  0.446252601974379  1.0000
  O   O9        1.0  0.253366417804699  0.03461267005900479  0.4999878549320727  1.0000
  O   O10       1.0  0.7522778888942271  0.9655212405113145  0.5000185671634512  1.0000
  O   O11       1.0  0.9153774348540794  0.44972564299487056  0.9460280013605525  1.0000
  O   O12       1.0  0.5792908352531398  0.4482842297420007  0.0537573225383312  1.0000
  O   O13       1.0  0.415147749684678  0.5524449370211072  0.0522130866998083  1.0000
  O   O14       1.0  0.08303702635484458  0.5529940635020978  0.9478219709304908  1.0000
  O   O15       1.0  0.08098285798105562  0.5506857525557363  0.05363898652677079  1.0000
  O   O16       1.0  0.41722238175191967  0.5502041835567792  0.9464084132984496  1.0000
  O   O17       1.0  0.5813399939674471  0.44685778228716083  0.9482494193964756  1.0000
  O   O18       1.0  0.9136472656812347  0.4482893393975402  0.0520597088644976  1.0000
  O   O19       1.0  0.24672108535022366  0.4654010288661182  3.1840460209800003e-05  1.0000
  O   O20       1.0  0.747785379155296  0.53449038991004  0.9999844726897534  1.0000
  O   O21       1.0  0.10936310062028552  0.3878452486160882  0.11572683771792919  1.0000
  O   O22       1.0  0.39079799388516534  0.11213143476639689  0.3842158259066224  1.0000
  O   O23       1.0  0.6108895239031327  0.6115334661950341  0.8833184106841185  1.0000
  O   O24       1.0  0.8891576860920483  0.8885438041113929  0.6167550472160386  1.0000
  O   O25       1.0  0.8889329289590648  0.6122144517366904  0.11654142948510329  1.0000
  O   O26       1.0  0.6110842530791983  0.8879071520118414  0.38336933084416097  1.0000
  O   O27       1.0  0.108362572730357  0.38874080377362225  0.8829422944749793  1.0000
  O   O28       1.0  0.3916603142442059  0.11118649069869241  0.617115191052136  1.0000
