data_image0
_chemical_formula_structural       Cd3H28C18Se6N14O2
_chemical_formula_sum              "Cd3 H28 C18 Se6 N14 O2"
_cell_length_a       6.0264191163314225
_cell_length_b       8.875362640804259
_cell_length_c       16.10712205718411
_cell_angle_alpha    100.22262005958642
_cell_angle_beta     97.17777618510029
_cell_angle_gamma    101.15440680227661

_space_group_name_H-M_alt    "P 1"
_space_group_IT_number       1

loop_
  _space_group_symop_operation_xyz
  'x, y, z'

loop_
  _atom_site_type_symbol
  _atom_site_label
  _atom_site_symmetry_multiplicity
  _atom_site_fract_x
  _atom_site_fract_y
  _atom_site_fract_z
  _atom_site_occupancy
  Cd  Cd1       1.0  1.4520934023137482e-05  0.49998342443257104  0.999997006882694  1.0000
  Cd  Cd2       1.0  0.91964569677328  0.16756393454257787  0.32176370578167013  1.0000
  Cd  Cd3       1.0  0.08034594705689806  0.83244306859563  0.6782451417355801  1.0000
  H   H1        1.0  0.9459456557861825  0.8464875738414505  0.3404393096981764  1.0000
  H   H2        1.0  0.05407152817848978  0.15352065166825915  0.6595640543059531  1.0000
  H   H3        1.0  0.825479639140042  0.9100092360510602  0.4182554994229405  1.0000
  H   H4        1.0  0.1745230156497684  0.0899802213362051  0.5817458698212121  1.0000
  H   H5        1.0  0.8112258191916765  0.3774925657911723  0.17205754349679125  1.0000
  H   H6        1.0  0.18877087048021918  0.6225144666610943  0.8279490647511167  1.0000
  H   H7        1.0  0.06191310435440299  0.3057793644605624  0.15548888686250706  1.0000
  H   H8        1.0  0.9380730559787054  0.6942159597664171  0.8445153987273457  1.0000
  H   H9        1.0  0.3857096148770935  0.36498329414671815  0.2701001032061612  1.0000
  H   H10       1.0  0.614285761838744  0.6350144737488536  0.7298980435089177  1.0000
  H   H11       1.0  0.3727001242378165  0.48069876260178285  0.37171533467621026  1.0000
  H   H12       1.0  0.6273134783837689  0.5193036203816277  0.6282860183487102  1.0000
  H   H13       1.0  0.4018712278302559  0.843884205478119  0.29650653897762413  1.0000
  H   H14       1.0  0.5981459700696022  0.15611363136518713  0.7034852075029718  1.0000
  H   H15       1.0  0.3833534202528453  0.753880375557493  0.38699816869542036  1.0000
  H   H16       1.0  0.6166680004479659  0.24613035142653666  0.6129963408042727  1.0000
  H   H17       1.0  0.07718088681061618  0.7867572325041505  0.18342862017446745  1.0000
  H   H18       1.0  0.9228349841980047  0.21324172844886388  0.8165662822968257  1.0000
  H   H19       1.0  0.820389109721397  0.6528103895730267  0.18865131853383585  1.0000
  H   H20       1.0  0.1796193756462046  0.347196740318644  0.8113484131192693  1.0000
  H   H21       1.0  0.7944959758036063  0.5337683873540725  0.311454322148272  1.0000
  H   H22       1.0  0.20551719744703684  0.46624804115695884  0.6885515523749319  1.0000
  H   H23       1.0  0.03720044408008496  0.57321946503275  0.3951726842072958  1.0000
  H   H24       1.0  0.9628235833704577  0.4267993588383732  0.604829608284021  1.0000
  H   H25       1.0  0.4116709184656883  0.4855642274332154  0.1488616722255713  1.0000
  H   H26       1.0  0.5883296003273059  0.5144288262240264  0.8511362377741988  1.0000
  H   H27       1.0  0.4191009608121802  0.6913936953157105  0.1606621065662637  1.0000
  H   H28       1.0  0.5808951013370277  0.30859590085571403  0.8393321321182086  1.0000
  C   C1        1.0  0.4483073377689235  0.2988638850825396  0.0035007702215991833  1.0000
  C   C2        1.0  0.5516555011603542  0.7011010451678886  0.9964943224446047  1.0000
  C   C3        1.0  0.3564209782811929  0.07020284536650216  0.21619174685088888  1.0000
  C   C4        1.0  0.6435306189128838  0.9298196217566568  0.7838124229470792  1.0000
  C   C5        1.0  0.5010483043760415  0.25322537085464353  0.4382102877259939  1.0000
  C   C6        1.0  0.49893808979989257  0.74676052071743  0.5617949061600455  1.0000
  C   C7        1.0  0.9987187123983572  0.40418664166139  0.18845251134490582  1.0000
  C   C8        1.0  0.0012789518668938832  0.59581813643009  0.8115483248905803  1.0000
  C   C9        1.0  0.32236125292191525  0.463802295941491  0.30226791571775635  1.0000
  C   C10       1.0  0.6776440034004592  0.5362001216749588  0.6977324209778643  1.0000
  C   C11       1.0  0.33066715249137957  0.7366448516693253  0.31762175185243535  1.0000
  C   C12       1.0  0.6693457786320138  0.26335531437182885  0.6823718916795514  1.0000
  C   C13       1.0  0.0080503023405427  0.6788989509506962  0.20429710918952534  1.0000
  C   C14       1.0  0.9919594685463408  0.3211070003813886  0.7957025632847559  1.0000
  C   C15       1.0  0.9824657185838035  0.5574289543549114  0.3258746736597473  1.0000
  C   C16       1.0  0.017546733522316067  0.44258519187401646  0.6741272075447782  1.0000
  C   C17       1.0  0.3487644234887099  0.5840290231331123  0.18217786825044868  1.0000
  C   C18       1.0  0.6512286739521045  0.41596174545652786  0.8178169695818481  1.0000
  Se  Se1       1.0  0.14922133039522117  0.20964018868775713  0.9930143725592514  1.0000
  Se  Se2       1.0  0.850783672911916  0.7903355451224882  0.006963973708742803  1.0000
  Se  Se3       1.0  0.6053995244885613  0.04345572898633069  0.1696165278465784  1.0000
  Se  Se4       1.0  0.3945755234323086  0.9565667478860786  0.8303844179221684  1.0000
  Se  Se5       1.0  0.24441527546130704  0.2773480564465344  0.48029098340523285  1.0000
  Se  Se6       1.0  0.7555781768909783  0.7226542528405346  0.5197168492475583  1.0000
  N   N1        1.0  0.6454043454904762  0.3562827848560133  0.01139462605684831  1.0000
  N   N2        1.0  0.354583411287848  0.6437124366125885  0.9886153131877649  1.0000
  N   N3        1.0  0.18893564789976117  0.08141632754057328  0.2454917550483202  1.0000
  N   N4        1.0  0.8110494995252608  0.9185860708294058  0.7545119644632904  1.0000
  N   N5        1.0  0.671332687371553  0.24354232383335978  0.410713187337045  1.0000
  N   N6        1.0  0.3286563274892913  0.7564412759593893  0.5892881720170848  1.0000
  N   N7        1.0  0.09403429233248764  0.5475460220553642  0.15837842102462926  1.0000
  N   N8        1.0  0.9059613156226192  0.4524575869737503  0.8416221972452573  1.0000
  N   N9        1.0  0.06609525643232667  0.4229397029390185  0.2820457631358834  1.0000
  N   N10       1.0  0.9338953222298441  0.577063898555984  0.7179558556785961  1.0000
  N   N11       1.0  0.41931254257337963  0.6063537016727096  0.2744019764981472  1.0000
  N   N12       1.0  0.5806975531746161  0.3936429367941727  0.7255917912861918  1.0000
  N   N13       1.0  0.07642028306672437  0.7028558185615451  0.29785818674173464  1.0000
  N   N14       1.0  0.9236019550140567  0.29715244715220024  0.7021423186306776  1.0000
  O   O1        1.0  0.8521865493085201  0.9248153496399142  0.36118818840416367  1.0000
  O   O2        1.0  0.1478196702756094  0.07517992849369651  0.6388164305439474  1.0000
