data_image0
_chemical_formula_structural       Na2B2H16C16O20
_chemical_formula_sum              "Na2 B2 H16 C16 O20"
_cell_length_a       5.177385910244731
_cell_length_b       9.792660446819719
_cell_length_c       11.834051897674177
_cell_angle_alpha    90.00230768275429
_cell_angle_beta     89.99854543289928
_cell_angle_gamma    104.22489824504048

_space_group_name_H-M_alt    "P 1"
_space_group_IT_number       1

loop_
  _space_group_symop_operation_xyz
  'x, y, z'

loop_
  _atom_site_type_symbol
  _atom_site_label
  _atom_site_symmetry_multiplicity
  _atom_site_fract_x
  _atom_site_fract_y
  _atom_site_fract_z
  _atom_site_occupancy
  Na  Na1       1.0  0.25274669917298803  0.6489551048733515  0.5466609644974482  1.0000
  Na  Na2       1.0  0.7472682660156948  0.3510511739653878  0.04665278514439561  1.0000
  B   B1        1.0  0.7866628421260344  0.7039206384875526  0.7059872760091608  1.0000
  B   B2        1.0  0.21334987108471637  0.29607979349459856  0.20599754525122901  1.0000
  H   H1        1.0  0.516984633202682  0.9748954251393791  0.3171815165936778  1.0000
  H   H2        1.0  0.4830195315993606  0.02511290511124999  0.8171650135307331  1.0000
  H   H3        1.0  0.1241676670006413  0.9528411003100101  0.4499932955901471  1.0000
  H   H4        1.0  0.8758259676132665  0.04714023665265188  0.9499875264185319  1.0000
  H   H5        1.0  0.046313337676288285  0.10048378253107158  0.5117957286331034  1.0000
  H   H6        1.0  0.9536795632279718  0.8994830838991416  0.0118098590188183  1.0000
  H   H7        1.0  0.19908257011137928  0.9717513824230579  0.6573313139229597  1.0000
  H   H8        1.0  0.8009089008868171  0.028263822201381596  0.1573250516371303  1.0000
  H   H9        1.0  0.3771528396146593  0.44446937214370047  0.7838037928483034  1.0000
  H   H10       1.0  0.622835648939592  0.5555301575011525  0.28379890281023984  1.0000
  H   H11       1.0  0.5432505519517932  0.24646109048656226  0.7043930452080501  1.0000
  H   H12       1.0  0.4567409960023169  0.7535434807763718  0.2043891538140841  1.0000
  H   H13       1.0  0.3340129356084987  0.31145704408307034  0.6096475527172203  1.0000
  H   H14       1.0  0.6659898888651838  0.6885350637873555  0.109645870765064  1.0000
  H   H15       1.0  0.8213977040475696  0.31729864528941215  0.41074349013222644  1.0000
  H   H16       1.0  0.1785961143306664  0.6827073518950895  0.9107485772825966  1.0000
  C   C1        1.0  0.750437095854515  0.35834800953627155  0.5658503784327422  1.0000
  C   C2        1.0  0.24956983383872697  0.641647498882818  0.0658568143331593  1.0000
  C   C3        1.0  0.528609319735473  0.33668503804213396  0.6514770331188089  1.0000
  C   C4        1.0  0.4713856564114565  0.6633120112736249  0.151476662457867  1.0000
  C   C5        1.0  0.553036245896017  0.46510495359041215  0.7273398314697488  1.0000
  C   C6        1.0  0.4469457269805941  0.5348984868462093  0.22733873552703443  1.0000
  C   C7        1.0  0.800207299137426  0.4964890307911315  0.8021316289462561  1.0000
  C   C8        1.0  0.1997728354380754  0.503523918483566  0.3021440513425091  1.0000
  C   C9        1.0  0.709240577444589  0.9439712626237831  0.4542521567717088  1.0000
  C   C10       1.0  0.2907625998759968  0.0560186854101588  0.9542532181121928  1.0000
  C   C11       1.0  0.9819182302203655  0.9848966910450937  0.5069281344463477  1.0000
  C   C12       1.0  0.0180773448330882  0.0150836616762433  0.0069276229293749  1.0000
  C   C13       1.0  0.0014539718718964902  0.9208243773915542  0.6226046430113854  1.0000
  C   C14       1.0  0.9985474294441872  0.07917460256383178  0.1226012916041128  1.0000
  C   C15       1.0  0.7953322607509462  0.9407391464314113  0.7088719345933682  1.0000
  C   C16       1.0  0.2046735937654702  0.059263512962026275  0.2088640868059102  1.0000
  O   O1        1.0  0.5135277375321009  0.8663369631218172  0.5001161824793527  1.0000
  O   O2        1.0  0.4864995840896  0.13366101445608075  0.00010772673718409998  1.0000
  O   O3        1.0  0.702565886841562  0.0013187286192178  0.3530197365775578  1.0000
  O   O4        1.0  0.29745137121180676  0.9986848135546393  0.8530165246463213  1.0000
  O   O5        1.0  0.9687753826188158  0.7722609208239247  0.618571888072573  1.0000
  O   O6        1.0  0.031245000063968586  0.22773683930909522  0.11858101429793781  1.0000
  O   O7        1.0  0.687866640190009  0.820512066189991  0.7598234470307688  1.0000
  O   O8        1.0  0.3121198722135503  0.17948854717619867  0.25982187910747  1.0000
  O   O9        1.0  0.7370213209062157  0.05294990290911979  0.7320207905058922  1.0000
  O   O10       1.0  0.26300157518465983  0.9470632281940892  0.2320104479372489  1.0000
  O   O11       1.0  0.671548927169539  0.29841240084587634  0.4661527522382514  1.0000
  O   O12       1.0  0.3284282435555923  0.7015854206029387  0.9661416009096513  1.0000
  O   O13       1.0  0.9808902395390858  0.42365864241311607  0.5866469713768936  1.0000
  O   O14       1.0  0.01910964012325416  0.5763409107292928  0.0866486820150172  1.0000
  O   O15       1.0  0.5704268902263935  0.590730735612496  0.6643034502590268  1.0000
  O   O16       1.0  0.4295570321714735  0.40927739077914527  0.1642940404992927  1.0000
  O   O17       1.0  0.8739323492914435  0.4125530419141227  0.8634925395874831  1.0000
  O   O18       1.0  0.12607003467970654  0.5874530496217146  0.3634993506717095  1.0000
  O   O19       1.0  0.9234519029905215  0.633243006623118  0.7950832780579377  1.0000
  O   O20       1.0  0.0765434412911148  0.366764379555498  0.2950941032199168  1.0000
