data_image0
_chemical_formula_structural       Zn4H19C34N2O13F
_chemical_formula_sum              "Zn4 H19 C34 N2 O13 F1"
_cell_length_a       15.980237081660034
_cell_length_b       16.067310058859753
_cell_length_c       19.603759307026944
_cell_angle_alpha    84.51510660081729
_cell_angle_beta     89.15224974571107
_cell_angle_gamma    83.58980856374909

_space_group_name_H-M_alt    "P 1"
_space_group_IT_number       1

loop_
  _space_group_symop_operation_xyz
  'x, y, z'

loop_
  _atom_site_type_symbol
  _atom_site_label
  _atom_site_symmetry_multiplicity
  _atom_site_fract_x
  _atom_site_fract_y
  _atom_site_fract_z
  _atom_site_occupancy
  Zn  Zn1       1.0  0.4250947423678043  0.5720150545217494  0.5614999761573571  1.0000
  Zn  Zn2       1.0  0.5550551437682217  0.5846343998979154  0.43655374248303497  1.0000
  Zn  Zn3       1.0  0.4457564725923647  0.4358296950912077  0.4477435940484114  1.0000
  Zn  Zn4       1.0  0.5856037266761265  0.43386093534944353  0.5619223333537207  1.0000
  H   H1        1.0  0.44284599378013223  0.6144753577787159  0.7701502858325496  1.0000
  H   H2        1.0  0.5805025338489075  0.43176003596048684  0.0041497609653333946  1.0000
  H   H3        1.0  0.45335310567967474  0.6079943616885969  0.8966331944530168  1.0000
  H   H4        1.0  0.5453640002243317  0.3599275395276323  0.295658854064385  1.0000
  H   H5        1.0  0.6049464494326885  0.23801991445107973  0.2514555356420161  1.0000
  H   H6        1.0  0.6355385485726118  0.29748213742264806  0.1758740522736417  1.0000
  H   H7        1.0  0.5316443000516317  0.2665765248370704  0.1832370023540975  1.0000
  H   H8        1.0  0.6343331871668028  0.3070506641177035  0.8766489367888324  1.0000
  H   H9        1.0  0.49964273183945107  0.2619451491455109  0.921213382336056  1.0000
  H   H10       1.0  0.5097509968924925  0.32661000736320034  0.9887648710262907  1.0000
  H   H11       1.0  0.5852862412119537  0.23822210114960285  0.9804083071522598  1.0000
  H   H12       1.0  0.4462533009635124  0.6536913518786349  0.10673517388244849  1.0000
  H   H13       1.0  0.9986719413868174  0.5473709309125571  0.543817167397229  1.0000
  H   H14       1.0  0.004680503464683693  0.4616670816060379  0.40878643189215325  1.0000
  H   H15       1.0  0.42076352444431825  0.026293363666340507  0.4761441370020734  1.0000
  H   H16       1.0  0.4582248854546124  0.6431995051783023  0.23392042479165548  1.0000
  H   H17       1.0  0.4419254660335313  0.5812772870749828  0.0041084595180719795  1.0000
  H   H18       1.0  0.5438856979297029  0.3924048283881732  0.1096510683895175  1.0000
  H   H19       1.0  0.5864863836203756  0.37157368457126694  0.773341044753728  1.0000
  C   C1        1.0  0.7232350167360623  0.5033448413227292  0.47975788552226817  1.0000
  C   C2        1.0  0.5320894877468804  0.4801791944198401  0.982610610751486  1.0000
  C   C3        1.0  0.48837810749737565  0.5305896670676589  0.025319486553144095  1.0000
  C   C4        1.0  0.2818507446831688  0.5092526178639575  0.49490588185401657  1.0000
  C   C5        1.0  0.5038049341639596  0.5122173744097368  0.24432386675172776  1.0000
  C   C6        1.0  0.8129364711505576  0.49846138867838635  0.4686628887446673  1.0000
  C   C7        1.0  0.9769037155467263  0.48980071419228477  0.453680795663999  1.0000
  C   C8        1.0  0.0273673901533229  0.5189198846477298  0.499371386416712  1.0000
  C   C9        1.0  0.11515862006333324  0.5147482836872684  0.49332899920821655  1.0000
  C   C10       1.0  0.8891835711397464  0.4947546128075261  0.46127760849886096  1.0000
  C   C11       1.0  0.19176604908298603  0.5124486858736577  0.4922512728001891  1.0000
  C   C12       1.0  0.5227564189891967  0.48426090816865064  0.9086064117010082  1.0000
  C   C13       1.0  0.47433486088475274  0.8228556615104099  0.5022166742383972  1.0000
  C   C14       1.0  0.4726868907836774  0.9860436551551502  0.5018777286017054  1.0000
  C   C15       1.0  0.5325654991446099  0.024971307943410206  0.530949777838515  1.0000
  C   C16       1.0  0.4788712344343509  0.7329396745015659  0.5003952398133293  1.0000
  C   C17       1.0  0.5326354710295365  0.11225855631035131  0.5297744910348356  1.0000
  C   C18       1.0  0.4739000445101099  0.8987603302901451  0.5028738425243446  1.0000
  C   C19       1.0  0.5310794199395021  0.18858224354834627  0.5270894938244409  1.0000
  C   C20       1.0  0.5257908181451897  0.279076754768802  0.5200518228413882  1.0000
  C   C21       1.0  0.5030418271769792  0.5109891307970857  0.31924122764093  1.0000
  C   C22       1.0  0.5120697266087504  0.49780670356310014  0.6881897217804819  1.0000
  C   C23       1.0  0.5594067329101265  0.4158527350797031  0.872874568615984  1.0000
  C   C24       1.0  0.5157835585993739  0.4939251997420373  0.7641586831390156  1.0000
  C   C25       1.0  0.47584052644998565  0.5597531307992156  0.7992099089690683  1.0000
  C   C26       1.0  0.4808253803915648  0.554843661570182  0.870037052617306  1.0000
  C   C27       1.0  0.5829780126845564  0.28818035628753347  0.21183897744912633  1.0000
  C   C28       1.0  0.5453704676989163  0.2894610259279205  0.9517098994449426  1.0000
  C   C29       1.0  0.557322349346329  0.42295621249964915  0.801239028610439  1.0000
  C   C30       1.0  0.5262894149800418  0.44759311373209004  0.13702915955060743  1.0000
  C   C31       1.0  0.5289931053463095  0.438942677161407  0.20927999846249176  1.0000
  C   C32       1.0  0.4765821951885628  0.5886158539882232  0.2058811702164363  1.0000
  C   C33       1.0  0.4703932049984304  0.5945063485106491  0.13525229020068955  1.0000
  C   C34       1.0  0.49644684290130686  0.5235371226714919  0.09970110553182819  1.0000
  N   N1        1.0  0.556447398719854  0.36369168722482215  0.24431205626397912  1.0000
  N   N2        1.0  0.5990715425256283  0.3423902304028276  0.9093026687176432  1.0000
  O   O1        1.0  0.5035318778852869  0.5066201858258099  0.503842745554813  1.0000
  O   O2        1.0  0.5060058930044775  0.5805694584661937  0.3458765895116827  1.0000
  O   O3        1.0  0.5646465543024419  0.4463464901411741  0.6588373980073925  1.0000
  O   O4        1.0  0.49846175758725064  0.4398786772905582  0.3558336161591881  1.0000
  O   O5        1.0  0.4563738255093669  0.5518111666192739  0.6580873104973932  1.0000
  O   O6        1.0  0.42729452698522863  0.6948054473774765  0.5385171427414477  1.0000
  O   O7        1.0  0.5807683176447682  0.31265817854382766  0.5512988960166821  1.0000
  O   O8        1.0  0.6778290231016159  0.5514849017101259  0.43604721057514684  1.0000
  O   O9        1.0  0.32387246879920883  0.469333822709956  0.4497861831272941  1.0000
  O   O10       1.0  0.6994448408661358  0.4590144948581312  0.5324601531882037  1.0000
  O   O11       1.0  0.31055529967358814  0.54650644302005  0.5428227812438066  1.0000
  O   O12       1.0  0.534883870203828  0.7013370442975104  0.46039278768342473  1.0000
  O   O13       1.0  0.4655630036564349  0.3158359848306702  0.48237780928321433  1.0000
  F   F1        1.0  0.5985232295689686  0.9777129355132889  0.5642054481994662  1.0000
