data_image0
_chemical_formula_structural       Zn2H12C10N16
_chemical_formula_sum              "Zn2 H12 C10 N16"
_cell_length_a       6.028602559125581
_cell_length_b       6.863705533292818
_cell_length_c       10.936838092114545
_cell_angle_alpha    91.55909749882764
_cell_angle_beta     87.91612917219618
_cell_angle_gamma    68.85296656026348

_space_group_name_H-M_alt    "P 1"
_space_group_IT_number       1

loop_
  _space_group_symop_operation_xyz
  'x, y, z'

loop_
  _atom_site_type_symbol
  _atom_site_label
  _atom_site_symmetry_multiplicity
  _atom_site_fract_x
  _atom_site_fract_y
  _atom_site_fract_z
  _atom_site_occupancy
  Zn  Zn1       1.0  0.27788209824305454  0.9407985514511807  0.4472602500093927  1.0000
  Zn  Zn2       1.0  0.722118095851421  0.059203261643546105  0.5527382139852719  1.0000
  H   H1        1.0  0.7631917764866073  0.7988270883139919  0.32547454404378573  1.0000
  H   H2        1.0  0.23680446750198306  0.20118405208009452  0.6745222379055349  1.0000
  H   H3        1.0  0.2928108119311972  0.7445232499318877  0.9842419905812038  1.0000
  H   H4        1.0  0.7071986127134052  0.2554645678430987  0.015757998263609397  1.0000
  H   H5        1.0  0.11295860517613217  0.8201383460608866  0.19905610985824043  1.0000
  H   H6        1.0  0.8870438737993069  0.17985407599422124  0.8009422489933514  1.0000
  H   H7        1.0  0.6307984956094472  0.738299726743385  0.8445940129730616  1.0000
  H   H8        1.0  0.36920170850845574  0.26170213909183815  0.1554062800594807  1.0000
  H   H9        1.0  0.8681462112937837  0.5302620748138979  0.9033913943046769  1.0000
  H   H10       1.0  0.13185528613809788  0.4697365588603831  0.09660519165459651  1.0000
  H   H11       1.0  0.8814165886755417  0.7814116290479446  0.9087785553525835  1.0000
  H   H12       1.0  0.11858361544236118  0.21859023678727854  0.0912217376799589  1.0000
  C   C1        1.0  0.657363986192898  0.7913594410721319  0.247886872546573  1.0000
  C   C2        1.0  0.3426348895290444  0.2086454723323001  0.7521107259266627  1.0000
  C   C3        1.0  0.6358177688765139  0.7389759635516313  0.04110358771784921  1.0000
  C   C4        1.0  0.36418243524138194  0.2610259022835848  0.9588967053146931  1.0000
  C   C5        1.0  0.39775257504633277  0.7581981002313186  0.0607549880413458  1.0000
  C   C6        1.0  0.602248925454866  0.24179285296502684  0.9392470462367086  1.0000
  C   C7        1.0  0.2981882519736772  0.8013288013804709  0.1791742101761642  1.0000
  C   C8        1.0  0.7018126088246389  0.19867150111477372  0.8208260583576248  1.0000
  C   C9        1.0  0.7580310152627517  0.6975652625575961  0.9172771354671951  1.0000
  C   C10       1.0  0.24196984553555717  0.30243503993764875  0.0827231330665938  1.0000
  N   N1        1.0  0.08255709684902256  0.9126057069046568  0.6021696553246869  1.0000
  N   N2        1.0  0.9174427604164848  0.08739299488060229  0.39782971604086736  1.0000
  N   N3        1.0  0.16806007811747747  0.8052646296789803  0.6867966970858035  1.0000
  N   N4        1.0  0.8319407876925453  0.19473569918650915  0.3132044859669207  1.0000
  N   N5        1.0  0.25194146537816664  0.7042219647400713  0.7684740483770298  1.0000
  N   N6        1.0  0.7480597422725379  0.2957815018051377  0.23152714182374723  1.0000
  N   N7        1.0  0.38710769282589297  0.19672848466074558  0.4626803450592902  1.0000
  N   N8        1.0  0.6128832537409322  0.8032795377948005  0.5373183843282447  1.0000
  N   N9        1.0  0.2855757136720598  0.37456398464588847  0.4333383255177665  1.0000
  N   N10       1.0  0.7144238067644793  0.6254316058298882  0.5666619532186772  1.0000
  N   N11       1.0  0.18926350748363055  0.5453280335869124  0.4049808286765924  1.0000
  N   N12       1.0  0.8107277809238764  0.45468312654835324  0.5950179078589954  1.0000
  N   N13       1.0  0.4269174191343409  0.8213798890244347  0.27369711219994747  1.0000
  N   N14       1.0  0.5730840933326746  0.17861882376058702  0.7263022173161461  1.0000
  N   N15       1.0  0.7649186762287382  0.7545388240391164  0.1369278340507449  1.0000
  N   N16       1.0  0.23508382974765135  0.24546143671540932  0.8630705635957057  1.0000
