data_image0
_chemical_formula_structural       Zn8H32C56O42
_chemical_formula_sum              "Zn8 H32 C56 O42"
_cell_length_a       18.67712439999691
_cell_length_b       18.47299037362009
_cell_length_c       18.494338920861303
_cell_angle_alpha    60.0791416274022
_cell_angle_beta     59.8479301997178
_cell_angle_gamma    59.744233849390454

_space_group_name_H-M_alt    "P 1"
_space_group_IT_number       1

loop_
  _space_group_symop_operation_xyz
  'x, y, z'

loop_
  _atom_site_type_symbol
  _atom_site_label
  _atom_site_symmetry_multiplicity
  _atom_site_fract_x
  _atom_site_fract_y
  _atom_site_fract_z
  _atom_site_occupancy
  Zn  Zn1       1.0  0.13709599831216224  0.9506526525524209  0.45388879088989836  1.0000
  Zn  Zn2       1.0  0.9649008110211739  0.12150685121694238  0.4575092815777991  1.0000
  Zn  Zn3       1.0  0.9622568572810265  0.9452937574672264  0.6284716129526157  1.0000
  Zn  Zn4       1.0  0.9572439015896564  0.9542981332752873  0.45657204780503935  1.0000
  Zn  Zn5       1.0  0.3690714242881157  0.540970764066053  0.04774823059816664  1.0000
  Zn  Zn6       1.0  0.543881337645452  0.5333202341512049  0.8812166603703913  1.0000
  Zn  Zn7       1.0  0.5445644976424121  0.3691043041072319  0.06509865748783733  1.0000
  Zn  Zn8       1.0  0.5392358002454359  0.550454485313722  0.04637703524294062  1.0000
  H   H1        1.0  0.3683239519393951  0.7843973142630888  0.1463296821071437  1.0000
  H   H2        1.0  0.032629290318858854  0.8714038530504381  0.25826753345442904  1.0000
  H   H3        1.0  0.4637053664176635  0.6644004034241959  0.21605287220079106  1.0000
  H   H4        1.0  0.21719797196722376  0.9866442668400452  0.19743385629165305  1.0000
  H   H5        1.0  0.19348971939053433  0.7108912234310338  0.898082711706948  1.0000
  H   H6        1.0  0.2796118829481673  0.6258977584294526  0.7255197256374543  1.0000
  H   H7        1.0  0.6872299408198971  0.7246720000302176  0.7325533451689377  1.0000
  H   H8        1.0  0.07323230174920782  0.7146939067088169  0.4592873763714491  1.0000
  H   H9        1.0  0.7601094532054803  0.4616612921887082  0.07526581486133925  1.0000
  H   H10       1.0  0.8431951549173039  0.3097542371365948  0.266689365640083  1.0000
  H   H11       1.0  0.7998305230751086  0.16098493314982684  0.28110805555898816  1.0000
  H   H12       1.0  0.3586980643203289  0.6909996669864003  0.7328020492630426  1.0000
  H   H13       1.0  0.6081100484156535  0.18483952495257236  0.8516449607678993  1.0000
  H   H14       1.0  0.8548325707241134  0.11405381668039641  0.8529501413803969  1.0000
  H   H15       1.0  0.7072881458530277  0.24043871386904672  0.5964164076592906  1.0000
  H   H16       1.0  0.4574955708438041  0.10562616029086061  0.27474831693472596  1.0000
  H   H17       1.0  0.1311829496823904  0.6006288280236802  0.30400669876339487  1.0000
  H   H18       1.0  0.248799908756702  0.32810204013906497  0.19276431989871404  1.0000
  H   H19       1.0  0.31589076361892415  0.09055463231339901  0.3229101374782175  1.0000
  H   H20       1.0  0.15415012875930506  0.2613200396982194  0.3311154762590148  1.0000
  H   H21       1.0  0.20801370949062908  0.7631978946752299  0.09792960235685651  1.0000
  H   H22       1.0  0.1443884216023221  0.8919333535433367  0.12522789149526403  1.0000
  H   H23       1.0  0.12154441832773706  0.8299460554954835  0.7863044516944979  1.0000
  H   H24       1.0  0.36778053224129786  0.779100066079316  0.014165911820533996  1.0000
  H   H25       1.0  0.38134876300838283  0.8004533688619447  0.24318026035383158  1.0000
  H   H26       1.0  0.30155637179773015  0.625968985894026  0.4579806201870864  1.0000
  H   H27       1.0  0.6874121339321492  0.7194867656916629  0.9017132314533853  1.0000
  H   H28       1.0  0.7760718575619024  0.8179906150832185  0.802848181088059  1.0000
  H   H29       1.0  0.8086288253669168  0.7661460811737298  0.6513759575334886  1.0000
  H   H30       1.0  0.6768762032700979  0.26807680802794914  0.25501633760698167  1.0000
  H   H31       1.0  0.7922880779219029  0.28915654186396006  0.8110799668873837  1.0000
  H   H32       1.0  0.30297876229769855  0.6008206015613596  0.33495204431731185  1.0000
  C   C1        1.0  0.8776450915713457  0.13548736290218946  0.35341496298400404  1.0000
  C   C2        1.0  0.19643963834823105  0.7649534741655941  0.6918081975676813  1.0000
  C   C3        1.0  0.7067553938748147  0.736428185831379  0.8303140669924641  1.0000
  C   C4        1.0  0.14165986472410452  0.8371886882311516  0.6344025663805865  1.0000
  C   C5        1.0  0.6730480316278505  0.7090107352426146  0.8025521427551677  1.0000
  C   C6        1.0  0.7664002842199126  0.7865937448211042  0.77314936720132  1.0000
  C   C7        1.0  0.8124221705790686  0.7964621670839948  0.686474551419657  1.0000
  C   C8        1.0  0.7594057598571099  0.34330103470204426  0.19734639722807384  1.0000
  C   C9        1.0  0.6922002126164131  0.3276209554811444  0.20408695066625882  1.0000
  C   C10       1.0  0.8113816071379036  0.28166876143379227  0.255966672723943  1.0000
  C   C11       1.0  0.8254068091234786  0.1938562882410366  0.2934576450576501  1.0000
  C   C12       1.0  0.2782058308506877  0.7315652709762405  0.33154030566178244  1.0000
  C   C13       1.0  0.7071945068944602  0.23904795899638034  0.8184774093748074  1.0000
  C   C14       1.0  0.7256031550897435  0.2876664780290241  0.8384542507583885  1.0000
  C   C15       1.0  0.7781664934545419  0.1849156544000792  0.762569413332386  1.0000
  C   C16       1.0  0.14138896774160511  0.1315021966724643  0.38441900251039823  1.0000
  C   C17       1.0  0.7720450298791094  0.180828441110954  0.6942340624399319  1.0000
  C   C18       1.0  0.33558916428062  0.21848261049124318  0.2598549401152326  1.0000
  C   C19       1.0  0.31180372071303003  0.30115068721057275  0.20221677920872586  1.0000
  C   C20       1.0  0.2814494934238  0.1622609446786996  0.308238050533454  1.0000
  C   C21       1.0  0.19279563655837964  0.19144964437406736  0.33858210550191353  1.0000
  C   C22       1.0  0.6182257873386732  0.6521610605705064  0.8644584733039266  1.0000
  C   C23       1.0  0.19699430945671292  0.802008302760477  0.2993684435462638  1.0000
  C   C24       1.0  0.36614009486837773  0.35964896115683603  0.14584486322417686  1.0000
  C   C25       1.0  0.36700404513973  0.6243982057122537  0.8657077828414044  1.0000
  C   C26       1.0  0.6354436285647936  0.38077036251125673  0.14841464338415733  1.0000
  C   C27       1.0  0.6583726856567014  0.34835518312204533  0.8913475611028543  1.0000
  C   C28       1.0  0.8694426936164422  0.8515503881958821  0.6326291780004494  1.0000
  C   C29       1.0  0.35824601440913284  0.6370522481031246  0.14498684007587298  1.0000
  C   C30       1.0  0.8464619782802816  0.12314372816897648  0.6399551452398807  1.0000
  C   C31       1.0  0.13908430803806487  0.8660456931029826  0.35314910699171526  1.0000
  C   C32       1.0  0.14281733126635748  0.7501037529616426  0.31122237035039274  1.0000
  C   C33       1.0  0.20062522100644029  0.6993781194629137  0.24133077988882687  1.0000
  C   C34       1.0  0.2971847822961777  0.6948582018479217  0.2054969313149824  1.0000
  C   C35       1.0  0.2322375428443665  0.8572053543247125  0.19774398976155536  1.0000
  C   C36       1.0  0.047243008616632734  0.805479842485731  0.30889363319761276  1.0000
  C   C37       1.0  0.4246169552734784  0.6204924247868462  0.2696504357011661  1.0000
  C   C38       1.0  0.2681659835889507  0.9279021644650954  0.17779220032589627  1.0000
  C   C39       1.0  0.25995566569920214  0.6830288852329858  0.6687426116472607  1.0000
  C   C40       1.0  0.11888697066304842  0.6840711234594606  0.40707915410887086  1.0000
  C   C41       1.0  0.7844861002713659  0.42422563122160273  0.132016070952332  1.0000
  C   C42       1.0  0.6153441834942726  0.23791211366983586  0.8570219659971411  1.0000
  C   C43       1.0  0.863188812179658  0.1366651211445742  0.7817469118167252  1.0000
  C   C44       1.0  0.696994220552  0.24151487323625537  0.660524220500342  1.0000
  C   C45       1.0  0.3046706964704243  0.7894982519483378  0.15029270226616367  1.0000
  C   C46       1.0  0.42083082229248703  0.174766028705136  0.27773870307535714  1.0000
  C   C47       1.0  0.19754344242017646  0.6023282033090852  0.28244417009218376  1.0000
  C   C48       1.0  0.16275234430832344  0.7424799872247334  0.16637389063954086  1.0000
  C   C49       1.0  0.1542402148232185  0.916864698311457  0.1619517393406013  1.0000
  C   C50       1.0  0.3182000235683661  0.825673440860875  0.05220389133063458  1.0000
  C   C51       1.0  0.34540972252300867  0.7695030182276527  0.3130161488304353  1.0000
  C   C52       1.0  0.25118258807393806  0.6883155386319331  0.4334816627218243  1.0000
  C   C53       1.0  0.3255201700413083  0.6576301955903361  0.28691627209066434  1.0000
  C   C54       1.0  0.2296249215511566  0.7185844029828632  0.8277556675136848  1.0000
  C   C55       1.0  0.31804814867089715  0.6801865355122844  0.8024345259853616  1.0000
  C   C56       1.0  0.17938939387146038  0.7742722483966987  0.7681218749752785  1.0000
  O   O1        1.0  0.00766000827037058  0.9909751798755623  0.49862923786274366  1.0000
  O   O2        1.0  0.5992808435437385  0.3374001339836071  0.14885976534323217  1.0000
  O   O3        1.0  0.6311124511726408  0.429024619093795  0.8450865529161786  1.0000
  O   O4        1.0  0.8838462786067185  0.0536477843531955  0.3865880989771711  1.0000
  O   O5        1.0  0.4391592251303039  0.6052823307916808  0.13688862365808777  1.0000
  O   O6        1.0  0.6419215253114744  0.3150147646235624  0.9745676138846233  1.0000
  O   O7        1.0  0.3261231628751988  0.6335088635717411  0.10081737461857897  1.0000
  O   O8        1.0  0.32359303311002935  0.6119299315015283  0.9483057424637589  1.0000
  O   O9        1.0  0.6264530986668078  0.4629406395297195  0.105608804746609  1.0000
  O   O10       1.0  0.6044942903180086  0.6182303551185484  0.8289191777252326  1.0000
  O   O11       1.0  0.44929765561207097  0.3226751294075783  0.12017054715094835  1.0000
  O   O12       1.0  0.1828001644833321  0.0485705766451687  0.3956341030189633  1.0000
  O   O13       1.0  0.18222278928956104  0.8612559651229647  0.5516109626274072  1.0000
  O   O14       1.0  0.057787989864436916  0.16968565340430794  0.40857565465934437  1.0000
  O   O15       1.0  0.8874610998702156  0.8763316013930268  0.6729943807683294  1.0000
  O   O16       1.0  0.8688895656433787  0.16415590291359897  0.5568474448874241  1.0000
  O   O17       1.0  0.05696806589256203  0.8825251764372413  0.38054925994945404  1.0000
  O   O18       1.0  0.8761032603359667  0.0407766874689557  0.680149559023846  1.0000
  O   O19       1.0  0.17886935602047774  0.9000374832961101  0.36025540202567174  1.0000
  O   O20       1.0  0.989779501671592  0.7727170438725964  0.3630433281364703  1.0000
  O   O21       1.0  0.4588692379606699  0.5486294250630196  0.3168584368112447  1.0000
  O   O22       1.0  0.34497722539869363  0.9223183057834988  0.13744685740068976  1.0000
  O   O23       1.0  0.895448432762123  0.8705387677130219  0.5486275691565227  1.0000
  O   O24       1.0  0.2855675933658334  0.6739266615656092  0.5976447042616613  1.0000
  O   O25       1.0  0.1479090526166402  0.6039503462159603  0.42314375374945695  1.0000
  O   O26       1.0  0.8299383276077139  0.44754611354906604  0.14044825540005965  1.0000
  O   O27       1.0  0.5530203204311663  0.287652308871614  0.8975474689583861  1.0000
  O   O28       1.0  0.9358884600004772  0.1261058672711783  0.7251061957904809  1.0000
  O   O29       1.0  0.6288140740011767  0.29139452893974044  0.6973112033220801  1.0000
  O   O30       1.0  0.44699431063334333  0.20736951349994104  0.29890357963120806  1.0000
  O   O31       1.0  0.26426396538686703  0.5379310720297427  0.275643775963374  1.0000
  O   O32       1.0  0.0885276208967554  0.7504782112654882  0.17987982484895323  1.0000
  O   O33       1.0  0.10346091955425152  0.9864678567619337  0.17657230406428653  1.0000
  O   O34       1.0  0.9115318272280677  0.1701017906413966  0.36791069196295456  1.0000
  O   O35       1.0  0.2826510948492357  0.9033131012409257  0.014491592079927791  1.0000
  O   O36       1.0  0.36209536686533994  0.7608669178659896  0.3732292117637852  1.0000
  O   O37       1.0  0.180477525966083  0.7200429592828216  0.48369588747637204  1.0000
  O   O38       1.0  0.05955638770638671  0.8683549873005064  0.6751035541921481  1.0000
  O   O39       1.0  0.49767829052689905  0.49883168252495125  0.011184767160173774  1.0000
  O   O40       1.0  0.5898545432220248  0.6403247130644799  0.9474268457692575  1.0000
  O   O41       1.0  0.32267776912077306  0.4429658745438516  0.12580910986316235  1.0000
  O   O42       1.0  0.45041499488176134  0.5933990522023009  0.8303734079726366  1.0000
