data_image0
_chemical_formula_structural       Cu3H14C24N4Cl2O2
_chemical_formula_sum              "Cu3 H14 C24 N4 Cl2 O2"
_cell_length_a       7.1201825353792
_cell_length_b       8.359013465101139
_cell_length_c       10.271527388688934
_cell_angle_alpha    111.54271573805698
_cell_angle_beta     98.04573070807146
_cell_angle_gamma    106.31338724477236

_space_group_name_H-M_alt    "P 1"
_space_group_IT_number       1

loop_
  _space_group_symop_operation_xyz
  'x, y, z'

loop_
  _atom_site_type_symbol
  _atom_site_label
  _atom_site_symmetry_multiplicity
  _atom_site_fract_x
  _atom_site_fract_y
  _atom_site_fract_z
  _atom_site_occupancy
  Cu  Cu1       1.0  0.9684609801621278  0.5585429105630625  0.6183113574992235  1.0000
  Cu  Cu2       1.0  0.0315277746810594  0.4414508329495774  0.3816813871982704  1.0000
  Cu  Cu3       1.0  0.49999928664629323  0.5000004317194141  0.4999987681442947  1.0000
  H   H1        1.0  0.2258188153573073  0.1390948218441039  0.6504576913500558  1.0000
  H   H2        1.0  0.7741709986064932  0.8608963924682345  0.3495450880889096  1.0000
  H   H3        1.0  0.353751527575632  0.1957677979375205  0.4535082101951319  1.0000
  H   H4        1.0  0.6462481048375749  0.8042305363010062  0.546499360834929  1.0000
  H   H5        1.0  0.4295146775169909  0.06170072990043  0.20685755861573804  1.0000
  H   H6        1.0  0.5705014017258562  0.9383076016135447  0.7931541960118835  1.0000
  H   H7        1.0  0.41061440749208344  0.7855928062359255  0.991921933544106  1.0000
  H   H8        1.0  0.5894049859408881  0.2144169639526865  0.00808951708675212  1.0000
  H   H9        1.0  0.3049772206333402  0.43384260872328906  0.8639306995929348  1.0000
  H   H10       1.0  0.695030188360647  0.5661666971388969  0.13607097992518646  1.0000
  H   H11       1.0  0.15754424259595373  0.12913511616061163  0.8734617317247455  1.0000
  H   H12       1.0  0.8424620335187143  0.8708713985800929  0.12653708035925607  1.0000
  H   H13       1.0  0.041339455124237603  0.12478127569922043  0.0941239912263967  1.0000
  H   H14       1.0  0.9586555117908444  0.8752180632206077  0.9058689308330586  1.0000
  C   C1        1.0  0.14149475969949069  0.8413342856723675  0.5428917175200283  1.0000
  C   C2        1.0  0.8584954526375269  0.15865543445405453  0.45710187382871237  1.0000
  C   C3        1.0  0.2225549322375286  0.024918593576210003  0.5536302631691542  1.0000
  C   C4        1.0  0.7774384701686543  0.975075369127133  0.4463687277642166  1.0000
  C   C5        1.0  0.29335874976476356  0.05520571915359082  0.44424410062021746  1.0000
  C   C6        1.0  0.7066357270832666  0.9447910175023608  0.5557567741020862  1.0000
  C   C7        1.0  0.28922449275066947  0.9055228063381693  0.3183257239880818  1.0000
  C   C8        1.0  0.7107747306001783  0.09447540771823532  0.6816749615257295  1.0000
  C   C9        1.0  0.36319334289932215  0.9231708221286897  0.1999640004451778  1.0000
  C   C10       1.0  0.6368138754610015  0.07683312907396099  0.8000428790899293  1.0000
  C   C11       1.0  0.3543057727766126  0.7713744004768017  0.08197153611308042  1.0000
  C   C12       1.0  0.6457080739639591  0.228632428075116  0.9180347354285063  1.0000
  C   C13       1.0  0.2705702919559058  0.5902207878036307  0.07442460144069679  1.0000
  C   C14       1.0  0.729435651469025  0.4097844000518265  0.9255767115069561  1.0000
  C   C15       1.0  0.25337933477535307  0.42563855861994443  0.9572412432668785  1.0000
  C   C16       1.0  0.746628607401945  0.5743680635220797  0.042761618186105486  1.0000
  C   C17       1.0  0.17189088988229173  0.25767330009414025  0.9624016125590844  1.0000
  C   C18       1.0  0.8281106397295446  0.7423317372461115  0.03759738873340979  1.0000
  C   C19       1.0  0.1052102934696038  0.25298045314919904  0.08404437188114143  1.0000
  C   C20       1.0  0.8947891456960376  0.7470190534547072  0.9159518454786594  1.0000
  C   C21       1.0  0.19829438993797768  0.5708554682390313  0.19162928655514833  1.0000
  C   C22       1.0  0.8017081808593504  0.4291482637729232  0.8083713467440888  1.0000
  C   C23       1.0  0.20823986005218134  0.7289403347362936  0.3140677680068721  1.0000
  C   C24       1.0  0.7917553990502882  0.27105909002789735  0.6859300722784809  1.0000
  N   N1        1.0  0.13741353289921682  0.6988355703160566  0.4229165953937867  1.0000
  N   N2        1.0  0.8625776370046835  0.3011568894252292  0.5770769124535349  1.0000
  N   N3        1.0  0.11640232489935441  0.40461907720865053  0.1942842412190872  1.0000
  N   N4        1.0  0.8835961899557603  0.5953817690613051  0.8057123114243226  1.0000
  Cl  Cl1       1.0  0.3888044135526131  0.5654678885063478  0.6853291707402109  1.0000
  Cl  Cl2       1.0  0.6111941929963294  0.43453705421339367  0.3146686173305825  1.0000
  O   O1        1.0  0.07101746340791953  0.8093611651572843  0.6440393595877794  1.0000
  O   O2        1.0  0.9289697341723695  0.19062436389884144  0.35595178311186976  1.0000
