data_image0
_chemical_formula_structural       Al4H28C34O22
_chemical_formula_sum              "Al4 H28 C34 O22"
_cell_length_a       6.657054117717507
_cell_length_b       14.042937043546699
_cell_length_c       16.08382877941581
_cell_angle_alpha    90.34008805776192
_cell_angle_beta     89.32926966495262
_cell_angle_gamma    89.12244748525208

_space_group_name_H-M_alt    "P 1"
_space_group_IT_number       1

loop_
  _space_group_symop_operation_xyz
  'x, y, z'

loop_
  _atom_site_type_symbol
  _atom_site_label
  _atom_site_symmetry_multiplicity
  _atom_site_fract_x
  _atom_site_fract_y
  _atom_site_fract_z
  _atom_site_occupancy
  Al  Al1       1.0  0.11113586016794132  0.5014333904038963  0.5011841858026143  1.0000
  Al  Al2       1.0  0.6113190044931753  0.4973786602097121  0.4995026007851137  1.0000
  Al  Al3       1.0  0.6166077884780632  0.9952559955654436  0.0042566628448739  1.0000
  Al  Al4       1.0  0.11651221216721548  0.9959518680178049  0.0027540900787741  1.0000
  H   H1        1.0  0.5611340625576487  0.29837866843799793  0.6885925030486104  1.0000
  H   H2        1.0  0.018697832008235996  0.31246480888288636  0.7118940945836696  1.0000
  H   H3        1.0  0.16612856682938568  0.2128022940706202  0.16202000021593924  1.0000
  H   H4        1.0  0.563898392707358  0.27894593758065167  0.3379704733680169  1.0000
  H   H5        1.0  0.5488999060390399  0.15717117665143124  0.2249797783150952  1.0000
  H   H6        1.0  0.06819743328455272  0.8286142018566522  0.8023926016205036  1.0000
  H   H7        1.0  0.681520438410864  0.6544577298786579  0.7063099543654018  1.0000
  H   H8        1.0  0.0502117511420082  0.7309486081919372  0.3395081936960904  1.0000
  H   H9        1.0  0.04983466112118149  0.8462304839775782  0.22053033964723304  1.0000
  H   H10       1.0  0.670968565857244  0.7785314791988965  0.17025828517785863  1.0000
  H   H11       1.0  0.5631952620067651  0.2029740159038909  0.8184174155909287  1.0000
  H   H12       1.0  0.6602005387332214  0.7333470990027706  0.9516360789447087  1.0000
  H   H13       1.0  0.9218077858729429  0.7464894896749713  0.9292573432655329  1.0000
  H   H14       1.0  0.9296887950117919  0.5939067997880371  0.8490217466235346  1.0000
  H   H15       1.0  0.8435492433003657  0.5759600137130506  0.953154779799078  1.0000
  H   H16       1.0  0.6689244101901652  0.5773965141382932  0.8702718607438267  1.0000
  H   H17       1.0  0.6722771187025957  0.6639476253149681  0.2901174336410292  1.0000
  H   H18       1.0  0.0181056413753282  0.17878372269446882  0.7859024409866248  1.0000
  H   H19       1.0  0.14679492045362952  0.4868132532668171  0.27256319556326486  1.0000
  H   H20       1.0  0.1424238895931964  0.42920879358882763  0.17302967345900558  1.0000
  H   H21       1.0  0.44655585233261513  0.5311382829689038  0.1863790487549933  1.0000
  H   H22       1.0  0.5242299107366789  0.4648293110173256  0.2747877656237278  1.0000
  H   H23       1.0  0.5171224328467261  0.40844302101491786  0.17543815871994176  1.0000
  H   H24       1.0  0.048938659121702706  0.7152321907919442  0.6833711777694444  1.0000
  H   H25       1.0  0.3575421553785105  0.3876170030642002  0.4563250122644502  1.0000
  H   H26       1.0  0.8533113067090311  0.620512006110154  0.4751086868789684  1.0000
  H   H27       1.0  0.3668265145993459  0.11291273690210349  0.9693276110908537  1.0000
  H   H28       1.0  0.8703439279538897  0.8841084347362056  0.9598996044918733  1.0000
  C   C1        1.0  0.3594156361466645  0.6101840118758657  0.6154748326606947  1.0000
  C   C2        1.0  0.35995385949593833  0.6205567719533535  0.39084827498584906  1.0000
  C   C3        1.0  0.868785643583301  0.38464619112728116  0.38504757898399317  1.0000
  C   C4        1.0  0.864925661013771  0.3870055269270622  0.6127468979070796  1.0000
  C   C5        1.0  0.7067068270592358  0.21680095336330402  0.7873474138332808  1.0000
  C   C6        1.0  0.8717457616370367  0.17142370971678395  0.8162044360150698  1.0000
  C   C7        1.0  0.7055314385001593  0.2812775940135452  0.7171005747134128  1.0000
  C   C8        1.0  0.8702196494365351  0.3232628203660043  0.6852621762298694  1.0000
  C   C9        1.0  0.03405309171468929  0.22657888474197557  0.20119445118839951  1.0000
  C   C10       1.0  0.04349735732554189  0.2951600855566596  0.2640819570743459  1.0000
  C   C11       1.0  0.8727995293164879  0.3138777528203534  0.3152411564177625  1.0000
  C   C12       1.0  0.6964602124459063  0.26289057203971566  0.2998985431072397  1.0000
  C   C13       1.0  0.6869809958406066  0.19533793755439888  0.23672212420352412  1.0000
  C   C14       1.0  0.8573660518164486  0.17685027730591685  0.18691918882074524  1.0000
  C   C15       1.0  0.1906909366871901  0.7267097737103753  0.7147271857783364  1.0000
  C   C16       1.0  0.20215898479131764  0.7897458550424901  0.7813578456477114  1.0000
  C   C17       1.0  0.38376357244801074  0.805551534209208  0.8226512047813015  1.0000
  C   C18       1.0  0.558148992882586  0.7550094444161106  0.7949598827274538  1.0000
  C   C19       1.0  0.5464533557296534  0.6925655403993005  0.7274826674965165  1.0000
  C   C20       1.0  0.36438264601747516  0.6779986769880182  0.6872166791181085  1.0000
  C   C21       1.0  0.18534414279735503  0.7418838948523218  0.30209891052241017  1.0000
  C   C22       1.0  0.1847579224364324  0.8055634716458827  0.23620300275226205  1.0000
  C   C23       1.0  0.3600882107624201  0.8182468108639397  0.18859285367780385  1.0000
  C   C24       1.0  0.536521769320231  0.7677005358542957  0.20819010116960598  1.0000
  C   C25       1.0  0.5372509955990167  0.7046597822388919  0.2745895921007174  1.0000
  C   C26       1.0  0.3611991166995451  0.6908567723265123  0.32151440932055647  1.0000
  C   C27       1.0  0.35816644947495035  0.8849200142923623  0.11663641779884405  1.0000
  C   C28       1.0  0.3826224841752149  0.8771026208464575  0.8919069358802143  1.0000
  C   C29       1.0  0.8712386072106993  0.1086570013074777  0.8893559506982522  1.0000
  C   C30       1.0  0.8528074774009794  0.107157181851889  0.11660936220697238  1.0000
  C   C31       1.0  0.7812405682440086  0.7162367472730297  0.9063409757287741  1.0000
  C   C32       1.0  0.8069453386255174  0.6095069583182565  0.8935062627580874  1.0000
  C   C33       1.0  0.22513026857702553  0.4343751355468868  0.2319188194674239  1.0000
  C   C34       1.0  0.4414842854096648  0.46107511813872276  0.2162777317818011  1.0000
  O   O1        1.0  0.5299288364773744  0.5933283317738897  0.4184761695767562  1.0000
  O   O2        1.0  0.18901151647475695  0.5898807824132746  0.5856339518470433  1.0000
  O   O3        1.0  0.035212496909799995  0.41740527891182216  0.5882474186112743  1.0000
  O   O4        1.0  0.18843128286330565  0.5929790199817973  0.4165786049943845  1.0000
  O   O5        1.0  0.0346343909789795  0.41010465187716966  0.4161564247960923  1.0000
  O   O6        1.0  0.5281067722067404  0.578075464754207  0.5890101759044553  1.0000
  O   O7        1.0  0.3615182279255436  0.44142033332690306  0.49445115414646046  1.0000
  O   O8        1.0  0.6950386326151943  0.4135824421889325  0.4098133877212786  1.0000
  O   O9        1.0  0.6961498211147088  0.40628969185623026  0.579803845930449  1.0000
  O   O10       1.0  0.8580254138049382  0.5577189243167453  0.49963649221834305  1.0000
  O   O11       1.0  0.21255840776900203  0.8965021009460089  0.9263778648872216  1.0000
  O   O12       1.0  0.5249416495402527  0.8997016566726826  0.07968137133148898  1.0000
  O   O13       1.0  0.6849430831961811  0.07032816702287187  0.09886155753346768  1.0000
  O   O14       1.0  0.5487275909194904  0.9142685274983363  0.9115249446875633  1.0000
  O   O15       1.0  0.7050833872658372  0.0931914525037172  0.9271390123911227  1.0000
  O   O16       1.0  0.18929985324588466  0.9210818532061255  0.09668010825289736  1.0000
  O   O17       1.0  0.36518786068783265  0.0548874812947346  0.0016518357656920997  1.0000
  O   O18       1.0  0.043911230537048596  0.07507666605307858  0.9094153308549406  1.0000
  O   O19       1.0  0.018000108688624998  0.09094352997563959  0.07810855464927606  1.0000
  O   O20       1.0  0.8688340800080923  0.936228531921479  0.9998263625005062  1.0000
  O   O21       1.0  0.744500027660685  0.7663449555865752  0.8294979696891216  1.0000
  O   O22       1.0  0.22263027686273767  0.3418512839342256  0.2717276751348123  1.0000
