data_image0
_chemical_formula_structural       Mn2H28C36N4O24
_chemical_formula_sum              "Mn2 H28 C36 N4 O24"
_cell_length_a       7.419326007953326
_cell_length_b       8.213436703389128
_cell_length_c       15.825118234654477
_cell_angle_alpha    105.00801782821814
_cell_angle_beta     101.01670846730029
_cell_angle_gamma    90.02628902462396

_space_group_name_H-M_alt    "P 1"
_space_group_IT_number       1

loop_
  _space_group_symop_operation_xyz
  'x, y, z'

loop_
  _atom_site_type_symbol
  _atom_site_label
  _atom_site_symmetry_multiplicity
  _atom_site_fract_x
  _atom_site_fract_y
  _atom_site_fract_z
  _atom_site_occupancy
  Mn  Mn1       1.0  0.2500615541370337  0.6207603143062032  1.3837677357716078e-05  1.0000
  Mn  Mn2       1.0  0.7499310438450734  0.3791473377505881  0.9999888641459975  1.0000
  H   H1        1.0  0.12445405897921094  0.9238382542105585  0.0809932700148508  1.0000
  H   H2        1.0  0.37535298330732303  0.8432054095277907  0.9192370140001032  1.0000
  H   H3        1.0  0.8755726799827316  0.0761372907026967  0.9189722381791797  1.0000
  H   H4        1.0  0.6246438876951076  0.15687034323452315  0.08083078586863482  1.0000
  H   H5        1.0  0.9478611327290738  0.7936707253671003  0.03910478775173943  1.0000
  H   H6        1.0  0.5520282499133061  0.7547921360209671  0.9610418864719179  1.0000
  H   H7        1.0  0.052219861119517916  0.20626954821829463  0.9608811048629775  1.0000
  H   H8        1.0  0.4478919653767762  0.24521677379046744  0.039013310155972605  1.0000
  H   H9        1.0  0.9046066093418191  0.2710783090535572  0.1931088440229445  1.0000
  H   H10       1.0  0.5951120758990384  0.07718922283341098  0.8067070643492115  1.0000
  H   H11       1.0  0.0953880898160335  0.72893655669192  0.8068925204818598  1.0000
  H   H12       1.0  0.4049021175342489  0.9228066650911514  0.19328720050113898  1.0000
  H   H13       1.0  0.8310332832716584  0.4618436947016917  0.37812326865190465  1.0000
  H   H14       1.0  0.669195280178542  0.08337438424663898  0.6218255739649905  1.0000
  H   H15       1.0  0.16895705227571509  0.538143344577584  0.6218626264754264  1.0000
  H   H16       1.0  0.33081089755265936  0.9166253274336285  0.3781748011678516  1.0000
  H   H17       1.0  0.7008269575169165  0.5272776385515243  0.24653712575704392  1.0000
  H   H18       1.0  0.7992092374499437  0.2803630229430567  0.7535244224109405  1.0000
  H   H19       1.0  0.299159058000214  0.4727295999959225  0.753451071420116  1.0000
  H   H20       1.0  0.2008067680943668  0.7196404313134223  0.24646974812677064  1.0000
  H   H21       1.0  0.022472883729022904  0.0941114880079468  0.3644348452322888  1.0000
  H   H22       1.0  0.4775336480327256  0.7290234558733459  0.6353815522248354  1.0000
  H   H23       1.0  0.9775265024214262  0.9058894962505094  0.6355663549229574  1.0000
  H   H24       1.0  0.5224780175124693  0.27097620419747415  0.3646098288497868  1.0000
  H   H25       1.0  0.0669462808661407  0.8880967490713516  0.45588887934246  1.0000
  H   H26       1.0  0.43307646713279263  0.43162732754963434  0.5440438194326447  1.0000
  H   H27       1.0  0.9330622031187447  0.11189538426328477  0.5441100615853571  1.0000
  H   H28       1.0  0.5669184279233194  0.5683672894657549  0.4559447565710144  1.0000
  C   C1        1.0  0.8887906228219009  0.6941403668565658  0.3567062354431272  1.0000
  C   C2        1.0  0.6113368309397629  0.3369834487684855  0.6432898921178989  1.0000
  C   C3        1.0  0.11120601259187882  0.30586057040653003  0.6432852334884914  1.0000
  C   C4        1.0  0.3886629948370128  0.6630251090620191  0.3567123555973879  1.0000
  C   C5        1.0  0.7707823534132815  0.6520426315156556  0.27266793056925553  1.0000
  C   C6        1.0  0.7292908056622667  0.3789500482516601  0.7273279948513931  1.0000
  C   C7        1.0  0.22921443127447821  0.3479608593914919  0.7273295788501386  1.0000
  C   C8        1.0  0.2707142893295043  0.6210546841256104  0.27266726449281004  1.0000
  C   C9        1.0  0.7427647474255891  0.7685548578210657  0.22203825335145666  1.0000
  C   C10       1.0  0.7572574998661779  0.5460655384916465  0.7779055600462287  1.0000
  C   C11       1.0  0.25725849266474654  0.23145493302042297  0.7779630957585582  1.0000
  C   C12       1.0  0.24271196952814483  0.4539404923197877  0.2220898413418055  1.0000
  C   C13       1.0  0.8358439306815838  0.9290207037008643  0.254394538210768  1.0000
  C   C14       1.0  0.6642304930124112  0.6740571084089383  0.7454460077695516  1.0000
  C   C15       1.0  0.1641781555230537  0.0709928682245362  0.7456059470847833  1.0000
  C   C16       1.0  0.33574888019794696  0.32595395636074903  0.2545490549177956  1.0000
  C   C17       1.0  0.9512852178727017  0.9702299256994847  0.3390654084905549  1.0000
  C   C18       1.0  0.5487810982210206  0.6305545998179481  0.6607768697663446  1.0000
  C   C19       1.0  0.04872775234986901  0.0297685231092615  0.6609360387202442  1.0000
  C   C20       1.0  0.45120838047090933  0.3694413116555424  0.3392170806881367  1.0000
  C   C21       1.0  0.9770992676722019  0.8557076842011497  0.39062395030789077  1.0000
  C   C22       1.0  0.5230091713049277  0.46453975305495737  0.6092867648345361  1.0000
  C   C23       1.0  0.0229050964302715  0.14428444496940776  0.609373357303646  1.0000
  C   C24       1.0  0.4769844257517093  0.5354561464048118  0.39070565710228783  1.0000
  C   C25       1.0  0.6112117482348793  0.7131177847272525  0.13366276895193607  1.0000
  C   C26       1.0  0.8885681676083266  0.5789851951546724  0.866351237167521  1.0000
  C   C27       1.0  0.3887875879523365  0.28690596631418697  0.8663503041575638  1.0000
  C   C28       1.0  0.11142052264255403  0.4210207990060938  0.13364082533883703  1.0000
  C   C29       1.0  0.8155691890325515  0.048928321231890906  0.1983715140431528  1.0000
  C   C30       1.0  0.6846186605437553  0.8499774216180002  0.801408600737865  1.0000
  C   C31       1.0  0.18444733274808564  0.9510840044497968  0.8016308346826051  1.0000
  C   C32       1.0  0.3153780508729512  0.15002480702713678  0.1985887340881902  1.0000
  C   C33       1.0  0.019925172976137197  0.5781534757533109  0.4841787248626019  1.0000
  C   C34       1.0  0.48007785885453563  0.0938643549752172  0.5158827158530102  1.0000
  C   C35       1.0  0.9800656018940261  0.4218411338624507  0.5158075854579778  1.0000
  C   C36       1.0  0.5199343952874146  0.9061454290761333  0.4841151209026364  1.0000
  N   N1        1.0  0.9110970546759277  0.5715972423346046  0.4039932068930554  1.0000
  N   N2        1.0  0.5890270116350322  0.1672718241891076  0.596039811220237  1.0000
  N   N3        1.0  0.08888570267089341  0.42840117162349156  0.5959954195092934  1.0000
  N   N4        1.0  0.41098943566038326  0.8327392262883394  0.40395983344503616  1.0000
  O   O1        1.0  0.44478288778039143  0.7580616507839861  0.12937983141143414  1.0000
  O   O2        1.0  0.0551876343674635  0.6279004414122795  0.870717460789578  1.0000
  O   O3        1.0  0.5552360741121517  0.2419217052756792  0.8706315175859913  1.0000
  O   O4        1.0  0.9447837056002583  0.3720904795437505  0.1292836796016559  1.0000
  O   O5        1.0  0.6657361371580279  0.6164022279246879  0.06893676710399181  1.0000
  O   O6        1.0  0.8335271320190146  0.5473809977634404  0.9310826807533701  1.0000
  O   O7        1.0  0.3342664832478235  0.3835835454070136  0.931050691544911  1.0000
  O   O8        1.0  0.16645907581870031  0.45258217332029455  0.06892178421630753  1.0000
  O   O9        1.0  0.07797310632999911  0.8034558182952622  0.0667404339160811  1.0000
  O   O10       1.0  0.42193101084768614  0.7369852178512134  0.9333609800254906  1.0000
  O   O11       1.0  0.9220805440520438  0.19653377484458903  0.9332641093351768  1.0000
  O   O12       1.0  0.5780000528900687  0.26304505120003097  0.06667970607862372  1.0000
  O   O13       1.0  0.731742101181311  0.0069146962674012  0.1190812253754245  1.0000
  O   O14       1.0  0.7689741239522052  0.8873718860148686  0.8806052376035396  1.0000
  O   O15       1.0  0.2682683586937102  0.9931114922569648  0.880917370638258  1.0000
  O   O16       1.0  0.2310231000583371  0.11263917522875738  0.11939268700910326  1.0000
  O   O17       1.0  0.8941113845480402  0.2017995232443965  0.23853500612983677  1.0000
  O   O18       1.0  0.6056019875359909  0.9625712244725051  0.7612667845388971  1.0000
  O   O19       1.0  0.10589025394683199  0.7982166073891435  0.761468412006387  1.0000
  O   O20       1.0  0.3944046994500923  0.03743728421509471  0.2387272243458582  1.0000
  O   O21       1.0  0.13760151104948193  0.6896725661023808  0.5292702363721631  1.0000
  O   O22       1.0  0.3621995206617046  0.16032944300818747  0.4709175734662665  1.0000
  O   O23       1.0  0.8623905672838886  0.31032081930906935  0.4707236106174477  1.0000
  O   O24       1.0  0.6378065837984438  0.8396690064100767  0.5290826270732367  1.0000
