data_image0
_chemical_formula_structural       Cu6H54C36I6N12
_chemical_formula_sum              "Cu6 H54 C36 I6 N12"
_cell_length_a       10.191974908560852
_cell_length_b       10.681632159838559
_cell_length_c       11.683089784892303
_cell_angle_alpha    106.734086131516
_cell_angle_beta     90.59811091181977
_cell_angle_gamma    101.94967335959463

_space_group_name_H-M_alt    "P 1"
_space_group_IT_number       1

loop_
  _space_group_symop_operation_xyz
  'x, y, z'

loop_
  _atom_site_type_symbol
  _atom_site_label
  _atom_site_symmetry_multiplicity
  _atom_site_fract_x
  _atom_site_fract_y
  _atom_site_fract_z
  _atom_site_occupancy
  Cu  Cu1       1.0  0.7098768263498557  0.40086445535506227  0.2085948985853392  1.0000
  Cu  Cu2       1.0  0.29011829189172295  0.5991309226896249  0.7914062273942621  1.0000
  Cu  Cu3       1.0  0.9108621768734723  0.5022608026907561  0.3873779112116083  1.0000
  Cu  Cu4       1.0  0.08913903457403899  0.49773558861674866  0.612620093259274  1.0000
  Cu  Cu5       1.0  0.8349775979367776  0.24686406173933756  0.2657477397322269  1.0000
  Cu  Cu6       1.0  0.16502088847528995  0.7531333232486189  0.7342513640576769  1.0000
  H   H1        1.0  0.30435873203363434  0.3984565837148891  0.1560583455898978  1.0000
  H   H2        1.0  0.6956386743305742  0.601544812520835  0.8439452249217327  1.0000
  H   H3        1.0  0.3342282852995169  0.5251767653534075  0.2953272809280135  1.0000
  H   H4        1.0  0.6657691170960691  0.4748246282241126  0.7046754329178526  1.0000
  H   H5        1.0  0.4270921091295179  0.3957465003559264  0.2647361519686555  1.0000
  H   H6        1.0  0.5729043191939311  0.6042548948854003  0.7352682682641786  1.0000
  H   H7        1.0  0.7888289610001352  0.6361282004424779  0.09908506122840069  1.0000
  H   H8        1.0  0.211170176484238  0.3638721904855942  0.9009148330223555  1.0000
  H   H9        1.0  0.5952650311635067  0.7635068895593449  0.03773678901517024  1.0000
  H   H10       1.0  0.4047323632948122  0.23649449870177364  0.9622642114991609  1.0000
  H   H11       1.0  0.2600385750220724  0.5889026482462468  0.10467566122795795  1.0000
  H   H12       1.0  0.7399598054142729  0.41109874632567056  0.8953262028967118  1.0000
  H   H13       1.0  0.3396901447801993  0.6988114784161894  0.025694449624829436  1.0000
  H   H14       1.0  0.6603102036435688  0.3011899261191218  0.9743082850547327  1.0000
  H   H15       1.0  0.3430814533326654  0.7656060886483259  0.2998658863725723  1.0000
  H   H16       1.0  0.6569117960639658  0.23439428302236115  0.7001348228765496  1.0000
  H   H17       1.0  0.4142662935854204  0.8794514498190082  0.2206878006367958  1.0000
  H   H18       1.0  0.5857330767975811  0.12054995372190547  0.7793157837639699  1.0000
  H   H19       1.0  0.18494413935172097  0.9002194371304384  0.3046744573913501  1.0000
  H   H20       1.0  0.8150526793649747  0.0997839328307535  0.6953210664919498  1.0000
  H   H21       1.0  0.11424975345325086  0.744441107808882  0.1989069407825639  1.0000
  H   H22       1.0  0.8857498022047992  0.2555612764464641  0.8010900537790206  1.0000
  H   H23       1.0  0.2649628925268175  0.9923192363089511  0.13301034261046843  1.0000
  H   H24       1.0  0.7350409141686358  0.0076801549528582  0.8669841828815664  1.0000
  H   H25       1.0  0.17720731955942876  0.8399819327269853  0.03043147425023556  1.0000
  H   H26       1.0  0.8227937700378333  0.16001845753167737  0.9695658638923422  1.0000
  H   H27       1.0  0.228742445141684  0.21695362472782875  0.23051406691891432  1.0000
  H   H28       1.0  0.7712648645844382  0.783052800990461  0.7694866001997268  1.0000
  H   H29       1.0  0.20075030128018062  0.1395886735264611  0.34517802254830343  1.0000
  H   H30       1.0  0.7992500392063279  0.8604127256924489  0.6548229987997304  1.0000
  H   H31       1.0  0.11031076700633241  0.2631677719000508  0.33719310935794067  1.0000
  H   H32       1.0  0.8896859684424144  0.7368306051045435  0.6628053873640171  1.0000
  H   H33       1.0  0.9235382004317144  0.7904916322051746  0.005480999243694362  1.0000
  H   H34       1.0  0.07646421401793188  0.20950576739316773  0.9945181323244725  1.0000
  H   H35       1.0  0.7403510683154623  0.956513230493222  0.08335944696335665  1.0000
  H   H36       1.0  0.25964720504113364  0.04348315517288629  0.9166402500053579  1.0000
  H   H37       1.0  0.8505270541542059  0.8490847272951496  0.2870705758064033  1.0000
  H   H38       1.0  0.14947403544306334  0.1509156629635129  0.7129267623361741  1.0000
  H   H39       1.0  0.9608258614392327  0.7528027913537017  0.3215767083740815  1.0000
  H   H40       1.0  0.039176210167433084  0.24719760255756282  0.6784206367130637  1.0000
  H   H41       1.0  0.9475761769383694  0.9062668307895759  0.4269680099444527  1.0000
  H   H42       1.0  0.0524270857645206  0.09373456343791992  0.5730278922426777  1.0000
  H   H43       1.0  0.638626717786785  0.4973043973974356  0.5078679443998837  1.0000
  H   H44       1.0  0.36138147083761396  0.5026970257258512  0.4921314191731412  1.0000
  H   H45       1.0  0.4965307997960764  0.6986808986045856  0.5310035491867424  1.0000
  H   H46       1.0  0.5034728295616021  0.30131751725919986  0.4689992794760088  1.0000
  H   H47       1.0  0.6127688318668872  0.8908219248495752  0.3395316737792341  1.0000
  H   H48       1.0  0.3872293275767263  0.1091784650841063  0.6604690701927112  1.0000
  H   H49       1.0  0.724049125826653  0.9855148382646274  0.4656643741316272  1.0000
  H   H50       1.0  0.2759502326504517  0.014486557301687195  0.5343366402718388  1.0000
  H   H51       1.0  0.5395493116487273  0.946630223423625  0.6016666745749149  1.0000
  H   H52       1.0  0.46045038570273544  0.0533681751715704  0.3983352696438018  1.0000
  H   H53       1.0  0.4279144659492786  0.8531963271505273  0.4767882175002922  1.0000
  H   H54       1.0  0.5720842493927876  0.14680206779206623  0.5232137197738567  1.0000
  C   C1        1.0  0.38352881648947346  0.46116732177158337  0.22583805130146567  1.0000
  C   C2        1.0  0.6164695679155018  0.5388340754585386  0.7741646694889682  1.0000
  C   C3        1.0  0.4906241271407339  0.5404530589912254  0.1746140388393229  1.0000
  C   C4        1.0  0.5093754602663765  0.4595493465297336  0.825389809048396  1.0000
  C   C5        1.0  0.6827929393833116  0.6243729062742743  0.11397607517099566  1.0000
  C   C6        1.0  0.31720248708758453  0.37562847202345034  0.8860240547884358  1.0000
  C   C7        1.0  0.5900760809003457  0.68846672062363  0.08420847325186996  1.0000
  C   C8        1.0  0.4099219606616487  0.3115376709194067  0.9157924610575421  1.0000
  C   C9        1.0  0.34318036671739793  0.6750912330484978  0.11111450241019573  1.0000
  C   C10       1.0  0.6568180216562071  0.32491016683982105  0.8888890750460092  1.0000
  C   C11       1.0  0.33117038906809165  0.7937203327402996  0.21753336617349814  1.0000
  C   C12       1.0  0.6688277703755149  0.2062800571933749  0.7824673777984544  1.0000
  C   C13       1.0  0.19632390487686982  0.8342180493666046  0.21539397318456818  1.0000
  C   C14       1.0  0.8036773977758712  0.1657833402138991  0.7846027717791983  1.0000
  C   C15       1.0  0.1801205399507494  0.9063141039333613  0.1222506525386961  1.0000
  C   C16       1.0  0.819883720636064  0.0936873045795323  0.8777486832560656  1.0000
  C   C17       1.0  0.15074722926510728  0.17910433850160956  0.2839392471318192  1.0000
  C   C18       1.0  0.8492494982463724  0.8208940331865833  0.7160575362586031  1.0000
  C   C19       1.0  0.04049395592767269  0.07598368758836219  0.20660756587162876  1.0000
  C   C20       1.0  0.9595160788339003  0.924021744449483  0.7933920019279982  1.0000
  C   C21       1.0  0.9335969714927258  0.8876552769540779  0.07163417933627154  1.0000
  C   C22       1.0  0.0664046779716259  0.11234312097170115  0.9283652087742736  1.0000
  C   C23       1.0  0.8457190979411634  0.9699899861341661  0.11006181044562871  1.0000
  C   C24       1.0  0.1542781934060358  0.030006395879354397  0.8899378795785184  1.0000
  C   C25       1.0  0.8908162203208717  0.816400992149212  0.3584712891093104  1.0000
  C   C26       1.0  0.10918585525442377  0.18359940442024936  0.641526912643606  1.0000
  C   C27       1.0  0.7829115459796014  0.7390470575625159  0.4103729935751019  1.0000
  C   C28       1.0  0.2170907505884258  0.2609543436451886  0.5896263283305316  1.0000
  C   C29       1.0  0.6619282705916661  0.5879054731161446  0.48126422781969325  1.0000
  C   C30       1.0  0.33807873090513146  0.41209495234910787  0.5187374353191174  1.0000
  C   C31       1.0  0.5906934301251568  0.6859077275017567  0.49223981306897713  1.0000
  C   C32       1.0  0.4093087752376476  0.31408867543294855  0.5077607683437719  1.0000
  C   C33       1.0  0.6347070544163885  0.9030323933117188  0.43514153467677374  1.0000
  C   C34       1.0  0.3652916529884109  0.09696599631447358  0.5648586892658403  1.0000
  C   C35       1.0  0.5167481709810103  0.9363230982233189  0.5066531214513574  1.0000
  C   C36       1.0  0.4832525083798488  0.0636753040244713  0.4933488297119198  1.0000
  I   I1        1.0  0.5708743558840228  0.1636662033420464  0.18362345852263223  1.0000
  I   I2        1.0  0.4291282835269925  0.836332203552743  0.8163776498640091  1.0000
  I   I3        1.0  0.8495263675120982  0.32126280817669073  0.5039753710347769  1.0000
  I   I4        1.0  0.15047484790405008  0.6787335857890113  0.4960234901018765  1.0000
  I   I5        1.0  0.9666506583140518  0.4362903061882902  0.16023349438670206  1.0000
  I   I6        1.0  0.033346617158620945  0.5637060651924201  0.8397627689743886  1.0000
  N   N1        1.0  0.6202208237051607  0.5319593226699694  0.16953229652707338  1.0000
  N   N2        1.0  0.3797791818756267  0.4680450761782637  0.8304686516714739  1.0000
  N   N3        1.0  0.46952494882224016  0.6341262572601066  0.12211601205969906  1.0000
  N   N4        1.0  0.5304724535733457  0.36587513631741325  0.8778867017861672  1.0000
  N   N5        1.0  0.9128758804623587  0.08690678552851949  0.19380062094804631  1.0000
  N   N6        1.0  0.08712085101775803  0.9130915888178777  0.80619701910814  1.0000
  N   N7        1.0  0.0560244420867662  0.9556550311138566  0.13315997426124676  1.0000
  N   N8        1.0  0.9439753413972483  0.044339344606363795  0.8668349262938764  1.0000
  N   N9        1.0  0.7808966528443548  0.6216133035283207  0.4306276975954191  1.0000
  N   N10       1.0  0.21910761567972506  0.3783881103009818  0.569373351530878  1.0000
  N   N11       1.0  0.6682771055653661  0.7806398861377984  0.44681174324853157  1.0000
  N   N12       1.0  0.33172377891369825  0.2193595101154315  0.5531879014044065  1.0000
