data_image0
_chemical_formula_structural       Mn2H20C24Br4N4O12
_chemical_formula_sum              "Mn2 H20 C24 Br4 N4 O12"
_cell_length_a       6.990458242346927
_cell_length_b       9.820918227035031
_cell_length_c       10.157244934459426
_cell_angle_alpha    90.00023239978623
_cell_angle_beta     98.1614090410902
_cell_angle_gamma    89.99976447112014

_space_group_name_H-M_alt    "P 1"
_space_group_IT_number       1

loop_
  _space_group_symop_operation_xyz
  'x, y, z'

loop_
  _atom_site_type_symbol
  _atom_site_label
  _atom_site_symmetry_multiplicity
  _atom_site_fract_x
  _atom_site_fract_y
  _atom_site_fract_z
  _atom_site_occupancy
  Mn  Mn1       1.0  0.5000009772613724  0.49999938447601955  0.5000001725044358  1.0000
  Mn  Mn2       1.0  0.9999989430837747  5.873199527000007e-07  0.5000002785200837  1.0000
  H   H1        1.0  0.27725358226824437  0.382360347552769  0.6632627344646169  1.0000
  H   H2        1.0  0.7772509635705448  0.11763792136832758  0.6632652106673975  1.0000
  H   H3        1.0  0.7227469265339013  0.6176384213990432  0.33673648515934224  1.0000
  H   H4        1.0  0.22274665659715961  0.882363902297598  0.3367366810612182  1.0000
  H   H5        1.0  0.4535117996676164  0.27508191485976846  0.656441805681091  1.0000
  H   H6        1.0  0.9535144263874997  0.22492292879324785  0.6564432417136673  1.0000
  H   H7        1.0  0.5464872639742638  0.7249178723286178  0.3435572731335413  1.0000
  H   H8        1.0  0.046484637817258104  0.7750768583972201  0.3435568216748238  1.0000
  H   H9        1.0  0.12852007536733373  0.28823459587596995  0.49536174704082486  1.0000
  H   H10       1.0  0.6285169846905491  0.211767479139901  0.49535863669031244  1.0000
  H   H11       1.0  0.8714789882720098  0.71176620954715  0.5046373317755483  1.0000
  H   H12       1.0  0.37148207895133123  0.7882323080484851  0.5046404421243198  1.0000
  H   H13       1.0  0.8925107688248347  0.4455346369396551  0.10937555185029885  1.0000
  H   H14       1.0  0.39251212904807903  0.05445789535131949  0.10937069161163043  1.0000
  H   H15       1.0  0.10749262915941674  0.5544671867084858  0.890621980253272  1.0000
  H   H16       1.0  0.6074898254746658  0.9455408736007197  0.8906296533972483  1.0000
  H   H17       1.0  0.8934189814975255  0.015942623539892495  0.20478926187232824  1.0000
  H   H18       1.0  0.3934210933616953  0.484053363711382  0.20478614778045315  1.0000
  H   H19       1.0  0.10657430263412243  0.9840592001295081  0.795211222849254  1.0000
  H   H20       1.0  0.6065808611559832  0.5159474417101106  0.795214197231893  1.0000
  C   C1        1.0  0.05774170462625251  0.27421339551399626  0.39430888070164377  1.0000
  C   C2        1.0  0.5577385458283716  0.22579151789884824  0.394308771877114  1.0000
  C   C3        1.0  0.9422573595785055  0.7257863916764717  0.6056911826868474  1.0000
  C   C4        1.0  0.4422605178109791  0.7742092875242647  0.605690306939259  1.0000
  C   C5        1.0  0.02184684856720761  0.3842732397817058  0.30782651952832657  1.0000
  C   C6        1.0  0.5218341193527467  0.11572326925293908  0.30782111151246744  1.0000
  C   C7        1.0  0.978156550550395  0.6157255291663971  0.6921729817177465  1.0000
  C   C8        1.0  0.47816783460459095  0.884276517931745  0.692178248924286  1.0000
  C   C9        1.0  0.9276758183953436  0.36136541090516505  0.17820235957833575  1.0000
  C   C10       1.0  0.42767098008275184  0.1386293439780245  0.1781991921875843  1.0000
  C   C11       1.0  0.07232902587998782  0.6386333580410902  0.8217972824787978  1.0000
  C   C12       1.0  0.5723295287193936  0.8613694249737801  0.8218000274363748  1.0000
  C   C13       1.0  0.8879032713915012  0.2271936180170684  0.14025062990291565  1.0000
  C   C14       1.0  0.3879049909190685  0.2727980401373954  0.14024862396619403  1.0000
  C   C15       1.0  0.11209579224531305  0.7728082056407786  0.8597484489151914  1.0000
  C   C16       1.0  0.612095517883077  0.7272007288144168  0.8597505956577652  1.0000
  C   C17       1.0  0.9248919044124125  0.12156819453863217  0.23155148146679502  1.0000
  C   C18       1.0  0.4248945421090654  0.37843188508990266  0.23154800729457756  1.0000
  C   C19       1.0  0.07510282487950094  0.8784326108941938  0.768449144064114  1.0000
  C   C20       1.0  0.5751074118457355  0.6215689203295155  0.7684513531439097  1.0000
  C   C21       1.0  0.07736393726805353  0.5258292598237303  0.3516097815464222  1.0000
  C   C22       1.0  0.5773624344903255  0.974175595456522  0.3516147394037575  1.0000
  C   C23       1.0  0.922638016689284  0.4741705273609539  0.6483895788903312  1.0000
  C   C24       1.0  0.42263662915155464  0.025824191731864187  0.6483843394108818  1.0000
  Br  Br1       1.0  0.7784483112759946  0.18602217919274003  0.9632743766816891  1.0000
  Br  Br2       1.0  0.27844982470189455  0.31397328023578547  0.9632705419609667  1.0000
  Br  Br3       1.0  0.2215507529313002  0.8139765897630011  0.036725686705061406  1.0000
  Br  Br4       1.0  0.7215492389450591  0.6860244704831471  0.036728536850198217  1.0000
  N   N1        1.0  0.0014177684540044005  0.14592194011994764  0.3598294943407297  1.0000
  N   N2        1.0  0.5014183042087056  0.3540779039692196  0.3598263070026989  1.0000
  N   N3        1.0  0.9985798505904955  0.8540788653070945  0.6401704282384417  1.0000
  N   N4        1.0  0.4985822045909033  0.645921883217312  0.6401729126229938  1.0000
  O   O1        1.0  0.23442288928191607  0.54974141372994  0.4288285132689253  1.0000
  O   O2        1.0  0.7344099431578643  0.9502643189010482  0.4288302939728298  1.0000
  O   O3        1.0  0.7655776195176928  0.4502583734565987  0.5711707063567674  1.0000
  O   O4        1.0  0.2655891216097644  0.04973546829149459  0.5711707539895203  1.0000
  O   O5        1.0  0.9609128808750217  0.6219298675970393  0.30875149138626073  1.0000
  O   O6        1.0  0.46090685169662765  0.8780624656329862  0.308751109396944  1.0000
  O   O7        1.0  0.0390876279245873  0.37806991958949954  0.6912477282394323  1.0000
  O   O8        1.0  0.5390936565401108  0.12193732155147068  0.69124712565489  1.0000
  O   O9        1.0  0.4122605063145741  0.3734098229496963  0.6440236852665395  1.0000
  O   O10       1.0  0.9122592870834725  0.12659101798256234  0.6440243636502105  1.0000
  O   O11       1.0  0.587740003050442  0.6265889460041904  0.35597651893127863  1.0000
  O   O12       1.0  0.08773833308423212  0.8734108056833704  0.3559775280784053  1.0000
