data_image0
_chemical_formula_structural       MgH8C6S2N2O8
_chemical_formula_sum              "Mg1 H8 C6 S2 N2 O8"
_cell_length_a       5.021802949996662
_cell_length_b       7.4163947508012225
_cell_length_c       7.758266184882546
_cell_angle_alpha    84.37546150519083
_cell_angle_beta     85.82356396094578
_cell_angle_gamma    72.44250904582452

_space_group_name_H-M_alt    "P 1"
_space_group_IT_number       1

loop_
  _space_group_symop_operation_xyz
  'x, y, z'

loop_
  _atom_site_type_symbol
  _atom_site_label
  _atom_site_symmetry_multiplicity
  _atom_site_fract_x
  _atom_site_fract_y
  _atom_site_fract_z
  _atom_site_occupancy
  Mg  Mg1       1.0  0.5000005795412221  8.791413109988387e-08  5.322947771028939e-07  1.0000
  H   H1        1.0  0.022799836439858723  0.9868278564726012  0.182196812738546  1.0000
  H   H2        1.0  0.9772009229042667  0.01317251634421271  0.8178025827717336  1.0000
  H   H3        1.0  0.24841110369166597  0.7854603861659584  0.224086543321917  1.0000
  H   H4        1.0  0.7515902441585709  0.21453858277307353  0.7759116537237246  1.0000
  H   H5        1.0  0.03269906550497844  0.2993305443290452  0.0180529475835343  1.0000
  H   H6        1.0  0.9672945472781864  0.700672638232554  0.981951724361643  1.0000
  H   H7        1.0  0.2568309513887215  0.37133074830357776  0.8996161188872875  1.0000
  H   H8        1.0  0.7431644438469363  0.6286682078278714  0.10038624711197032  1.0000
  C   C1        1.0  0.9786123879738892  0.416366018606695  0.5414998199807783  1.0000
  C   C2        1.0  0.021388959876347265  0.58363295033233  0.4584983770648634  1.0000
  C   C3        1.0  0.3652046335938762  0.37699121096375887  0.3303405890137086  1.0000
  C   C4        1.0  0.6347940907428368  0.6230092019742911  0.6696563278037362  1.0000
  C   C5        1.0  0.6135184602416217  0.2930396726033208  0.214615316566956  1.0000
  C   C6        1.0  0.3864829214769829  0.706959266742082  0.7853854593747087  1.0000
  S   S1        1.0  0.22591683694528797  0.22199179071082403  0.4646731659749932  1.0000
  S   S2        1.0  0.7740845109049416  0.7780071782282079  0.5353250310706485  1.0000
  N   N1        1.0  0.24002895641981342  0.5608783297736365  0.34083146520858787  1.0000
  N   N2        1.0  0.7599717859901249  0.4391220578399881  0.6591666408536837  1.0000
  O   O1        1.0  0.21249698934381916  0.25441227561992724  0.9483601742852911  1.0000
  O   O2        1.0  0.7874998693273415  0.7455880294712429  0.05164715831946864  1.0000
  O   O3        1.0  0.2268783992942572  0.9191851402122851  0.1792990254806668  1.0000
  O   O4        1.0  0.7731229485559721  0.08081382872673969  0.8206991715649751  1.0000
  O   O5        1.0  0.748555203344317  0.3995455516775054  0.14060373786492159  1.0000
  O   O6        1.0  0.2514475740730404  0.6004547958148763  0.8593968468901849  1.0000
  O   O7        1.0  0.6728614864450293  0.1145476865886792  0.2013035826619145  1.0000
  O   O8        1.0  0.32714127403814813  0.8854526757005132  0.798695712645177  1.0000
