data_image0
_chemical_formula_structural       Cd2H16C16S4N8
_chemical_formula_sum              "Cd2 H16 C16 S4 N8"
_cell_length_a       8.465585346961051
_cell_length_b       8.274634687697493
_cell_length_c       8.274554347816535
_cell_angle_alpha    100.779319607464
_cell_angle_beta     99.78286872830472
_cell_angle_gamma    99.78191417349387

_space_group_name_H-M_alt    "P 1"
_space_group_IT_number       1

loop_
  _space_group_symop_operation_xyz
  'x, y, z'

loop_
  _atom_site_type_symbol
  _atom_site_label
  _atom_site_symmetry_multiplicity
  _atom_site_fract_x
  _atom_site_fract_y
  _atom_site_fract_z
  _atom_site_occupancy
  Cd  Cd1       1.0  0.749998002720936  0.29198485249822426  0.7080139247478102  1.0000
  Cd  Cd2       1.0  0.2500043572365271  0.7080164707884788  0.29198598867601083  1.0000
  H   H1        1.0  0.8880857470263877  0.06637183464116699  0.5386107420037971  1.0000
  H   H2        1.0  0.6119088231876546  0.4613897171272399  0.9336334989255448  1.0000
  H   H3        1.0  0.11191274892744474  0.9336283144551132  0.4613931111410281  1.0000
  H   H4        1.0  0.3880923307848789  0.5386116727937562  0.0663722553597097  1.0000
  H   H5        1.0  0.978870689346401  0.24177479964249227  0.4913283337237288  1.0000
  H   H6        1.0  0.5211229677182487  0.508668155263429  0.7582182570547643  1.0000
  H   H7        1.0  0.021129130678907936  0.7582202594600673  0.5086712213305448  1.0000
  H   H8        1.0  0.47887792597169465  0.49133193463360675  0.24178238506519986  1.0000
  H   H9        1.0  0.2499963556288094  0.3824153456320332  0.6175875358026914  1.0000
  H   H10       1.0  0.7500030656934483  0.617583542619343  0.38241746531257087  1.0000
  H   H11       1.0  0.9922201769734115  0.9877748127894963  0.8084709780365955  1.0000
  H   H12       1.0  0.5077670854190258  0.19152231654162932  0.012216945599355713  1.0000
  H   H13       1.0  0.0077781828845573005  0.012218981179394498  0.19152567541468096  1.0000
  H   H14       1.0  0.49223181533804466  0.8084739716618259  0.9877778311853405  1.0000
  H   H15       1.0  0.24999787022095896  0.993066032863986  0.006924416317303932  1.0000
  H   H16       1.0  0.7500048884395553  0.006931461273900704  0.9930700510455279  1.0000
  C   C1        1.0  0.4611302700922905  0.11412599551333362  0.34947006783971796  1.0000
  C   C2        1.0  0.03885512627194031  0.6505387324783384  0.8858614555786061  1.0000
  C   C3        1.0  0.5388623465577425  0.8858692940936166  0.6505451707877158  1.0000
  C   C4        1.0  0.9611378296717418  0.3494689181993492  0.114128249145331  1.0000
  C   C5        1.0  0.10602382765119962  0.1837342635831689  0.6995560303758238  1.0000
  C   C6        1.0  0.393969091887783  0.3004356802991168  0.8162624381370307  1.0000
  C   C7        1.0  0.8939771963256433  0.8162607394664362  0.3004388939167272  1.0000
  C   C8        1.0  0.6060298048025032  0.6995606290670081  0.18373475884709484  1.0000
  C   C9        1.0  0.24999749836806015  0.296994108672301  0.7030009705599483  1.0000
  C   C10       1.0  0.7500048697229643  0.7030071722890695  0.29699410246501395  1.0000
  C   C11       1.0  0.10530818205194949  0.07427191769774312  0.8098593420036478  1.0000
  C   C12       1.0  0.3946854998718834  0.1901354354644695  0.9257252858527423  1.0000
  C   C13       1.0  0.8946949831539824  0.9257331786848155  0.1901413867194392  1.0000
  C   C14       1.0  0.6053127418995317  0.809863381863842  0.07426982482765254  1.0000
  C   C15       1.0  0.2499996402151368  0.07843323812929978  0.9215626926438532  1.0000
  C   C16       1.0  0.7500045664123791  0.9215655846302655  0.07844193692026388  1.0000
  S   S1        1.0  0.6028218131277255  0.2841158819429026  0.38141346917545593  1.0000
  S   S2        1.0  0.8971849183724742  0.618592689862737  0.7158949454740122  1.0000
  S   S3        1.0  0.3971794749072828  0.7158918736868144  0.6186006949030656  1.0000
  S   S4        1.0  0.10281252221725622  0.3814023332070562  0.28409692970768663  1.0000
  N   N1        1.0  0.3580810982416908  0.9911306062732665  0.3234868726591671  1.0000
  N   N2        1.0  0.14191564609136265  0.6765098224519122  0.008867695834716537  1.0000
  N   N3        1.0  0.6419240578637184  0.008878302384211207  0.6765209314989136  1.0000
  N   N4        1.0  0.8580856582107758  0.32349784852713276  0.9911367874460808  1.0000
  N   N5        1.0  0.95859020357058  0.1843305725235354  0.5878831009346185  1.0000
  N   N6        1.0  0.541404947962043  0.4121071779369032  0.8156669055727049  1.0000
  N   N7        1.0  0.04141255508993425  0.8156669216143512  0.41211136642821333  1.0000
  N   N8        1.0  0.45859833736383143  0.5878928845048961  0.1843341558215457  1.0000
