data_image0
_chemical_formula_structural       Zn2H40C66N8O16
_chemical_formula_sum              "Zn2 H40 C66 N8 O16"
_cell_length_a       15.83881493657108
_cell_length_b       17.212983781761853
_cell_length_c       28.125532258101575
_cell_angle_alpha    89.88449893607597
_cell_angle_beta     92.71259888675868
_cell_angle_gamma    92.9214979165984

_space_group_name_H-M_alt    "P 1"
_space_group_IT_number       1

loop_
  _space_group_symop_operation_xyz
  'x, y, z'

loop_
  _atom_site_type_symbol
  _atom_site_label
  _atom_site_symmetry_multiplicity
  _atom_site_fract_x
  _atom_site_fract_y
  _atom_site_fract_z
  _atom_site_occupancy
  Zn  Zn1       1.0  0.5871347565402515  0.4982566869335868  0.5040540720180715  1.0000
  Zn  Zn2       1.0  0.412929893266579  0.5017722704071657  0.49707598589891705  1.0000
  H   H1        1.0  0.6071014753066349  0.10739449891690359  0.512841357881797  1.0000
  H   H2        1.0  0.1138535136959504  0.4294997176377889  0.5483683048328913  1.0000
  H   H3        1.0  0.12700072353226938  0.5972854890836812  0.43435777737847303  1.0000
  H   H4        1.0  0.8735192215867398  0.4009109020823231  0.5654127196310698  1.0000
  H   H5        1.0  0.4056326893344248  0.5723252280588651  0.2522077500892976  1.0000
  H   H6        1.0  0.5945793630156897  0.42884766495517107  0.7487887498971163  1.0000
  H   H7        1.0  0.5511005141982109  0.6941407007390409  0.12418924574573252  1.0000
  H   H8        1.0  0.4484658505666629  0.3064740714724436  0.8767927910652349  1.0000
  H   H9        1.0  0.38167369534556156  0.5546196180939589  0.6441196685971777  1.0000
  H   H10       1.0  0.6175072279544266  0.44492320303106675  0.35675638487909833  1.0000
  H   H11       1.0  0.5087880379107687  0.6926723854851814  0.8758501611624399  1.0000
  H   H12       1.0  0.3947200819014966  0.8898298507215398  0.4664970654588388  1.0000
  H   H13       1.0  0.48984719512166913  0.3080611388336507  0.12512594830952392  1.0000
  H   H14       1.0  0.5209693338836843  0.695990582784681  0.9632257280556475  1.0000
  H   H15       1.0  0.47761113874928174  0.30475662625281785  0.03776091156491651  1.0000
  H   H16       1.0  0.6101511608187947  0.25353386011421003  0.5189430753688101  1.0000
  H   H17       1.0  0.39074935257177396  0.7435498510359863  0.4710855454966706  1.0000
  H   H18       1.0  0.4311067899757715  0.6961228885993831  0.3392654913201909  1.0000
  H   H19       1.0  0.43929615096035224  0.6475368429944837  0.3960249482715526  1.0000
  H   H20       1.0  0.33916924773945567  0.6789613779735787  0.3733452943544791  1.0000
  H   H21       1.0  0.5650716133769293  0.3566398248160211  0.602575128144423  1.0000
  H   H22       1.0  0.5677037361233771  0.3057198601478177  0.65873174833402  1.0000
  H   H23       1.0  0.6615451327475552  0.897616681637892  0.5026174182100933  1.0000
  H   H24       1.0  0.6628376811559916  0.32324574189581057  0.6274796542090044  1.0000
  H   H25       1.0  0.2870033636256366  0.5885555430206606  0.4398164962293692  1.0000
  H   H26       1.0  0.7135661783705057  0.40981930378714526  0.5606641529838614  1.0000
  H   H27       1.0  0.36942166854975506  0.5588228038614247  0.7323693173405275  1.0000
  H   H28       1.0  0.6300457503685521  0.44124474494129357  0.26848588080253694  1.0000
  H   H29       1.0  0.6234292765180243  0.7776870379440763  0.0793767922001933  1.0000
  H   H30       1.0  0.5124838110356079  0.793961980667312  0.08203880399731392  1.0000
  H   H31       1.0  0.5700353949025753  0.8291035943268666  0.03228543658787691  1.0000
  H   H32       1.0  0.48689690838230576  0.20657333148083268  0.9191414197593847  1.0000
  H   H33       1.0  0.3759092572522248  0.22284955910846088  0.9217217885258863  1.0000
  H   H34       1.0  0.3421089780480314  0.104316783967235  0.47223019003169503  1.0000
  H   H35       1.0  0.4292931523352478  0.17167972915913043  0.9689221750513044  1.0000
  H   H36       1.0  0.6574222133999966  0.7507266577619446  0.5065434516098009  1.0000
  H   H37       1.0  0.34533955311093917  0.2509211234714002  0.47877590646177753  1.0000
  H   H38       1.0  0.7255766139907818  0.5715744891674814  0.45213637669650103  1.0000
  H   H39       1.0  0.27399281552798266  0.4293650861234538  0.5497162659713126  1.0000
  H   H40       1.0  0.8856454801792492  0.5709628880621975  0.452636720872313  1.0000
  C   C1        1.0  0.5184512579380467  0.652546766851401  0.4956346868762581  1.0000
  C   C2        1.0  0.49174090866142  0.5689600897458645  0.8722495207749149  1.0000
  C   C3        1.0  0.5046502071055625  0.5083871885012029  0.3540724859623055  1.0000
  C   C4        1.0  0.4950154288065889  0.4918065664774503  0.6468539805505815  1.0000
  C   C5        1.0  0.5065737881962065  0.5722335331182434  0.9738367179215504  1.0000
  C   C6        1.0  0.4924172268260491  0.4285003422395519  0.027141554998934208  1.0000
  C   C7        1.0  0.4834363833044505  0.42651054265107996  0.9751653660670742  1.0000
  C   C8        1.0  0.5157333590064538  0.5742089748138284  0.025813290378508203  1.0000
  C   C9        1.0  0.4915798987931835  0.49864620057301295  0.9496530225796679  1.0000
  C   C10       1.0  0.5075546059098172  0.5020865138075833  0.05133339465375292  1.0000
  C   C11       1.0  0.511117731079004  0.6401598731829593  0.9458436426896314  1.0000
  C   C12       1.0  0.48239450028190584  0.3473043642957875  0.5007049957999146  1.0000
  C   C13       1.0  0.4876466176448346  0.3605812246432478  0.05512109685841442  1.0000
  C   C14       1.0  0.5040952090992761  0.6389278139388208  0.8963230910741944  1.0000
  C   C15       1.0  0.494724733428633  0.3617885196990898  0.10464002153786822  1.0000
  C   C16       1.0  0.5001559801373502  0.5034298465569121  0.40714527491347513  1.0000
  C   C17       1.0  0.49939247472763526  0.49655002730884223  0.593764657017154  1.0000
  C   C18       1.0  0.532995596548311  0.6434463265065344  0.05333398141214472  1.0000
  C   C19       1.0  0.46627929707979376  0.3572550519002177  0.9476388109583386  1.0000
  C   C20       1.0  0.5234385910107164  0.7391775695617823  0.4899454694990555  1.0000
  C   C21       1.0  0.47820080722305375  0.2602534519938757  0.49872646306285884  1.0000
  C   C22       1.0  0.4495582503905879  0.7782256185232013  0.47777207088788753  1.0000
  C   C23       1.0  0.5146702090681428  0.5017148962500215  0.10244368323039053  1.0000
  C   C24       1.0  0.5520007267972814  0.21989110426442685  0.5087432392018558  1.0000
  C   C25       1.0  0.4515000873110535  0.8586486501077103  0.47530612919901233  1.0000
  C   C26       1.0  0.5506486057937535  0.13961967948539214  0.5051855308486708  1.0000
  C   C27       1.0  0.5282857246791153  0.9015190903604661  0.4855996956892953  1.0000
  C   C28       1.0  0.4745683591393615  0.09822587029334069  0.4911533655191322  1.0000
  C   C29       1.0  0.6029354273202612  0.8626772280118399  0.4955945607877085  1.0000
  C   C30       1.0  0.40024460743656215  0.1381284458324856  0.48234620681159873  1.0000
  C   C31       1.0  0.6005297708033623  0.781848934762209  0.49781117409958153  1.0000
  C   C32       1.0  0.4020648448511393  0.21879742672044233  0.48604026688453683  1.0000
  C   C33       1.0  0.23797234193883546  0.46518656225855876  0.5248858008777335  1.0000
  C   C34       1.0  0.4845889146732317  0.49897478696256997  0.8985280455143043  1.0000
  C   C35       1.0  0.7618294857797208  0.5350638930708199  0.47643481069763294  1.0000
  C   C36       1.0  0.15044675277712818  0.4655598380813756  0.5241439152045333  1.0000
  C   C37       1.0  0.8493142404707256  0.534443121339514  0.476745471485387  1.0000
  C   C38       1.0  0.10965097230784687  0.5139618296417081  0.49104417672370476  1.0000
  C   C39       1.0  0.8903525773136562  0.48532939048770635  0.5093080610352987  1.0000
  C   C40       1.0  0.5345486359751773  0.5756006776185387  0.1801641006137089  1.0000
  C   C41       1.0  0.4652805746980419  0.42503392547744306  0.8207920999243685  1.0000
  C   C42       1.0  0.15807930965064537  0.5596351140873491  0.4601835611526966  1.0000
  C   C43       1.0  0.8421829153665853  0.4391035282354209  0.5400163060110118  1.0000
  C   C44       1.0  0.24564914029895846  0.5553465954458614  0.4631831036000308  1.0000
  C   C45       1.0  0.529498421131592  0.5723058696317549  0.12754739657418676  1.0000
  C   C46       1.0  0.754643208270302  0.4435965436749  0.5374253353070914  1.0000
  C   C47       1.0  0.5114249799441523  0.4310622096492977  0.18123821005654156  1.0000
  C   C48       1.0  0.487906600711618  0.5696191671131529  0.819704536399499  1.0000
  C   C49       1.0  0.5787911942835818  0.4706428383778911  0.2841231165240927  1.0000
  C   C50       1.0  0.42082478320223504  0.5295909610909603  0.7167688464669412  1.0000
  C   C51       1.0  0.5714351191263773  0.47254795263282307  0.3331630227868701  1.0000
  C   C52       1.0  0.4280232370157932  0.5273705822764396  0.6677164523420416  1.0000
  C   C53       1.0  0.4447400236283129  0.5449395635443607  0.32398073913808645  1.0000
  C   C54       1.0  0.5553026293116472  0.4558541269948435  0.6769798771961961  1.0000
  C   C55       1.0  0.4520986616122897  0.5432597497201427  0.2747251493923671  1.0000
  C   C56       1.0  0.4699990150988782  0.4283499596013698  0.8734185565582495  1.0000
  C   C57       1.0  0.5479815262100869  0.45767305173514927  0.7262484374143982  1.0000
  C   C58       1.0  0.5181984002642392  0.5060269961267281  0.2550782770760449  1.0000
  C   C59       1.0  0.4816573858267787  0.49461419356245523  0.7458575343751904  1.0000
  C   C60       1.0  0.399015350314464  0.6553131426012441  0.3636215635488825  1.0000
  C   C61       1.0  0.6023701904385417  0.34714811722032823  0.6358599674076189  1.0000
  C   C62       1.0  0.563544841563633  0.7820225110335386  0.05829998679040221  1.0000
  C   C63       1.0  0.4357962777369193  0.218621607967485  0.9428207367516707  1.0000
  C   C64       1.0  0.5391173004725544  0.6415220676146305  0.10308838731398143  1.0000
  C   C65       1.0  0.4602881987734974  0.35914035213166773  0.8978762503523615  1.0000
  C   C66       1.0  0.5074204466681351  0.43172398708392007  0.12870973675055813  1.0000
  N   N1        1.0  0.5223382277263653  0.5043167519333166  0.20403853957683543  1.0000
  N   N2        1.0  0.4773833075679334  0.4963389243932426  0.7969135147241957  1.0000
  N   N3        1.0  0.5363662441828723  0.9834304000201969  0.48818437569669737  1.0000
  N   N4        1.0  0.4665655833616284  0.016592509821613498  0.48615766686167927  1.0000
  N   N5        1.0  0.28428444041934137  0.5091166136711535  0.49494032002028393  1.0000
  N   N6        1.0  0.7157647956287858  0.49061958256288546  0.5062326647404733  1.0000
  N   N7        1.0  0.0207448546991316  0.5208409808060638  0.4859581381441559  1.0000
  N   N8        1.0  0.9792387032536637  0.47831837996164245  0.5141706711232247  1.0000
  O   O1        1.0  0.5877305076082988  0.6182764938366105  0.5002714318008403  1.0000
  O   O2        1.0  0.4523221749904706  0.3635266107084475  0.7986583173952158  1.0000
  O   O3        1.0  0.4948152381930768  0.6298705725188894  0.7962713821661965  1.0000
  O   O4        1.0  0.5043350972798776  0.37082750553894767  0.20466345929426674  1.0000
  O   O5        1.0  0.3768494164495234  0.58269243870064  0.3400934701015147  1.0000
  O   O6        1.0  0.6235731197604152  0.418548545855131  0.6609766802327999  1.0000
  O   O7        1.0  0.5436682428173539  0.7131260316566426  0.030568122626917202  1.0000
  O   O8        1.0  0.45560801305474274  0.2876170934450073  0.9704406274154141  1.0000
  O   O9        1.0  0.4131430756547231  0.3816068604996373  0.4963508375258031  1.0000
  O   O10       1.0  0.4443667097326128  0.6198119248130853  0.4955949865391106  1.0000
  O   O11       1.0  0.5560835131209103  0.3804801932430024  0.5063749841621857  1.0000
  O   O12       1.0  0.5703819963542711  0.4975893227663091  0.4307249895292956  1.0000
  O   O13       1.0  0.42871037280562513  0.4982624627786905  0.5701324149998257  1.0000
  O   O14       1.0  0.4276561600149832  0.5038398037569393  0.4247011968967911  1.0000
  O   O15       1.0  0.5720620416659583  0.5001110084604221  0.5762776388837525  1.0000
  O   O16       1.0  0.5478288546356752  0.6370762415114154  0.20229181799469134  1.0000
