data_image0
_chemical_formula_structural       Y2H36C42S4N8O22
_chemical_formula_sum              "Y2 H36 C42 S4 N8 O22"
_cell_length_a       8.05689153122758
_cell_length_b       11.618517832771172
_cell_length_c       14.3976
_cell_angle_alpha    110.6603786750836
_cell_angle_beta     101.67468305235187
_cell_angle_gamma    93.58201026449183

_space_group_name_H-M_alt    "P 1"
_space_group_IT_number       1

loop_
  _space_group_symop_operation_xyz
  'x, y, z'

loop_
  _atom_site_type_symbol
  _atom_site_label
  _atom_site_symmetry_multiplicity
  _atom_site_fract_x
  _atom_site_fract_y
  _atom_site_fract_z
  _atom_site_occupancy
  Y   Y1        1.0  0.4454058202381005  0.7659198042379315  0.9125257213816695  1.0000
  Y   Y2        1.0  0.5545946931210254  0.234078911668  0.08747438787406032  1.0000
  H   H1        1.0  0.12292256166464449  0.1148515678241395  0.4861499108863185  1.0000
  H   H2        1.0  0.8770779516944811  0.8851471480817991  0.5138446418877648  1.0000
  H   H3        1.0  0.07343480832610538  0.5919376107396914  0.8777300463769322  1.0000
  H   H4        1.0  0.9265600311444189  0.4080518068746599  0.1222674674983608  1.0000
  H   H5        1.0  0.8866867339900323  0.39304250459875323  0.7689255509076672  1.0000
  H   H6        1.0  0.11330739960058618  0.6069497025030657  0.23106781534708887  1.0000
  H   H7        1.0  0.9859181490559263  0.2412590524296476  0.6239854440049015  1.0000
  H   H8        1.0  0.014074198432894014  0.7587368739888092  0.3760053061723879  1.0000
  H   H9        1.0  0.7432623269629487  0.4362284198635463  0.5377371432391413  1.0000
  H   H10       1.0  0.2567400153020429  0.5637730855298599  0.4622632727902171  1.0000
  H   H11       1.0  0.8870722208854217  0.6567141590639807  0.6498548340642356  1.0000
  H   H12       1.0  0.1129239715861274  0.3432882761585816  0.3501472340025131  1.0000
  H   H13       1.0  0.7545641612074547  0.7815753377789675  0.7866473319237385  1.0000
  H   H14       1.0  0.24542583866659126  0.2184215184686451  0.21335244644239276  1.0000
  H   H15       1.0  0.1035666538464781  0.7827218171313532  0.1575047435826633  1.0000
  H   H16       1.0  0.8964412766989722  0.21727596894542237  0.8424987190735749  1.0000
  H   H17       1.0  0.650435844336613  0.8404037689765786  0.27977341317188115  1.0000
  H   H18       1.0  0.34956795249225786  0.1595986662459907  0.7202295159936796  1.0000
  H   H19       1.0  0.6262344707987211  0.0390509649971094  0.4146360371819283  1.0000
  H   H20       1.0  0.3737673099532941  0.9609477509088221  0.5853662992708734  1.0000
  H   H21       1.0  0.06099859421603071  0.0734081524023011  0.11589527090111319  1.0000
  H   H22       1.0  0.9390055341507588  0.9265896336744746  0.8841042884046928  1.0000
  H   H23       1.0  0.0839790283478123  0.1333542382483799  0.022307126732670195  1.0000
  H   H24       1.0  0.9160231267461826  0.8666463373158634  0.9776943924779785  1.0000
  H   H25       1.0  0.5347546233164167  0.9714083289415284  0.10750588780820887  1.0000
  H   H26       1.0  0.4652468258976724  0.0285950361101968  0.8924942620227226  1.0000
  H   H27       1.0  0.6954518012282163  0.8985459862552432  0.1282430374741779  1.0000
  H   H28       1.0  0.3045494608148828  0.1014564489673262  0.8717575209778302  1.0000
  H   H29       1.0  0.6921398812230422  0.5872689385350469  0.9287952750388654  1.0000
  H   H30       1.0  0.30786264821294645  0.4127334966875154  0.071207510610229  1.0000
  H   H31       1.0  0.6632716848594667  0.6687247623038459  0.03566236657965754  1.0000
  H   H32       1.0  0.3367259621759686  0.3312786027478793  0.9643394363824741  1.0000
  H   H33       1.0  0.18696536814303502  0.839093639692301  0.7499170976164038  1.0000
  H   H34       1.0  0.8130329847723059  0.1609069358719424  0.25008329648462535  1.0000
  H   H35       1.0  0.3503123500363543  0.7969361154767681  0.7077735938197733  1.0000
  H   H36       1.0  0.6496861900499835  0.2030653899166381  0.2922263916601722  1.0000
  C   C1        1.0  0.11062324413039448  0.528072294990686  0.8117402062131871  1.0000
  C   C2        1.0  0.8893669001105734  0.4719189822819772  0.18825452723365288  1.0000
  C   C3        1.0  0.0067195953090504  0.4141923986371481  0.7507098065194526  1.0000
  C   C4        1.0  0.9932709232739041  0.585800738293834  0.24928063688419394  1.0000
  C   C5        1.0  0.060791507502763395  0.3323479062801127  0.670572695626511  1.0000
  C   C6        1.0  0.939199385422178  0.6676470903091882  0.3294169305349826  1.0000
  C   C7        1.0  0.21676122291325575  0.367092832444385  0.65077607889436  1.0000
  C   C8        1.0  0.7832307930376529  0.6329077431198655  0.3492194302630907  1.0000
  C   C9        1.0  0.289577276543433  0.2912141239680466  0.5722083442059898  1.0000
  C   C10       1.0  0.7104165683133414  0.7087892410836787  0.4277867771648971  1.0000
  C   C11       1.0  0.44649134825595377  0.3286797302499807  0.5557923336182071  1.0000
  C   C12       1.0  0.5535052185575893  0.6713245646309076  0.4442061389655549  1.0000
  C   C13       1.0  0.5394874709460993  0.44996850533814836  0.6159078875324296  1.0000
  C   C14       1.0  0.46050726696157074  0.550033000055258  0.3840916673981098  1.0000
  C   C15       1.0  0.6919117613808651  0.49603131201922673  0.5992357864348535  1.0000
  C   C16       1.0  0.3080867787054729  0.5039701933741796  0.4007648936052988  1.0000
  C   C17       1.0  0.7705313485002987  0.6155924645309767  0.6602889356746359  1.0000
  C   C18       1.0  0.22946700441504217  0.3844081110332738  0.3397114584263932  1.0000
  C   C19       1.0  0.6969112429257152  0.6866834826703894  0.7380956239784595  1.0000
  C   C20       1.0  0.3030838265198738  0.3133133735772233  0.2619047284535441  1.0000
  C   C21       1.0  0.4720388347114336  0.5282712784306014  0.695984055664887  1.0000
  C   C22       1.0  0.5279542614613604  0.47172836730449313  0.30401617299134637  1.0000
  C   C23       1.0  0.3126126833637173  0.4862467197847237  0.7146668156673002  1.0000
  C   C24       1.0  0.6873776908523154  0.5137519961212078  0.28532936721585134  1.0000
  C   C25       1.0  0.3564229135521585  0.143409410767994  0.4449531341609897  1.0000
  C   C26       1.0  0.6435834180624909  0.8565930244545683  0.5550486929171043  1.0000
  C   C27       1.0  0.35266249511884235  0.0233349925607769  0.3639190521096296  1.0000
  C   C28       1.0  0.6473436493248172  0.9766665128326295  0.6360838781497478  1.0000
  C   C29       1.0  0.2047147067646335  0.9482351266543246  0.29080067211568655  1.0000
  C   C30       1.0  0.7952889028932473  0.0517663787390887  0.7092026656709648  1.0000
  C   C31       1.0  0.21860032852762148  0.8374859650773203  0.21441643264411436  1.0000
  C   C32       1.0  0.7814056287450413  0.1625146104869302  0.7855882953567601  1.0000
  C   C33       1.0  0.37883754846993156  0.7992467409355513  0.2113226618017521  1.0000
  C   C34       1.0  0.6211687831447177  0.20075569428701806  0.7886812489569551  1.0000
  C   C35       1.0  0.5260033218841755  0.8705125669567549  0.28350165058908056  1.0000
  C   C36       1.0  0.47400300973047377  0.1294898682658143  0.7165008710492203  1.0000
  C   C37       1.0  0.5120465035281397  0.9818335734662043  0.3583368895185899  1.0000
  C   C38       1.0  0.48795710612974114  0.0181679319272021  0.6416657537078547  1.0000
  C   C39       1.0  0.24590070413871953  0.0007234070852817  0.0330381074986548  1.0000
  C   C40       1.0  0.7540987289985137  0.9992762386498057  0.9669614496195179  1.0000
  C   C41       1.0  0.07579074485777677  0.046544458185159995  0.03705803638602839  1.0000
  C   C42       1.0  0.9242099556723387  0.9534551875499274  0.9629416642486106  1.0000
  S   S1        1.0  0.9933717899791644  0.988809151812994  0.2896847145625898  1.0000
  S   S2        1.0  0.006633087071605799  0.0111923535804124  0.7103152939395015  1.0000
  S   S3        1.0  0.39429532783459104  0.6586881863673995  0.11239261038496547  1.0000
  S   S4        1.0  0.6057160733516084  0.3413142488551699  0.8876139581202337  1.0000
  N   N1        1.0  0.2588233733982577  0.5636271023519797  0.7947887052613466  1.0000
  N   N2        1.0  0.7411691612615526  0.436369753895633  0.20520858189690472  1.0000
  N   N3        1.0  0.5536201377219641  0.6449415920886848  0.7566113080793286  1.0000
  N   N4        1.0  0.44637657345850085  0.3550571238172466  0.24338975974739435  1.0000
  N   N5        1.0  0.23477779353462577  0.1732494881213782  0.5007298284296269  1.0000
  N   N6        1.0  0.7652218267735974  0.8267510874428723  0.49926723638684933  1.0000
  N   N7        1.0  0.48712143059071167  0.23620171163676668  0.4770391143814265  1.0000
  N   N8        1.0  0.512882553409156  0.7638016534149585  0.5229620170426443  1.0000
  O   O1        1.0  0.00014639851195850194  0.1129500671950794  0.2825768926955092  1.0000
  O   O2        1.0  0.9998570239749256  0.8870505083691711  0.7174240754713992  1.0000
  O   O3        1.0  0.957656599257916  0.9902317904254402  0.38643928821544893  1.0000
  O   O4        1.0  0.04234611734906928  0.009771574626285  0.613561005131949  1.0000
  O   O5        1.0  0.8817117800816303  0.8910478439213989  0.19919523492120558  1.0000
  O   O6        1.0  0.1182941771910322  0.1089527316428516  0.8008046311582362  1.0000
  O   O7        1.0  0.2827715799697755  0.5620445331242792  0.1239926316133406  1.0000
  O   O8        1.0  0.7172508534104123  0.4379560424399713  0.8760160457822508  1.0000
  O   O9        1.0  0.3265668661505359  0.6748932489410819  0.014624856232707383  1.0000
  O   O10       1.0  0.6734380109002343  0.3251082564523244  0.9853827924316362  1.0000
  O   O11       1.0  0.5753257566055439  0.6425565802972315  0.1280600750237539  1.0000
  O   O12       1.0  0.4246894895633843  0.3574523637294433  0.8719446147270203  1.0000
  O   O13       1.0  0.2520555466138958  0.894673247810246  0.9685826565556183  1.0000
  O   O14       1.0  0.7479466084801061  0.1053273277540043  0.031414695293804605  1.0000
  O   O15       1.0  0.379710757041657  0.073953962118317  0.09691499043176321  1.0000
  O   O16       1.0  0.6202877830446807  0.9260475432750894  0.9030843004879827  1.0000
  O   O17       1.0  0.5820688183760296  0.8927057293109399  0.08273093725668458  1.0000
  O   O18       1.0  0.41792972171030834  0.1072957760824664  0.9172711319038739  1.0000
  O   O19       1.0  0.6740032186769369  0.673153538585602  0.969122192655135  1.0000
  O   O20       1.0  0.3259940540165117  0.3268479668078044  0.03087973298895722  1.0000
  O   O21       1.0  0.2992079143538432  0.8092861063594725  0.7656789883969708  1.0000
  O   O22       1.0  0.7007898770485139  0.1907116797173032  0.23431985332648958  1.0000
