data_image0
_chemical_formula_structural       Al2H14C22S2O12
_chemical_formula_sum              "Al2 H14 C22 S2 O12"
_cell_length_a       6.614343795002566
_cell_length_b       11.246272851016387
_cell_length_c       12.84744428290934
_cell_angle_alpha    67.35644166285195
_cell_angle_beta     70.89370030412985
_cell_angle_gamma    70.26940969990675

_space_group_name_H-M_alt    "P 1"
_space_group_IT_number       1

loop_
  _space_group_symop_operation_xyz
  'x, y, z'

loop_
  _atom_site_type_symbol
  _atom_site_label
  _atom_site_symmetry_multiplicity
  _atom_site_fract_x
  _atom_site_fract_y
  _atom_site_fract_z
  _atom_site_occupancy
  Al  Al1       1.0  0.49295377984908856  0.4876368328461067  0.5169661154675256  1.0000
  Al  Al2       1.0  0.9946830257601248  0.48772744642064214  0.5133567698622131  1.0000
  H   H1        1.0  0.20167656349083526  0.38714288460287344  0.6588514205929528  1.0000
  H   H2        1.0  0.7028842968759434  0.6557060312774536  0.42353676284545844  1.0000
  H   H3        1.0  0.2720967530633516  0.26284177727355745  0.35178779794922116  1.0000
  H   H4        1.0  0.6234601338980994  0.1771821592290337  0.23096760557346838  1.0000
  H   H5        1.0  0.44866231994351585  0.8086367630882305  0.32829819558237017  1.0000
  H   H6        1.0  0.7134412744335705  0.9473942481276653  0.21859048330463787  1.0000
  H   H7        1.0  0.20154744975157976  0.6741673620446562  0.7613180142613915  1.0000
  H   H8        1.0  0.05170758007052716  0.6716944627628718  0.9053948312958369  1.0000
  H   H9        1.0  0.0779620549446706  0.5416478283511879  0.8520683920844264  1.0000
  H   H10       1.0  0.924019707592663  0.43928718515702053  0.17224104340674276  1.0000
  H   H11       1.0  0.9418638025493847  0.3025071906085941  0.1298644432537941  1.0000
  H   H12       1.0  0.7974675096083601  0.31179977008882537  0.27185687280544363  1.0000
  H   H13       1.0  0.7423259592042725  0.7725430079553348  0.5686192312856946  1.0000
  H   H14       1.0  0.5556582445502656  0.19730600418916566  0.5751253872743831  1.0000
  C   C1        1.0  0.8836967259734507  0.2632292902708926  0.5056009973489424  1.0000
  C   C2        1.0  0.6243738575527472  0.46436282288551206  0.7186112805626762  1.0000
  C   C3        1.0  0.11523300325947622  0.7254850510506828  0.4942984577383952  1.0000
  C   C4        1.0  0.36816250021414737  0.5100231460400336  0.3143885374166615  1.0000
  C   C5        1.0  0.3700629798179945  0.5360940019089141  0.8949528428930263  1.0000
  C   C6        1.0  0.6263898495852872  0.4418165803251597  0.13685818697184968  1.0000
  C   C7        1.0  0.5680921556755932  0.47140407854043076  0.8363033561786538  1.0000
  C   C8        1.0  0.4271901869957729  0.5051185020305553  0.19596110958850943  1.0000
  C   C9        1.0  0.6030533637201998  0.453800934562082  0.02724930273611652  1.0000
  C   C10       1.0  0.39372725184247775  0.5245600215584574  0.004374007756105372  1.0000
  C   C11       1.0  0.9425719143946054  0.13549375312657463  0.48257306466094724  1.0000
  C   C12       1.0  0.15713905395260497  0.08358573065640937  0.41627894902823936  1.0000
  C   C13       1.0  0.7815513393388612  0.06164405340665981  0.5278363618070614  1.0000
  C   C14       1.0  0.3118200186535063  0.16192649384151278  0.34975769591819267  1.0000
  C   C15       1.0  0.509608655580621  0.11361106726269543  0.281441101051776  1.0000
  C   C16       1.0  0.05371606647491964  0.8696755484586656  0.475092356472686  1.0000
  C   C17       1.0  0.8389237071681135  0.9270554488076496  0.5252653790403061  1.0000
  C   C18       1.0  0.21115302702403935  0.9509281797333032  0.4111781356484626  1.0000
  C   C19       1.0  0.41271306414896003  0.9060231533879204  0.3377645201531436  1.0000
  C   C20       1.0  0.5604242085014378  0.9848498088075601  0.27471889968190766  1.0000
  C   C21       1.0  0.16465062918245377  0.6101682223245319  0.8510513521249267  1.0000
  C   C22       1.0  0.8327401559389144  0.3695277909273571  0.18005680570083632  1.0000
  S   S1        1.0  0.7764864633680657  0.3996871890145427  0.9128593500515407  1.0000
  S   S2        1.0  0.21909663461269  0.5771452937308296  0.11930412269155972  1.0000
  O   O1        1.0  0.6757596126406115  0.3109270065006412  0.5459220842667847  1.0000
  O   O2        1.0  0.8308138549374603  0.4357746037370944  0.6710418411044758  1.0000
  O   O3        1.0  0.9591840954216057  0.6646826819620697  0.5254261359657163  1.0000
  O   O4        1.0  0.521874561551904  0.480753660884126  0.3656997559000672  1.0000
  O   O5        1.0  0.3178948019647478  0.6649154605149761  0.4828799292764571  1.0000
  O   O6        1.0  0.16155859346619644  0.5437968127885996  0.3592709535643123  1.0000
  O   O7        1.0  0.028848449139978517  0.3224020934458736  0.49040280649857243  1.0000
  O   O8        1.0  0.467142044184506  0.48718629991348916  0.6711589492543836  1.0000
  O   O9        1.0  0.24531924631790497  0.41679096595273507  0.5748492370825887  1.0000
  O   O10       1.0  0.7370309758359497  0.5603436174579243  0.4601961015601503  1.0000
  O   O11       1.0  0.6772363169378295  0.8628136616004408  0.5790209812825751  1.0000
  O   O12       1.0  0.5724970300191001  0.10294984928576408  0.5805840382686044  1.0000
