data_image0
_chemical_formula_structural       Al4H14C32Cl2O20
_chemical_formula_sum              "Al4 H14 C32 Cl2 O20"
_cell_length_a       6.659308625649969
_cell_length_b       14.354227197826901
_cell_length_c       16.910208460713235
_cell_angle_alpha    94.38876713412964
_cell_angle_beta     89.37107753530947
_cell_angle_gamma    89.69857773118456

_space_group_name_H-M_alt    "P 1"
_space_group_IT_number       1

loop_
  _space_group_symop_operation_xyz
  'x, y, z'

loop_
  _atom_site_type_symbol
  _atom_site_label
  _atom_site_symmetry_multiplicity
  _atom_site_fract_x
  _atom_site_fract_y
  _atom_site_fract_z
  _atom_site_occupancy
  Al  Al1       1.0  0.8900511619787109  0.502118958480125  0.49804932413783837  1.0000
  Al  Al2       1.0  0.3903171242359349  0.5021992016382555  0.49837524279754336  1.0000
  Al  Al3       1.0  0.38637087531350994  0.0016797951378463927  0.9974436315627457  1.0000
  Al  Al4       1.0  0.8856788120892743  0.0041347400573386196  0.9992561399867272  1.0000
  H   H1        1.0  0.4141328519457018  0.3787520395697257  0.25953907422941574  1.0000
  H   H2        1.0  0.9011529530188582  0.7518472031154815  0.6425186591430999  1.0000
  H   H3        1.0  0.8275089570684102  0.07653596845849361  0.27170828627508575  1.0000
  H   H4        1.0  0.1768809380104699  0.7678499122219334  0.8470977576655656  1.0000
  H   H5        1.0  0.6734554507477667  0.1525858735234493  0.21923487132636413  1.0000
  H   H6        1.0  0.32710049702964733  0.690882878802519  0.9009445619916933  1.0000
  H   H7        1.0  0.8202372489001989  0.19255433767322933  0.39083147362860876  1.0000
  H   H8        1.0  0.16413313795102621  0.6459794368032092  0.732486969879318  1.0000
  H   H9        1.0  0.6713758391143188  0.2703194732891204  0.33810998973157075  1.0000
  H   H10       1.0  0.31826295181102887  0.5703689043585527  0.7852313934010411  1.0000
  H   H11       1.0  0.6398546486048103  0.38209833197021226  0.5145229508285213  1.0000
  H   H12       1.0  0.1405031688686549  0.6244360889847937  0.4884968212320473  1.0000
  H   H13       1.0  0.6289146497251323  0.1217075582910141  0.02948400245195871  1.0000
  H   H14       1.0  0.13354710419714172  0.8807295921163318  0.978241273475078  1.0000
  C   C1        1.0  0.6496449468163731  0.6097531896751462  0.3960632149418403  1.0000
  C   C2        1.0  0.13026741157536037  0.3941003464656562  0.6000437114653324  1.0000
  C   C3        1.0  0.6277778278637031  0.6160274003485071  0.6096578436776313  1.0000
  C   C4        1.0  0.15224865438550242  0.3913941507061196  0.38497874822635947  1.0000
  C   C5        1.0  0.9899195655142635  0.2624221509663016  0.29876622185799556  1.0000
  C   C6        1.0  0.48444368055802306  0.6885627108619802  0.7396158181292949  1.0000
  C   C7        1.0  0.1434307791942544  0.32700556393756847  0.31204248090736547  1.0000
  C   C8        1.0  0.6310358643296184  0.6847017884029968  0.6800058527911261  1.0000
  C   C9        1.0  0.29387790987261303  0.3276825610196568  0.2528658461551531  1.0000
  C   C10       1.0  0.7849871619702001  0.7514761009065012  0.6883738255081796  1.0000
  C   C11       1.0  0.2909476897611469  0.2651964417677206  0.185390521581418  1.0000
  C   C12       1.0  0.7904507606088275  0.8184699120847156  0.7528739956359233  1.0000
  C   C13       1.0  0.1398452305232496  0.1963381883141864  0.1733707963320086  1.0000
  C   C14       1.0  0.6425800181312767  0.8221065202576768  0.8140625206527972  1.0000
  C   C15       1.0  0.9903479783433512  0.19900949517546  0.23192682320670602  1.0000
  C   C16       1.0  0.4917268161099955  0.7552108837001371  0.8040154990564404  1.0000
  C   C17       1.0  0.8030083019391228  0.14948816909292623  0.2585187650381614  1.0000
  C   C18       1.0  0.30416212548502847  0.7187311432034632  0.8429030662965433  1.0000
  C   C19       1.0  0.8010354644831991  0.22253231943760446  0.33348718844181496  1.0000
  C   C20       1.0  0.29701850784216793  0.6428264536971684  0.7700556288755251  1.0000
  C   C21       1.0  0.136212477840246  0.16809885372208558  0.8286817815975668  1.0000
  C   C22       1.0  0.6349726750741028  0.8353690594426695  0.16710078591718516  1.0000
  C   C23       1.0  0.13642127772727972  0.2201229922129855  0.7747146075819418  1.0000
  C   C24       1.0  0.636446917140873  0.78310037640275  0.22091924290920423  1.0000
  C   C25       1.0  0.1357761718497912  0.2781912247151013  0.7156231225729855  1.0000
  C   C26       1.0  0.6397014682135022  0.7250887569796375  0.2800363911036143  1.0000
  C   C27       1.0  0.1343857396651558  0.3313481348933038  0.6624512531277276  1.0000
  C   C28       1.0  0.6442412658612469  0.6721896196878276  0.33335829289040225  1.0000
  C   C29       1.0  0.6393571231635847  0.8892663473903255  0.8856774833098485  1.0000
  C   C30       1.0  0.13914469487272643  0.12227488848745341  0.10681310851981611  1.0000
  C   C31       1.0  0.6382941771349878  0.8956252338499198  0.10247261505816141  1.0000
  C   C32       1.0  0.1333069970958078  0.10876569143043473  0.8939153356200509  1.0000
  Cl  Cl1       1.0  0.47691958329592415  0.27919236533509917  0.11415216515723611  1.0000
  Cl  Cl2       1.0  0.9812112561068319  0.9002595968742924  0.7525159471970398  1.0000
  O   O1        1.0  0.459439785607664  0.5782033180779536  0.5927187312477146  1.0000
  O   O2        1.0  0.9885977844416302  0.4037705517850442  0.42445071701054365  1.0000
  O   O3        1.0  0.8192967197430717  0.5736946794538865  0.41009849991306885  1.0000
  O   O4        1.0  0.2961744369976387  0.4072882255179877  0.564438943651396  1.0000
  O   O5        1.0  0.792196354551578  0.6015497579861843  0.5710593564732209  1.0000
  O   O6        1.0  0.32144345375662203  0.4272910149150917  0.4034230182103329  1.0000
  O   O7        1.0  0.960597271655601  0.430074045601664  0.5857282949295738  1.0000
  O   O8        1.0  0.48431940060000767  0.5969972110150863  0.43215233344281506  1.0000
  O   O9        1.0  0.640842598493478  0.4441071568760789  0.4955311608672091  1.0000
  O   O10       1.0  0.13946457526758138  0.5597986466373683  0.5012283079538947  1.0000
  O   O11       1.0  0.8100150678753053  0.9258078929564063  0.08344280663221333  1.0000
  O   O12       1.0  0.3026123673087895  0.09040988144176508  0.9232577167545061  1.0000
  O   O13       1.0  0.46620877169560515  0.9182497871518933  0.9093943462772601  1.0000
  O   O14       1.0  0.9687986713677433  0.09922029053781499  0.07810042852231192  1.0000
  O   O15       1.0  0.4701836681781587  0.9113035409295308  0.07091793154193482  1.0000
  O   O16       1.0  0.9611459975133414  0.08224983685139618  0.9158536658620946  1.0000
  O   O17       1.0  0.30730864979501143  0.0862631625663823  0.08510133709649641  1.0000
  O   O18       1.0  0.8044073105121328  0.9098708316126008  0.9195641562380318  1.0000
  O   O19       1.0  0.6343444646429434  0.059514200751422684  0.0024768169105727  1.0000
  O   O20       1.0  0.13571879113776927  0.9465106623390156  0.9958766255289291  1.0000
