data_image0
_chemical_formula_structural       Cu6H30W2C30Se6I2N6O2
_chemical_formula_sum              "Cu6 H30 W2 C30 Se6 I2 N6 O2"
_cell_length_a       8.19648373166027
_cell_length_b       8.679816837544845
_cell_length_c       15.56708223846316
_cell_angle_alpha    103.09513672667319
_cell_angle_beta     97.92566100175894
_cell_angle_gamma    95.53775353123196

_space_group_name_H-M_alt    "P 1"
_space_group_IT_number       1

loop_
  _space_group_symop_operation_xyz
  'x, y, z'

loop_
  _atom_site_type_symbol
  _atom_site_label
  _atom_site_symmetry_multiplicity
  _atom_site_fract_x
  _atom_site_fract_y
  _atom_site_fract_z
  _atom_site_occupancy
  Cu  Cu1       1.0  0.8346089986492585  0.9428090579696545  0.7244101817537543  1.0000
  Cu  Cu2       1.0  0.1653903076652341  0.057197494680949014  0.27559572432092244  1.0000
  Cu  Cu3       1.0  0.3062906155346212  0.9156854445589105  0.7334779679182333  1.0000
  Cu  Cu4       1.0  0.6937077246473322  0.08431392512540732  0.2665211873683972  1.0000
  Cu  Cu5       1.0  0.15449554513562444  0.10939375712730742  0.9494945609962502  1.0000
  Cu  Cu6       1.0  0.8455091264788946  0.8906068503153719  0.05050905979933868  1.0000
  H   H1        1.0  0.8407584427458091  0.9972456619180152  0.5453326930229708  1.0000
  H   H2        1.0  0.15923371866781366  0.0027441681244156006  0.45467253075938885  1.0000
  H   H3        1.0  0.7941889537001714  0.2169970240069219  0.4690291273245536  1.0000
  H   H4        1.0  0.20580454822587063  0.7829844413848832  0.5309693638432764  1.0000
  H   H5        1.0  0.7420925665203199  0.4820759939047079  0.560959345815178  1.0000
  H   H6        1.0  0.2579081815998236  0.5179138134489065  0.43903043421106963  1.0000
  H   H7        1.0  0.7436752206400354  0.5133359088517581  0.7247778732042536  1.0000
  H   H8        1.0  0.25632774533251984  0.4866706028603005  0.275213516607586  1.0000
  H   H9        1.0  0.7922927598559325  0.2811400137789022  0.7904889076384052  1.0000
  H   H10       1.0  0.20770238557801687  0.7188724467198925  0.20950844530215565  1.0000
  H   H11       1.0  0.4457985155472953  0.054948541975591104  0.5945328025691695  1.0000
  H   H12       1.0  0.5541989058025151  0.9450532034943322  0.4054652993401647  1.0000
  H   H13       1.0  0.39547676862233055  0.2814988261034727  0.523422547459589  1.0000
  H   H14       1.0  0.6045194217939313  0.7185029160743924  0.47657610773335807  1.0000
  H   H15       1.0  0.22459968485933504  0.48792128269915486  0.5944793280530619  1.0000
  H   H16       1.0  0.7754003701510042  0.5120816830307431  0.40552297075427657  1.0000
  H   H17       1.0  0.11494136140401422  0.4563743248643775  0.7329074097040478  1.0000
  H   H18       1.0  0.8850671648618019  0.5436274908859106  0.2670959977823344  1.0000
  H   H19       1.0  0.16969674914419386  0.2175801393965742  0.7918675128172982  1.0000
  H   H20       1.0  0.8303117754644943  0.7824216738129837  0.20813525184848203  1.0000
  H   H21       1.0  0.1144313135373949  0.4322529152991876  0.9255781790753732  1.0000
  H   H22       1.0  0.8855676300610397  0.5677416944403786  0.07442235060826617  1.0000
  H   H23       1.0  0.25820168879486977  0.7046296613107899  0.9956436594572653  1.0000
  H   H24       1.0  0.7417974100256968  0.2953661366972469  0.004355745485625592  1.0000
  H   H25       1.0  0.4778763168434351  0.7490759424615305  0.1322584665065563  1.0000
  H   H26       1.0  0.5221251226654573  0.25092821228815865  0.8677415114558118  1.0000
  H   H27       1.0  0.5374725351414398  0.5093728462973176  0.19316737269030437  1.0000
  H   H28       1.0  0.4625301369581294  0.4906313142851674  0.806832694809046  1.0000
  H   H29       1.0  0.3851963798294236  0.2438936033234995  0.11438087654543243  1.0000
  H   H30       1.0  0.6148084470072277  0.7561081923876571  0.8856216195094008  1.0000
  W   W1        1.0  0.0623183753988243  0.8193872190923273  0.8295374472955717  1.0000
  W   W2        1.0  0.9376825918151398  0.18061336068900863  0.17046333360666213  1.0000
  C   C1        1.0  0.8184270609605733  0.11362974563449062  0.5824172712989437  1.0000
  C   C2        1.0  0.18156540592593023  0.8863624533226684  0.4175837745400984  1.0000
  C   C3        1.0  0.7930444053183336  0.2368074006151843  0.540579337644765  1.0000
  C   C4        1.0  0.2069526665724482  0.763182422269601  0.4594185304383275  1.0000
  C   C5        1.0  0.7646938946235408  0.38312477854690746  0.5914187517483855  1.0000
  C   C6        1.0  0.23530562753443723  0.6168650331368469  0.40857351002328113  1.0000
  C   C7        1.0  0.7643217083094882  0.401015704242937  0.6825856352370965  1.0000
  C   C8        1.0  0.23567693568822523  0.5989860318153718  0.3174086992856219  1.0000
  C   C9        1.0  0.7904840061564401  0.27211814057277195  0.7194496679367647  1.0000
  C   C10       1.0  0.20951405099608414  0.7278883808376619  0.2805497203949301  1.0000
  C   C11       1.0  0.37140077180134057  0.14619249736534806  0.621971856647541  1.0000
  C   C12       1.0  0.6285991180440862  0.8538092648516625  0.378027709976955  1.0000
  C   C13       1.0  0.34305076709348725  0.27277680404678517  0.5831495612830225  1.0000
  C   C14       1.0  0.656948052011913  0.7272261507688357  0.41685136234612946  1.0000
  C   C15       1.0  0.24867229386780557  0.3863128043161623  0.6223029547735524  1.0000
  C   C16       1.0  0.7513289887618199  0.6136901596243192  0.3776975051089694  1.0000
  C   C17       1.0  0.1870056117149943  0.369382140907078  0.6992959155774516  1.0000
  C   C18       1.0  0.8129993753151864  0.6306208506947542  0.300707384198418  1.0000
  C   C19       1.0  0.2183575663612345  0.23770874993142846  0.7328181436307305  1.0000
  C   C20       1.0  0.7816483312154431  0.7622918531811111  0.2671829954194394  1.0000
  C   C21       1.0  0.21014104948242357  0.4532436924275913  0.9844311606261517  1.0000
  C   C22       1.0  0.789858206217417  0.5467532963896461  0.015567762396578583  1.0000
  C   C23       1.0  0.29061074460553726  0.6064905005565961  0.0245492573581956  1.0000
  C   C24       1.0  0.7093902259226823  0.3935100843062145  0.9754528091852421  1.0000
  C   C25       1.0  0.41182607250708264  0.6301175402281916  0.10018302357414655  1.0000
  C   C26       1.0  0.5881761256404302  0.3698830428452099  0.8998172040444744  1.0000
  C   C27       1.0  0.4458075322498801  0.49849893334996415  0.1337512482607579  1.0000
  C   C28       1.0  0.554193590186223  0.5015028346998348  0.8662484079007202  1.0000
  C   C29       1.0  0.36120186870274296  0.348973925578875  0.08997584462109393  1.0000
  C   C30       1.0  0.6387963179141993  0.651024258377717  0.9100250782268946  1.0000
  Se  Se1       1.0  0.030422460619767798  0.7715946914458415  0.6695137314892889  1.0000
  Se  Se2       1.0  0.9695756015041397  0.2284118375868047  0.3304875853042121  1.0000
  Se  Se3       1.0  0.8749019573571744  0.0055809308028145  0.8858542595752754  1.0000
  Se  Se4       1.0  0.12509838399684978  0.994414888282442  0.11414909182818889  1.0000
  Se  Se5       1.0  0.34488704842844004  0.9400902596826343  0.8927835714251489  1.0000
  Se  Se6       1.0  0.6551140723505355  0.0599115058264346  0.10721544191573433  1.0000
  I   I1        1.0  0.5357927176507643  0.7640205690785109  0.6661987497446945  1.0000
  I   I2        1.0  0.46420717219465496  0.2359811931384996  0.33380081687980123  1.0000
  N   N1        1.0  0.8157500924877965  0.12958730819221392  0.670457362282342  1.0000
  N   N2        1.0  0.18424411829906256  0.8704180176142983  0.32954545346156294  1.0000
  N   N3        1.0  0.3086622216781052  0.12688519538475873  0.6950908349847256  1.0000
  N   N4        1.0  0.6913402918850692  0.873117771847788  0.30490907161418335  1.0000
  N   N5        1.0  0.24623277932396803  0.3254144944192064  0.015679359308592204  1.0000
  N   N6        1.0  0.7537694221378004  0.6745860937356696  0.9843221539512259  1.0000
  O   O1        1.0  0.020696936224020118  0.6380708402375178  0.8572380592241731  1.0000
  O   O2        1.0  0.9793075652541956  0.3619285560700689  0.1427609009267741  1.0000
