data_image0
_chemical_formula_structural       Th2H24C12S4N4O24
_chemical_formula_sum              "Th2 H24 C12 S4 N4 O24"
_cell_length_a       6.880396727285628
_cell_length_b       10.570710678211624
_cell_length_c       10.689840905068163
_cell_angle_alpha    74.21521308569216
_cell_angle_beta     81.99134664414956
_cell_angle_gamma    76.64686587461048

_space_group_name_H-M_alt    "P 1"
_space_group_IT_number       1

loop_
  _space_group_symop_operation_xyz
  'x, y, z'

loop_
  _atom_site_type_symbol
  _atom_site_label
  _atom_site_symmetry_multiplicity
  _atom_site_fract_x
  _atom_site_fract_y
  _atom_site_fract_z
  _atom_site_occupancy
  Th  Th1       1.0  0.25179287603869227  0.3360804378585485  0.7115678050874408  1.0000
  Th  Th2       1.0  0.7482066923119175  0.6639223388259056  0.28843175341641114  1.0000
  H   H1        1.0  0.42481421648161427  0.4193843895692453  0.36449441548160183  1.0000
  H   H2        1.0  0.5751919474879513  0.5806152482169936  0.6355006789928695  1.0000
  H   H3        1.0  0.46423114157862216  0.3422440976984831  0.16160604511936338  1.0000
  H   H4        1.0  0.5357822961070794  0.6577504466862649  0.8383897468388499  1.0000
  H   H5        1.0  0.3878839604960476  0.11669164930123797  0.17321208610638192  1.0000
  H   H6        1.0  0.6121092491104176  0.8833071642597186  0.826785497465501  1.0000
  H   H7        1.0  0.27056073985279006  0.98193996115603  0.3875420189537238  1.0000
  H   H8        1.0  0.7294263519019066  0.018059952264231103  0.6124577489233121  1.0000
  H   H9        1.0  0.12795525799992194  0.8913274340283691  0.737012688045681  1.0000
  H   H10       1.0  0.872040861797856  0.1086774086562272  0.2629885097105742  1.0000
  H   H11       1.0  0.17373691935440408  0.893433854787858  0.572564093306788  1.0000
  H   H12       1.0  0.8262597888873983  0.10656291390687037  0.4274337113220242  1.0000
  H   H13       1.0  0.5733666772062662  0.15994668629254247  0.915984251131768  1.0000
  H   H14       1.0  0.4266310511818004  0.840052113243985  0.08401661853449845  1.0000
  H   H15       1.0  0.3734005205336998  0.1033237669345297  0.9474875134204979  1.0000
  H   H16       1.0  0.6265986556853275  0.8966750032709497  0.052512281249669134  1.0000
  H   H17       1.0  0.32408428167673253  0.47350846182765594  0.9216949782082936  1.0000
  H   H18       1.0  0.6759172969158911  0.5264873208744801  0.07830915834878031  1.0000
  H   H19       1.0  0.5293961753766181  0.36953829546720834  0.8991374080795468  1.0000
  H   H20       1.0  0.4706060217105588  0.6304604689109611  0.10086488737176319  1.0000
  H   H21       1.0  0.06622657144880144  0.6218660572212044  0.7755010135092635  1.0000
  H   H22       1.0  0.9337780685743481  0.3781346981007517  0.224502341828746  1.0000
  H   H23       1.0  0.9336025289067462  0.5147788980699417  0.8430327240181086  1.0000
  H   H24       1.0  0.06640238756187235  0.48522085358299455  0.1569708866897912  1.0000
  C   C1        1.0  0.39049870262774516  0.3235361063073654  0.3665912773054103  1.0000
  C   C2        1.0  0.6095030677664608  0.6764635983380956  0.6334051818480192  1.0000
  C   C3        1.0  0.4130137171051372  0.27932530287479546  0.2529511113036876  1.0000
  C   C4        1.0  0.5869924313433045  0.7206693670312633  0.7470481953256681  1.0000
  C   C5        1.0  0.36926509115969697  0.1556476854498996  0.2593673181253068  1.0000
  C   C6        1.0  0.6307325871458714  0.8443510929527134  0.7406316912316272  1.0000
  C   C7        1.0  0.3045001426386448  0.07973604454285523  0.3797056261977616  1.0000
  C   C8        1.0  0.6954966312067795  0.9202657131659677  0.6202898265854987  1.0000
  C   C9        1.0  0.2852017891112267  0.13146626245088563  0.48876859386356136  1.0000
  C   C10       1.0  0.7147954770307832  0.868539544004733  0.5112303433720485  1.0000
  C   C11       1.0  0.21716389500236483  0.06029559912985861  0.6226801769697661  1.0000
  C   C12       1.0  0.7828248909782187  0.9396922256244264  0.3773172192593891  1.0000
  S   S1        1.0  0.8727947637172376  0.29792742661427235  0.0035364557272644227  1.0000
  S   S2        1.0  0.12720066246223635  0.7020744026934197  0.9964637926707597  1.0000
  S   S3        1.0  0.7811469413474297  0.34349655543775276  0.5575861189538642  1.0000
  S   S4        1.0  0.2188496562175216  0.6565062482079186  0.44241279907817704  1.0000
  N   N1        1.0  0.3276909834931487  0.25169461485513983  0.4830425962704794  1.0000
  N   N2        1.0  0.6723122597732639  0.7483050710262303  0.5169537180415205  1.0000
  N   N3        1.0  0.16538151941669801  0.9435785405906641  0.6434859314024878  1.0000
  N   N4        1.0  0.8346196425015078  0.05644027257665133  0.35651361259073877  1.0000
  O   O1        1.0  0.21318340013205264  0.1148692154322219  0.7156321034690905  1.0000
  O   O2        1.0  0.786812166774787  0.8851376345904287  0.2843685835473834  1.0000
  O   O3        1.0  0.4705575160337928  0.13408592112741496  0.876642718206199  1.0000
  O   O4        1.0  0.5294416852264873  0.8659128596450216  0.12335800661863772  1.0000
  O   O5        1.0  0.4068003691784198  0.4247358812223465  0.8576004486067107  1.0000
  O   O6        1.0  0.5932000785910884  0.5752639055889334  0.1424017363161383  1.0000
  O   O7        1.0  0.03147684503382216  0.5395094491886211  0.7660212630200577  1.0000
  O   O8        1.0  0.9685262970758755  0.4604913143304686  0.23398130700471143  1.0000
  O   O9        1.0  0.054838267006616086  0.2658916509816507  0.9128121253816417  1.0000
  O   O10       1.0  0.9451704901464235  0.7341100411501175  0.08718960990752582  1.0000
  O   O11       1.0  0.8016547110336202  0.4476683358603424  0.9706571735654562  1.0000
  O   O12       1.0  0.19834733481434338  0.5523314850216393  0.029349517289290437  1.0000
  O   O13       1.0  0.7109140813174546  0.23621286092254218  0.9833203475861012  1.0000
  O   O14       1.0  0.2890921577758616  0.7637868085645678  0.016677537352372027  1.0000
  O   O15       1.0  0.9289376401355082  0.24925324900526394  0.13914989137263942  1.0000
  O   O16       1.0  0.07106338556618394  0.7507445410349264  0.8608537344446532  1.0000
  O   O17       1.0  0.9336148982017105  0.3655697436628031  0.6312362532669553  1.0000
  O   O18       1.0  0.06638492155311575  0.6344320187856668  0.3687626304521173  1.0000
  O   O19       1.0  0.6052084970328263  0.31375037575281794  0.6511598763156529  1.0000
  O   O20       1.0  0.39479070422744644  0.6862484050196187  0.3488408485091838  1.0000
  O   O21       1.0  0.71378414651447  0.47265996595143644  0.45964855745181415  1.0000
  O   O22       1.0  0.2862143360862531  0.5273357908771389  0.5403502878601217  1.0000
  O   O23       1.0  0.8609535697134161  0.23450180469470172  0.49435042187696615  1.0000
  O   O24       1.0  0.1390481851596802  0.7654929320705861  0.5056502494313335  1.0000
