data_image0
_chemical_formula_structural       Zr6H4C48Cl24O32
_chemical_formula_sum              "Zr6 H4 C48 Cl24 O32"
_cell_length_a       15.039500605458494
_cell_length_b       15.039569448638066
_cell_length_c       15.039497801718102
_cell_angle_alpha    59.99982347253126
_cell_angle_beta     60.00031166868581
_cell_angle_gamma    59.999812310828084

_space_group_name_H-M_alt    "P 1"
_space_group_IT_number       1

loop_
  _space_group_symop_operation_xyz
  'x, y, z'

loop_
  _atom_site_type_symbol
  _atom_site_label
  _atom_site_symmetry_multiplicity
  _atom_site_fract_x
  _atom_site_fract_y
  _atom_site_fract_z
  _atom_site_occupancy
  Zr  Zr1       1.0  0.8821946374740365  0.882191226645325  0.6178063622630461  1.0000
  Zr  Zr2       1.0  0.1178108473691637  0.11780740357654203  0.38219186255568627  1.0000
  Zr  Zr3       1.0  0.11780222551351469  0.8822004545367078  0.61780046757832  1.0000
  Zr  Zr4       1.0  0.8822027068473232  0.11779895304393023  0.3821967180081387  1.0000
  Zr  Zr5       1.0  0.11780939376191683  0.8821912830605708  0.3821900323515879  1.0000
  Zr  Zr6       1.0  0.8821943773638097  0.11780829310414731  0.6178089602374399  1.0000
  H   H1        1.0  0.09248336881703531  0.7225496977888921  0.5924815206164028  1.0000
  H   H2        1.0  0.09248756873406452  0.09248191074743767  0.2225481608181283  1.0000
  H   H3        1.0  0.09248382631112409  0.09248656024911382  0.5924805660794377  1.0000
  H   H4        1.0  0.7225503197306297  0.09248236054497021  0.5924856861769143  1.0000
  C   C1        1.0  0.9973540890087449  0.7017929633973309  0.4973484969399636  1.0000
  C   C2        1.0  0.30350598953724994  0.9973512905133857  0.20179180644277744  1.0000
  C   C3        1.0  0.9973543800167449  0.3035050384883035  0.4973490195814064  1.0000
  C   C4        1.0  0.7017944936529616  0.9973514237804505  0.8035047497694521  1.0000
  C   C5        1.0  0.997356359320648  0.7017896141053367  0.8035028271794076  1.0000
  C   C6        1.0  0.7017925139500462  0.997352404014492  0.49735168363832105  1.0000
  C   C7        1.0  0.9973544529281924  0.3035053092558754  0.2017885175462055  1.0000
  C   C8        1.0  0.303506066065566  0.9973524990023743  0.4973531228308943  1.0000
  C   C9        1.0  0.30350570953813616  0.7017903279046961  0.4973520480684641  1.0000
  C   C10       1.0  0.9973572121672095  0.9973522815350788  0.8035020949359791  1.0000
  C   C11       1.0  0.7017912680384344  0.3035051170966268  0.4973519458636487  1.0000
  C   C12       1.0  0.9973563541772426  0.9973532515099702  0.20178775899604784  1.0000
  C   C13       1.0  0.9983155209262761  0.4043786507310752  0.4983118902176144  1.0000
  C   C14       1.0  0.9983157504040606  0.598994930525329  0.49831156783657343  1.0000
  C   C15       1.0  0.0789324879655667  0.45380700262408163  0.4190054941398671  1.0000
  C   C16       1.0  0.9190079535824653  0.5482557329950591  0.5789284617878961  1.0000
  C   C17       1.0  0.07893342836754873  0.5482548474737854  0.4190048115056584  1.0000
  C   C18       1.0  0.9190089983498667  0.45380721364930576  0.5789286481038758  1.0000
  C   C19       1.0  0.40437862306377825  0.9983141646317931  0.09899371235047749  1.0000
  C   C20       1.0  0.5989956399651817  0.9983135419246093  0.904378934197652  1.0000
  C   C21       1.0  0.4538074587638335  0.0789315283454001  0.048255211019714674  1.0000
  C   C22       1.0  0.5482562803535628  0.9190068461316939  0.9538069646322073  1.0000
  C   C23       1.0  0.5482565513365785  0.07893207579014207  0.9538063900605779  1.0000
  C   C24       1.0  0.4538085080342287  0.9190062891070453  0.04825528926981097  1.0000
  C   C25       1.0  0.9983157140802988  0.9983151186983145  0.9043780527720742  1.0000
  C   C26       1.0  0.9983203287078624  0.9983115619283394  0.09899166722802008  1.0000
  C   C27       1.0  0.9190083798654456  0.07893299133254303  0.9538061323097085  1.0000
  C   C28       1.0  0.07893507551427349  0.9190062680287028  0.04825319227558822  1.0000
  C   C29       1.0  0.9190096499775676  0.0789323778021539  0.048253203725891924  1.0000
  C   C30       1.0  0.07893447031812433  0.9190062166429411  0.9538061208627012  1.0000
  C   C31       1.0  0.40438089962986384  0.5989937494573565  0.49831054187784235  1.0000
  C   C32       1.0  0.5989940415517554  0.40437965816096266  0.49831566444743197  1.0000
  C   C33       1.0  0.45381000729199883  0.5482540254719906  0.4190046051790972  1.0000
  C   C34       1.0  0.5482564390561038  0.45380689714196615  0.5789322949904091  1.0000
  C   C35       1.0  0.5482556278329511  0.4538063022805474  0.4190063379159668  1.0000
  C   C36       1.0  0.4538082904419412  0.5482547519358576  0.5789305156676293  1.0000
  C   C37       1.0  0.9983173920384376  0.4043803930099938  0.09899232419485322  1.0000
  C   C38       1.0  0.9983149933660372  0.5989929072547182  0.9043780227702598  1.0000
  C   C39       1.0  0.9190086533979739  0.4538080098388445  0.048253983531075996  1.0000
  C   C40       1.0  0.07893429165947213  0.5482558595507354  0.9538059149108236  1.0000
  C   C41       1.0  0.91900844569998  0.5482552604091847  0.9538056865798482  1.0000
  C   C42       1.0  0.07893384402002117  0.45380795364415855  0.04825470818688161  1.0000
  C   C43       1.0  0.4043822852600984  0.9983152959848097  0.4983105718829537  1.0000
  C   C44       1.0  0.5989953769373104  0.9983118854647939  0.4983147360219321  1.0000
  C   C45       1.0  0.453809002425885  0.9190069721740597  0.5789307681955195  1.0000
  C   C46       1.0  0.5482567834308512  0.07893082924802994  0.4190068687918185  1.0000
  C   C47       1.0  0.548255853977807  0.9190047247743531  0.5789330824065076  1.0000
  C   C48       1.0  0.45381006346961067  0.07893054858560318  0.41900450800812183  1.0000
  Cl  Cl1       1.0  0.18262440065193186  0.40336811811364714  0.31777676531211796  1.0000
  Cl  Cl2       1.0  0.8177771306883058  0.5962339748253312  0.682618541660105  1.0000
  Cl  Cl3       1.0  0.18262402306617542  0.5962324099645427  0.3177765606393308  1.0000
  Cl  Cl4       1.0  0.8177803173777181  0.4033685025664153  0.6826195606990026  1.0000
  Cl  Cl5       1.0  0.4033695517143342  0.1826217861491912  0.0962320369678622  1.0000
  Cl  Cl6       1.0  0.596234970346629  0.8177764440693877  0.9033693305503335  1.0000
  Cl  Cl7       1.0  0.5962330872097399  0.18262172170147284  0.9033677392065229  1.0000
  Cl  Cl8       1.0  0.4033708823688613  0.817777285875877  0.09623258907940624  1.0000
  Cl  Cl9       1.0  0.8177797868584448  0.18261870599879856  0.9033668930876148  1.0000
  Cl  Cl10      1.0  0.18262266364457277  0.8177768900823847  0.09623480206003181  1.0000
  Cl  Cl11      1.0  0.8177766907616474  0.182623413420252  0.09622909689495175  1.0000
  Cl  Cl12      1.0  0.18262454234303505  0.8177736249358459  0.9033715590171241  1.0000
  Cl  Cl13      1.0  0.4033689733738229  0.5962348566479321  0.317777193880339  1.0000
  Cl  Cl14      1.0  0.5962362403867516  0.4033674917905755  0.6826185532492274  1.0000
  Cl  Cl15      1.0  0.5962325816127602  0.40337002004405054  0.31777525803960327  1.0000
  Cl  Cl16      1.0  0.4033735685157043  0.5962319349251145  0.6826207605453334  1.0000
  Cl  Cl17      1.0  0.8177773945194887  0.40337124901651555  0.09622917772590973  1.0000
  Cl  Cl18      1.0  0.18262512956592775  0.5962305145232207  0.9033706581942907  1.0000
  Cl  Cl19      1.0  0.8177811330964321  0.5962345131763978  0.903364512487812  1.0000
  Cl  Cl20      1.0  0.18262099752492847  0.4033681867262969  0.09623559488116482  1.0000
  Cl  Cl21      1.0  0.40337208193108165  0.8177768056210082  0.6826232434946675  1.0000
  Cl  Cl22      1.0  0.5962328046442665  0.18262311123082495  0.31777495233589553  1.0000
  Cl  Cl23      1.0  0.5962365108255271  0.8177774590978755  0.6826211495604613  1.0000
  Cl  Cl24      1.0  0.4033699496060594  0.1826187123021653  0.3177759604750179  1.0000
  O   O1        1.0  0.922802525690514  0.7420784900298685  0.5717749410891386  1.0000
  O   O2        1.0  0.2633462958110043  0.07177611505805712  0.24207860285059724  1.0000
  O   O3        1.0  0.0717802383919732  0.2633449124753183  0.42279762129840043  1.0000
  O   O4        1.0  0.7420802989305101  0.9228001215183494  0.7633445166125269  1.0000
  O   O5        1.0  0.0717809603070449  0.7420757240107035  0.7633443706654078  1.0000
  O   O6        1.0  0.742078318860159  0.07177660502266986  0.422798613194047  1.0000
  O   O7        1.0  0.922802343847998  0.2633467838847209  0.24207327396938882  1.0000
  O   O8        1.0  0.26334768922409774  0.9228004796019532  0.5717770741118144  1.0000
  O   O9        1.0  0.26334552377450393  0.7420790564180632  0.42279722881406917  1.0000
  O   O10       1.0  0.9228016555237417  0.07177828613416873  0.7633428243062569  1.0000
  O   O11       1.0  0.7420802307066977  0.26334383571615644  0.5717792080775155  1.0000
  O   O12       1.0  0.07178250130141366  0.9227976834544332  0.2420774598850812  1.0000
  O   O13       1.0  0.0717812617160761  0.9228007130038804  0.763344115797473  1.0000
  O   O14       1.0  0.7420779827806143  0.26334701763600776  0.4227998756887388  1.0000
  O   O15       1.0  0.9228029883856196  0.0717780095321173  0.24207413650864842  1.0000
  O   O16       1.0  0.26334710678461454  0.7420765394143557  0.5717765611995559  1.0000
  O   O17       1.0  0.9228010896312356  0.7420791913618383  0.7633430634217577  1.0000
  O   O18       1.0  0.26334558376934314  0.07177897511071754  0.4227983003763073  1.0000
  O   O19       1.0  0.07178094085509197  0.2633433726750383  0.24207742744457045  1.0000
  O   O20       1.0  0.7420809767972755  0.9227973321551345  0.5717784261618205  1.0000
  O   O21       1.0  0.7420810871607415  0.07177741069587985  0.7633440826128535  1.0000
  O   O22       1.0  0.07177815369231405  0.742080199347022  0.4227969159341072  1.0000
  O   O23       1.0  0.26334616291821106  0.9227994812167704  0.24207854052544767  1.0000
  O   O24       1.0  0.9228031215399142  0.2633443739862784  0.5717743357658022  1.0000
  O   O25       1.0  0.8015235843506829  0.06616086134032864  0.5661555259823601  1.0000
  O   O26       1.0  0.0661626243980179  0.06615654499896101  0.5661593012722009  1.0000
  O   O27       1.0  0.06615868211318345  0.0661604806050491  0.3015209154194665  1.0000
  O   O28       1.0  0.06616217790035972  0.8015219678900181  0.5661596946986336  1.0000
  O   O29       1.0  0.1461331162851139  0.9512865443025972  0.45129595090701  1.0000
  O   O30       1.0  0.9512864139666992  0.9512972788137614  0.4512850163400229  1.0000
  O   O31       1.0  0.9512880655928697  0.1461318224484529  0.45128403954068125  1.0000
  O   O32       1.0  0.9512989873161004  0.9512853612212876  0.6461303300410111  1.0000
