data_image0
_chemical_formula_structural       Al2H14C22N4O10F2
_chemical_formula_sum              "Al2 H14 C22 N4 O10 F2"
_cell_length_a       6.671668372551031
_cell_length_b       11.155422272967318
_cell_length_c       16.879546864040893
_cell_angle_alpha    78.3257440040647
_cell_angle_beta     83.72437671152109
_cell_angle_gamma    73.15163105755124

_space_group_name_H-M_alt    "P 1"
_space_group_IT_number       1

loop_
  _space_group_symop_operation_xyz
  'x, y, z'

loop_
  _atom_site_type_symbol
  _atom_site_label
  _atom_site_symmetry_multiplicity
  _atom_site_fract_x
  _atom_site_fract_y
  _atom_site_fract_z
  _atom_site_occupancy
  Al  Al1       1.0  0.49624000772382715  0.5020607436925815  0.4998872817420618  1.0000
  Al  Al2       1.0  0.9947995245652592  0.5050977585945732  0.5006339169074822  1.0000
  H   H1        1.0  0.19021393108106818  0.6546669390100704  0.4394905503825086  1.0000
  H   H2        1.0  0.8108834422966354  0.3478626838181001  0.5513250542988075  1.0000
  H   H3        1.0  0.8497165812192476  0.5715974869580551  0.7277721105581066  1.0000
  H   H4        1.0  0.7815798606606847  0.5745544111321551  0.8770371173242069  1.0000
  H   H5        1.0  0.4470830620508437  0.4519304303958123  0.9054918433028121  1.0000
  H   H6        1.0  0.6108046506215246  0.4491721329471545  0.10466790363400245  1.0000
  H   H7        1.0  0.16577573425978195  0.5694070391837798  0.10912025317631452  1.0000
  H   H8        1.0  0.08962895047136504  0.5713735005045635  0.2583438141915408  1.0000
  H   H9        1.0  0.2424787220947238  0.8710006020598229  0.5290303857625602  1.0000
  H   H10       1.0  0.7419595942971428  0.13570219751381532  0.4700456365468639  1.0000
  H   H11       1.0  0.5912838619323892  0.44548277377235485  0.6914724232559735  1.0000
  H   H12       1.0  0.6798022706695265  0.4205863396986373  0.7891631986722771  1.0000
  H   H13       1.0  0.4548770434259737  0.4559898589476461  0.3173718909690777  1.0000
  H   H14       1.0  0.3971901493229453  0.4238744886404151  0.2267157598809817  1.0000
  C   C1        1.0  0.6336665725885808  0.7308672801665498  0.4976216134902458  1.0000
  C   C2        1.0  0.7859643357515224  0.5104419138744094  0.3539369642509413  1.0000
  C   C3        1.0  0.3540240675901956  0.2757229477325752  0.5024232569445032  1.0000
  C   C4        1.0  0.20591947946159916  0.4992707374577492  0.6456842778546487  1.0000
  C   C5        1.0  0.18342889688347694  0.5051607412159101  0.7325928435436496  1.0000
  C   C6        1.0  0.9786018133400772  0.5427486748497046  0.7681917317631035  1.0000
  C   C7        1.0  0.9396157946949374  0.5446088861104954  0.8499482463590058  1.0000
  C   C8        1.0  0.11345455881239998  0.5085094479837835  0.8991338693371774  1.0000
  C   C9        1.0  0.31753768795563514  0.4763550697228994  0.8655586706403753  1.0000
  C   C10       1.0  0.3593430535957012  0.47268722300978544  0.7818592802287514  1.0000
  C   C11       1.0  0.7163775261485839  0.47368279875525593  0.13981822542815792  1.0000
  C   C12       1.0  0.8932201854280989  0.5051036640592558  0.1000178974272359  1.0000
  C   C13       1.0  0.03273094632145758  0.5406331280057374  0.14205378643184471  1.0000
  C   C14       1.0  0.989555634520407  0.5416334467856744  0.22381858548096997  1.0000
  C   C15       1.0  0.8142718006361634  0.5075716491013013  0.26640764025128766  1.0000
  C   C16       1.0  0.6723002011496675  0.4728639227213521  0.22379988796085828  1.0000
  C   C17       1.0  0.42009477268076273  0.13592594404652664  0.5017331199373772  1.0000
  C   C18       1.0  0.5646532003498024  0.8708467623646785  0.49759722055000566  1.0000
  C   C19       1.0  0.28356851229100505  0.057724838481647105  0.5180112903757674  1.0000
  C   C20       1.0  0.7010293803301192  0.9491620516570693  0.48102106495039726  1.0000
  C   C21       1.0  0.3528477316489501  0.9286155058270394  0.5160095363187835  1.0000
  C   C22       1.0  0.6316612769270408  0.07814995254502581  0.4830862453739043  1.0000
  N   N1        1.0  0.09541369013386007  0.5050801786695516  0.9838464231602799  1.0000
  N   N2        1.0  0.9154967926262643  0.502820179179878  0.015939476914070393  1.0000
  N   N3        1.0  0.5613107576041684  0.4361804745167036  0.7524442409182726  1.0000
  N   N4        1.0  0.502502515798021  0.4362123842215056  0.26100675577108495  1.0000
  O   O1        1.0  0.4897885028185058  0.67577234828439  0.5004093653624224  1.0000
  O   O2        1.0  0.9439429263620199  0.5118752944188856  0.3898006121137101  1.0000
  O   O3        1.0  0.159066014860521  0.3312715702675251  0.5061092713917789  1.0000
  O   O4        1.0  0.38978564962138756  0.48640740738675  0.6101041657376811  1.0000
  O   O5        1.0  0.5008824055536181  0.3287793076973244  0.49859985662470774  1.0000
  O   O6        1.0  0.04255550626096047  0.5048755242610595  0.6104097601977687  1.0000
  O   O7        1.0  0.8292331559517052  0.6772864733966132  0.4954661930716212  1.0000
  O   O8        1.0  0.6040348329154241  0.512752358116849  0.389118149641746  1.0000
  O   O9        1.0  0.22770586637256687  0.5643246341501396  0.46175856171964824  1.0000
  O   O10       1.0  0.7657320216360974  0.44025346987136516  0.5383753890590626  1.0000
  F   F1        1.0  0.07650215596809323  0.1061062875841614  0.537782970814398  1.0000
  F   F2        1.0  0.9078913863154485  0.901333502190326  0.4609021430507667  1.0000
