data_image0
_chemical_formula_structural       Co2H38C50N10O12
_chemical_formula_sum              "Co2 H38 C50 N10 O12"
_cell_length_a       9.64410888731107
_cell_length_b       11.47433682587019
_cell_length_c       11.625
_cell_angle_alpha    64.18716103950442
_cell_angle_beta     89.82990259731801
_cell_angle_gamma    77.48054569140083

_space_group_name_H-M_alt    "P 1"
_space_group_IT_number       1

loop_
  _space_group_symop_operation_xyz
  'x, y, z'

loop_
  _atom_site_type_symbol
  _atom_site_label
  _atom_site_symmetry_multiplicity
  _atom_site_fract_x
  _atom_site_fract_y
  _atom_site_fract_z
  _atom_site_occupancy
  Co  Co1       1.0  0.12029324388685582  0.3242263278375361  0.1241215406176863  1.0000
  Co  Co2       1.0  0.8797117091574763  0.6757749645928258  0.8758758271944131  1.0000
  H   H1        1.0  0.9547926921725036  0.3659705722412525  0.8665852440799782  1.0000
  H   H2        1.0  0.04521768663918379  0.6340257347302156  0.1334073713465855  1.0000
  H   H3        1.0  0.19185532077241158  0.9172297126117499  0.8778562946666428  1.0000
  H   H4        1.0  0.808150896015718  0.0827626059926061  0.1221466473193544  1.0000
  H   H5        1.0  0.39930301333611606  0.7762987664379963  0.03474440428169597  1.0000
  H   H6        1.0  0.600695675079571  0.22369056089102204  0.9652684440150808  1.0000
  H   H7        1.0  0.4977834715005829  0.8491841812715819  0.18250722485915824  1.0000
  H   H8        1.0  0.5022035553101745  0.1508061431492109  0.8175086644794052  1.0000
  H   H9        1.0  0.3829790074977383  0.0670075587986219  0.1808253643860738  1.0000
  H   H10       1.0  0.617010618778302  0.9329847598057341  0.8191853603958779  1.0000
  H   H11       1.0  0.8658196438052457  0.27225989851940113  0.7453167974215946  1.0000
  H   H12       1.0  0.1341863317505556  0.7277374055438486  0.2546805616004022  1.0000
  H   H13       1.0  0.9037759087103724  0.0963788913214429  0.8189458794074582  1.0000
  H   H14       1.0  0.09622823426374787  0.9036134272829133  0.1810536268258858  1.0000
  H   H15       1.0  0.057840425649843014  0.275485490423236  0.603110106538935  1.0000
  H   H16       1.0  0.9421619423247378  0.7245177961906819  0.39688382991555937  1.0000
  H   H17       1.0  0.11397455333231221  0.1014291611801568  0.6760899761093881  1.0000
  H   H18       1.0  0.8860285959214169  0.8985751225255427  0.32390352988132776  1.0000
  H   H19       1.0  0.8134155769274898  0.2578728612456871  0.5371243138371257  1.0000
  H   H20       1.0  0.18658652102369183  0.7421274340929005  0.46287779062158313  1.0000
  H   H21       1.0  0.9596392575132668  0.2085576989669065  0.46207459022767244  1.0000
  H   H22       1.0  0.04036126348410112  0.7914366138210057  0.5379240678470083  1.0000
  H   H23       1.0  0.001625816529220009  0.9241684742991723  0.7770484069333818  1.0000
  H   H24       1.0  0.9983817071893245  0.0758268355805214  0.22295066556988982  1.0000
  H   H25       1.0  0.6897934451279256  0.7365536910504106  0.5901251705476369  1.0000
  H   H26       1.0  0.3102141073816895  0.2634495955635145  0.4098601509874201  1.0000
  H   H27       1.0  0.549608177904709  0.882534907082878  0.379930525969506  1.0000
  H   H28       1.0  0.4504024997214557  0.1174723678981593  0.6200599554308681  1.0000
  H   H29       1.0  0.5625414509850941  0.11956925190859381  0.25731696031812135  1.0000
  H   H30       1.0  0.43745860194314895  0.8804390201642179  0.7426817208605809  1.0000
  H   H31       1.0  0.7147076077412892  0.21632604101413483  0.34612187172350417  1.0000
  H   H32       1.0  0.2852867637917242  0.7836882136093521  0.6538819941457916  1.0000
  H   H33       1.0  0.3707829018167388  0.5678806603200997  0.3248370122958093  1.0000
  H   H34       1.0  0.6292186704831766  0.4321176408349316  0.6751659505366805  1.0000
  H   H35       1.0  0.8187574718110967  0.5268423568956422  0.2675470199174015  1.0000
  H   H36       1.0  0.18124174225586392  0.47314896461693223  0.7324563678550505  1.0000
  H   H37       1.0  0.5540452805214855  0.3725164797678957  0.09873995046534387  1.0000
  H   H38       1.0  0.4459477840811203  0.6274947835802537  0.9012479999404378  1.0000
  C   C1        1.0  0.0389882627439349  0.2742929686560061  0.9082978877311377  1.0000
  C   C2        1.0  0.961016405881452  0.725701344131906  0.09169817948326646  1.0000
  C   C3        1.0  0.1697103016563162  0.0758397977736394  0.9392156916316098  1.0000
  C   C4        1.0  0.8302933156665375  0.9241505266471535  0.060788974050787134  1.0000
  C   C5        1.0  0.2312635195231891  0.9529325779288129  0.9410149502166975  1.0000
  C   C6        1.0  0.7687442598232155  0.0470617348590991  0.058982829766478104  1.0000
  C   C7        1.0  0.3490100642370422  0.8727235239812574  0.030926996284961133  1.0000
  C   C8        1.0  0.6509883685507774  0.1272668004395427  0.9690794025964352  1.0000
  C   C9        1.0  0.40362029173231656  0.913292197177981  0.11590790561638173  1.0000
  C   C10       1.0  0.5963675163575815  0.0866991243345936  0.884100671537965  1.0000
  C   C11       1.0  0.34135241632345986  0.0349869534200096  0.1152844145062346  1.0000
  C   C12       1.0  0.6586411019527391  0.965006362276128  0.8847241517204909  1.0000
  C   C13       1.0  0.2230950272188679  0.1165859533069664  0.025780973592283405  1.0000
  C   C14       1.0  0.7769010905226138  0.8834093565727272  0.9742250087229961  1.0000
  C   C15       1.0  0.9517512177256934  0.1821198104567827  0.7712365295088689  1.0000
  C   C16       1.0  0.0482524139926923  0.8178745023311293  0.2287595402593113  1.0000
  C   C17       1.0  0.0191382814012968  0.18424361594524905  0.6512400103902891  1.0000
  C   C18       1.0  0.9808630496662829  0.815759670668676  0.34875306840293524  1.0000
  C   C19       1.0  0.9142874029487731  0.1828088008758115  0.5544623550214142  1.0000
  C   C20       1.0  0.08571236556053216  0.8171924915545503  0.4455358857746391  1.0000
  C   C21       1.0  0.9240781272877784  0.9382833055173236  0.7021836580586226  1.0000
  C   C22       1.0  0.0759213711981204  0.0617149956377077  0.297816729236267  1.0000
  C   C23       1.0  0.7762039639404464  0.8961751226144017  0.5916227140356723  1.0000
  C   C24       1.0  0.22380177038301952  0.10382716690773461  0.4083750835277017  1.0000
  C   C25       1.0  0.6924393716213544  0.8409801101170943  0.5404949093533559  1.0000
  C   C26       1.0  0.30755755619033215  0.1590241735886053  0.45950291303530844  1.0000
  C   C27       1.0  0.6164133308641057  0.9237835968726245  0.4202863409478325  1.0000
  C   C28       1.0  0.3835831000873853  0.0762266693837503  0.5797140727173655  1.0000
  C   C29       1.0  0.6234506597690768  0.0576588262822781  0.35111045311222006  1.0000
  C   C30       1.0  0.3765488819034317  0.9423514399740897  0.6488890926765902  1.0000
  C   C31       1.0  0.707815198996947  0.1135268757301588  0.39984429017172834  1.0000
  C   C32       1.0  0.2921861608617037  0.8864843876179975  0.6001565430296267  1.0000
  C   C33       1.0  0.7830674981785748  0.0308091388675891  0.520285436688866  1.0000
  C   C34       1.0  0.2169348697960133  0.9691941477463288  0.47971538148605924  1.0000
  C   C35       1.0  0.4461918438311159  0.4721109920753932  0.20577423787354826  1.0000
  C   C36       1.0  0.5538048139571715  0.5278903003549686  0.7942308923042704  1.0000
  C   C37       1.0  0.4619264845102223  0.5361292697217124  0.2813789508923533  1.0000
  C   C38       1.0  0.5380745765339513  0.46387102561687504  0.7186222959050852  1.0000
  C   C39       1.0  0.5959977276231854  0.5537099919623429  0.3029069329108792  1.0000
  C   C40       1.0  0.4039984045138284  0.4462893062844628  0.6970938943504025  1.0000
  C   C41       1.0  0.714884581885542  0.5122040524937149  0.24919445122146303  1.0000
  C   C42       1.0  0.28511257276294094  0.4877912573859788  0.7508089478948748  1.0000
  C   C43       1.0  0.6984082473277482  0.44774206900591207  0.17403602846196253  1.0000
  C   C44       1.0  0.3015863222509907  0.5522552350573378  0.825965659726876  1.0000
  C   C45       1.0  0.5646076163559569  0.42706737097621783  0.15359799849682076  1.0000
  C   C46       1.0  0.4353934446882235  0.5729329243623695  0.846399807440399  1.0000
  C   C47       1.0  0.3030803535938916  0.4463501288829548  0.19035974351896098  1.0000
  C   C48       1.0  0.6969202249856253  0.553660137373413  0.8096372190709006  1.0000
  C   C49       1.0  0.8260820386066428  0.3870401186152819  0.12693150446406776  1.0000
  C   C50       1.0  0.17391567048419182  0.6129651621821922  0.8730650272457582  1.0000
  N   N1        1.0  0.1380056303597357  0.24068299898227252  0.004082027607139972  1.0000
  N   N2        1.0  0.861991538684286  0.7593162992645333  0.9959170766702456  1.0000
  N   N3        1.0  0.0528880674725372  0.17914947404827333  0.8661626414713411  1.0000
  N   N4        1.0  0.947117623664326  0.8208408503725266  0.13383771802822503  1.0000
  N   N5        1.0  0.8653953982215087  0.8414656938132838  0.7065415306629746  1.0000
  N   N6        1.0  0.134607481008814  0.1585355986170782  0.2934532616115178  1.0000
  N   N7        1.0  0.8777404682305916  0.0540762755216946  0.5934062757020371  1.0000
  N   N8        1.0  0.12225955590657378  0.9459240198168857  0.4065966940792833  1.0000
  N   N9        1.0  0.6132183737108788  0.613667114794346  0.38885729876076885  1.0000
  N   N10       1.0  0.38678136600735513  0.3863262009017916  0.6111469510680081  1.0000
  O   O1        1.0  0.2965568282322337  0.37967759292195075  0.1254120417120177  1.0000
  O   O2        1.0  0.7034339069284955  0.6203346675179802  0.8745823676117582  1.0000
  O   O3        1.0  0.20134559748239417  0.48537031854748863  0.24208155660462444  1.0000
  O   O4        1.0  0.7986521547950431  0.5146469273513361  0.7579115529539636  1.0000
  O   O5        1.0  0.9357153030330284  0.4381181391586679  0.11816245695707288  1.0000
  O   O6        1.0  0.06428446547627688  0.5618831532716939  0.8818246010432772  1.0000
  O   O7        1.0  0.8223537353964261  0.2902693702248413  0.10506851311306778  1.0000
  O   O8        1.0  0.1776395704385152  0.7097369076644142  0.8949310417620924  1.0000
  O   O9        1.0  0.5038599917849851  0.6606520735864905  0.42670159547172654  1.0000
  O   O10       1.0  0.4961407992357892  0.3393452304767592  0.5733017978245485  1.0000
  O   O11       1.0  0.7360457610380635  0.6142553989437332  0.4200937790371598  1.0000
  O   O12       1.0  0.2639549867961009  0.3857299400181731  0.5799173374856254  1.0000
