data_image0
_chemical_formula_structural       Zn2H32C24O16F8
_chemical_formula_sum              "Zn2 H32 C24 O16 F8"
_cell_length_a       8.36608388067638
_cell_length_b       8.366067672113498
_cell_length_c       13.34319108328119
_cell_angle_alpha    93.25665999006269
_cell_angle_beta     93.2567801540652
_cell_angle_gamma    115.37576875430157

_space_group_name_H-M_alt    "P 1"
_space_group_IT_number       1

loop_
  _space_group_symop_operation_xyz
  'x, y, z'

loop_
  _atom_site_type_symbol
  _atom_site_label
  _atom_site_symmetry_multiplicity
  _atom_site_fract_x
  _atom_site_fract_y
  _atom_site_fract_z
  _atom_site_occupancy
  Zn  Zn1       1.0  0.026630724034873664  0.9733621773512054  0.7499990989811849  1.0000
  Zn  Zn2       1.0  0.9733653075026116  0.0266339287086907  0.250000168042817  1.0000
  H   H1        1.0  0.34989485846246277  0.3180462406092345  0.7392532334070407  1.0000
  H   H2        1.0  0.6819471725233938  0.6501031416527707  0.7607465683834815  1.0000
  H   H3        1.0  0.6501059230131289  0.6819525904202305  0.26074778036613105  1.0000
  H   H4        1.0  0.3180475608658568  0.349895577851015  0.2392519927787404  1.0000
  H   H5        1.0  0.47724075030293284  0.3767011122590559  0.8599134789797345  1.0000
  H   H6        1.0  0.6232927220082303  0.5227539339425389  0.6400855242916775  1.0000
  H   H7        1.0  0.5227581566689992  0.6232989873766782  0.1400852663057393  1.0000
  H   H8        1.0  0.37670146831459306  0.47724347400897205  0.35991447431751306  1.0000
  H   H9        1.0  0.30099447285354586  0.4400419222171478  0.8368257641539428  1.0000
  H   H10       1.0  0.5599526192174054  0.6990030950674391  0.6631731945286389  1.0000
  H   H11       1.0  0.6990068433662204  0.5599582120432487  0.1631730621540441  1.0000
  H   H12       1.0  0.440041562783165  0.300994304562728  0.3368260540623282  1.0000
  H   H13       1.0  0.9041182490377224  0.4947767473557291  0.8199417342281661  1.0000
  H   H14       1.0  0.5052200471221867  0.09588012229999518  0.6800584497956592  1.0000
  H   H15       1.0  0.09587824036411512  0.5052233093339992  0.1800561800165781  1.0000
  H   H16       1.0  0.4947788079366616  0.9041226496986496  0.3199433802303915  1.0000
  H   H17       1.0  0.14133112999783032  0.5877831226053657  0.830819898662284  1.0000
  H   H18       1.0  0.4122131528319456  0.8586676833812772  0.669180447777556  1.0000
  H   H19       1.0  0.8586643335064821  0.412211646938246  0.16917855575401564  1.0000
  H   H20       1.0  0.587788111474744  0.14133512324202968  0.3308214632710147  1.0000
  H   H21       1.0  0.02501095924786503  0.6017311967133735  0.7175054173459827  1.0000
  H   H22       1.0  0.3982655452802959  0.9749866455833569  0.7824940660569978  1.0000
  H   H23       1.0  0.9749867347778934  0.3982688772886859  0.2824925374100075  1.0000
  H   H24       1.0  0.6017309774105399  0.025013444391717595  0.2175068482606264  1.0000
  H   H25       1.0  0.1475738549614718  0.19159980165576934  0.9049293721174081  1.0000
  H   H26       1.0  0.808395317836876  0.8524213331497419  0.5950703411977685  1.0000
  H   H27       1.0  0.8524268246675459  0.8084016518085801  0.09507022628702087  1.0000
  H   H28       1.0  0.1915996026010092  0.14757212484159504  0.40492955066549996  1.0000
  H   H29       1.0  0.02631755819950129  0.7816139929116445  0.9108609499642881  1.0000
  H   H30       1.0  0.21838543305059216  0.9736819909593064  0.5891385649153092  1.0000
  H   H31       1.0  0.973682002007671  0.21838480416280953  0.08913852326118388  1.0000
  H   H32       1.0  0.7816153317805005  0.02631682342748579  0.41086094882142277  1.0000
  C   C1        1.0  0.9295284750312194  0.16170864848554337  0.5833027833864433  1.0000
  C   C2        1.0  0.8382925130756578  0.07047513258819289  0.9166972143876677  1.0000
  C   C3        1.0  0.0704811031518345  0.838296885116314  0.41669649583574386  1.0000
  C   C4        1.0  0.16171172018979246  0.9295290368547312  0.08330484027289489  1.0000
  C   C5        1.0  0.9644484224969719  0.33551558737892856  0.5403659024515192  1.0000
  C   C6        1.0  0.6644847426702045  0.035557338789388396  0.9596325453638386  1.0000
  C   C7        1.0  0.03555893348688945  0.6644846500858108  0.4596346264491871  1.0000
  C   C8        1.0  0.3355182526823341  0.9644467800558514  0.040366468712583994  1.0000
  C   C9        1.0  0.13794691202589596  0.45999059647473917  0.5307240884054989  1.0000
  C   C10       1.0  0.5400113545734441  0.862060269415089  0.9692760591263221  1.0000
  C   C11       1.0  0.8620598842470387  0.5400083127950522  0.46927637790573573  1.0000
  C   C12       1.0  0.45999279348993843  0.13794653910539265  0.030726080201937095  1.0000
  C   C13       1.0  0.17239837919294124  0.6203270996370306  0.490629492560373  1.0000
  C   C14       1.0  0.3796738984676792  0.8276068218482562  0.009370896617134906  1.0000
  C   C15       1.0  0.8276072291005719  0.37967180896310987  0.5093724332760416  1.0000
  C   C16       1.0  0.6203280190742506  0.1723946822137776  0.9906317423714339  1.0000
  C   C17       1.0  0.34480947685155167  0.3358222445030349  0.8207992026812576  1.0000
  C   C18       1.0  0.6641710282648816  0.6551857143971489  0.6792004857202513  1.0000
  C   C19       1.0  0.6551888870539528  0.6641765435804243  0.1792009800511778  1.0000
  C   C20       1.0  0.3358243666818552  0.3448117108667005  0.3207995534001924  1.0000
  C   C21       1.0  0.025617112769914567  0.6047143904188771  0.7996722522371155  1.0000
  C   C22       1.0  0.39528253491690163  0.9743812086417091  0.7003272593773245  1.0000
  C   C23       1.0  0.9743800298671702  0.39528436370957104  0.20032638994762655  1.0000
  C   C24       1.0  0.6047169567327019  0.025620244152982294  0.2996737985522912  1.0000
  O   O1        1.0  0.01388348971237005  0.17498845875807226  0.6670601773349815  1.0000
  O   O2        1.0  0.8250064122544104  0.9861161137994543  0.8329380952279875  1.0000
  O   O3        1.0  0.98611807379136  0.8250037499483083  0.3329376449516842  1.0000
  O   O4        1.0  0.17499010211417243  0.013883967854283696  0.1670620690714202  1.0000
  O   O5        1.0  0.8210516259269269  0.018967490417914193  0.53203348534592  1.0000
  O   O6        1.0  0.981031930590348  0.17895308143938848  0.9679665145847165  1.0000
  O   O7        1.0  0.17895396572208694  0.981031401539553  0.4679669404540617  1.0000
  O   O8        1.0  0.018970436493695637  0.821052364931141  0.032034021606371296  1.0000
  O   O9        1.0  0.2223371822997464  0.17016789455626474  0.8539403106514598  1.0000
  O   O10       1.0  0.8298259549435159  0.7776580554520223  0.6460594279051931  1.0000
  O   O11       1.0  0.7776617246721855  0.8298322050794694  0.1460584346340141  1.0000
  O   O12       1.0  0.17016888029229446  0.22233804161687223  0.3539405486257721  1.0000
  O   O13       1.0  0.03540575259565761  0.7733051267081449  0.8361162739867396  1.0000
  O   O14       1.0  0.22669356943345043  0.9645917788554355  0.6638839111529221  1.0000
  O   O15       1.0  0.9645914066859261  0.22669364406298334  0.1638838682344357  1.0000
  O   O16       1.0  0.7733065588068941  0.035408354735302794  0.3361163746802517  1.0000
  F   F1        1.0  0.276978666423055  0.42482612915195955  0.558144590156857  1.0000
  F   F2        1.0  0.575169976918012  0.7230285265165148  0.941853234550379  1.0000
  F   F3        1.0  0.723031795634711  0.5751701596919219  0.4418529129475601  1.0000
  F   F4        1.0  0.42482998924044324  0.2769768935506888  0.05814797063641208  1.0000
  F   F5        1.0  0.3438262672748066  0.7333991190395036  0.48010924212372424  1.0000
  F   F6        1.0  0.2666025167384589  0.6561779131636027  0.019891923681932194  1.0000
  F   F7        1.0  0.6561787646632808  0.2665984447230087  0.5198911210867719  1.0000
  F   F8        1.0  0.7333969832333909  0.3438235479524251  0.9801098842659072  1.0000
