data_image0
_chemical_formula_structural       MnH24C26S2N6O2
_chemical_formula_sum              "Mn1 H24 C26 S2 N6 O2"
_cell_length_a       5.644410702996171
_cell_length_b       8.55922769956117
_cell_length_c       12.987460949768483
_cell_angle_alpha    87.12505530876518
_cell_angle_beta     85.61317450374936
_cell_angle_gamma    75.05878422379007

_space_group_name_H-M_alt    "P 1"
_space_group_IT_number       1

loop_
  _space_group_symop_operation_xyz
  'x, y, z'

loop_
  _atom_site_type_symbol
  _atom_site_label
  _atom_site_symmetry_multiplicity
  _atom_site_fract_x
  _atom_site_fract_y
  _atom_site_fract_z
  _atom_site_occupancy
  Mn  Mn1       1.0  0.9999847762981774  2.1136876213986354e-06  0.5000061774271813  1.0000
  H   H1        1.0  0.655664051582967  0.7885360868354995  0.3758137252770269  1.0000
  H   H2        1.0  0.34432477122644667  0.2114630285707193  0.6241856449351532  1.0000
  H   H3        1.0  0.3805328623473441  0.6420307043895053  0.46954929175028337  1.0000
  H   H4        1.0  0.6194566945253187  0.35798419180194685  0.5304495725859655  1.0000
  H   H5        1.0  0.2828050435584543  0.3919628845960332  0.3624448935240992  1.0000
  H   H6        1.0  0.7171972162833101  0.6080386828082069  0.6375592463384622  1.0000
  H   H7        1.0  0.6109228101534895  0.5481350139947665  0.2925910172046713  1.0000
  H   H8        1.0  0.38907937001204823  0.45185324974102775  0.70741044668808  1.0000
  H   H9        1.0  0.7924421754076009  0.36318442930909367  0.34236117806462846  1.0000
  H   H10       1.0  0.20756558085079027  0.636812326760918  0.6576428830719296  1.0000
  H   H11       1.0  0.9367903289488806  0.5421368994792601  0.14514481018586886  1.0000
  H   H12       1.0  0.06320638974248276  0.45785616458306316  0.8548575014619645  1.0000
  H   H13       1.0  0.1083900718100779  0.3562602605112204  0.19350270197788436  1.0000
  H   H14       1.0  0.8916099015502608  0.6437377164555828  0.8064970185775665  1.0000
  H   H15       1.0  0.2539669575422394  0.1971313760888478  0.07604082254670173  1.0000
  H   H16       1.0  0.7460478396659338  0.8028691876701618  0.9239551357931364  1.0000
  H   H17       1.0  0.41315208651236196  0.05612546230580052  0.9126935129834665  1.0000
  H   H18       1.0  0.5868660003072462  0.9438800033499748  0.0873006232930678  1.0000
  H   H19       1.0  0.13484455154396358  0.06166336601060609  0.7733099792798656  1.0000
  H   H20       1.0  0.8651693287321223  0.93832626942568  0.22668634602320745  1.0000
  H   H21       1.0  0.6950635142555727  0.2129467937253651  0.7946763806786878  1.0000
  H   H22       1.0  0.30494712929934303  0.787046457066303  0.20531996739578065  1.0000
  H   H23       1.0  0.529529608530865  0.3438855132831549  0.9621710015163603  1.0000
  H   H24       1.0  0.47049137442342454  0.6561127052506992  0.03782246528079721  1.0000
  C   C1        1.0  0.8409140649656237  0.7173761692222486  0.38801054296883564  1.0000
  C   C2        1.0  0.15907864079548517  0.28262660536935874  0.6119893288588687  1.0000
  C   C3        1.0  0.21644653594864133  0.6352640127656812  0.4336526740607242  1.0000
  C   C4        1.0  0.783537331847263  0.36474722153866423  0.5663449921771644  1.0000
  C   C5        1.0  0.17090413500353208  0.5110857912110802  0.38188895380271504  1.0000
  C   C6        1.0  0.8290953596352467  0.4889267211278537  0.6181118880727896  1.0000
  C   C7        1.0  0.8000303938091021  0.4742465029738839  0.29735453473772827  1.0000
  C   C8        1.0  0.19997202211552423  0.5257454255515626  0.702645268775804  1.0000
  C   C9        1.0  0.9194376668355346  0.4320742703481316  0.18986360025338206  1.0000
  C   C10       1.0  0.08056304779142195  0.5679176224524839  0.8101378138645218  1.0000
  C   C11       1.0  0.7685111105519907  0.351200214318041  0.12936512826569677  1.0000
  C   C12       1.0  0.2315086945599559  0.6487967477949966  0.8706307347565101  1.0000
  C   C13       1.0  0.8791437673344404  0.2780562954548245  0.0295692645162191  1.0000
  C   C14       1.0  0.12085918999331101  0.7219429406345129  0.9704287562970112  1.0000
  C   C15       1.0  0.1302291414364376  0.20011117589477584  0.014960161944742402  1.0000
  C   C16       1.0  0.8697742093680741  0.7999002092132628  0.9850367062845681  1.0000
  C   C17       1.0  0.22011698023302267  0.12109300586245554  0.9231553390325191  1.0000
  C   C18       1.0  0.7798930618251346  0.8789062850645879  0.07684239159577538  1.0000
  C   C19       1.0  0.0634268926222887  0.12456994905418384  0.8444367114709196  1.0000
  C   C20       1.0  0.9365881573396492  0.8754257402268951  0.15556092383975081  1.0000
  C   C21       1.0  0.8155998823345599  0.20824373697116977  0.8569906135333982  1.0000
  C   C22       1.0  0.18441442636075306  0.7917580364761039  0.14300532821481943  1.0000
  C   C23       1.0  0.7232260523831686  0.2820513782680863  0.9497671680640352  1.0000
  C   C24       1.0  0.2767848968157763  0.7179455152978206  0.05022905768935  1.0000
  C   C25       1.0  0.5034085000896339  0.09067833468446201  0.3812519170674592  1.0000
  C   C26       1.0  0.49659127313573487  0.9093170220653805  0.6187609827116491  1.0000
  S   S1        1.0  0.27018780305027684  0.06371422438294161  0.3253614609314326  1.0000
  S   S2        1.0  0.7297821128246369  0.9362760248287288  0.6746543491045003  1.0000
  N   N1        1.0  0.009466310839598981  0.7639181849009731  0.4369578816987458  1.0000
  N   N2        1.0  0.9905181852390257  0.2360917956842812  0.5630428772470424  1.0000
  N   N3        1.0  0.9321096273420789  0.5651241854555736  0.3535094481021376  1.0000
  N   N4        1.0  0.06788540799941954  0.43487737114178066  0.6464919058290877  1.0000
  N   N5        1.0  0.6753517133181007  0.1085544264381255  0.422380273169509  1.0000
  N   N6        1.0  0.32462016571788854  0.8914432541239209  0.5776259913291854  1.0000
  O   O1        1.0  0.5556949350979323  0.35011247565746834  0.15943586704520382  1.0000
  O   O2        1.0  0.44431072665751237  0.6498881076160432  0.8405543017932474  1.0000
