data_image0
_chemical_formula_structural       Al4H27C46IO20
_chemical_formula_sum              "Al4 H27 C46 I1 O20"
_cell_length_a       6.749738476352087
_cell_length_b       18.44264713803779
_cell_length_c       20.44543411501148
_cell_angle_alpha    72.32669179000446
_cell_angle_beta     89.93844281521906
_cell_angle_gamma    89.86264343143996

_space_group_name_H-M_alt    "P 1"
_space_group_IT_number       1

loop_
  _space_group_symop_operation_xyz
  'x, y, z'

loop_
  _atom_site_type_symbol
  _atom_site_label
  _atom_site_symmetry_multiplicity
  _atom_site_fract_x
  _atom_site_fract_y
  _atom_site_fract_z
  _atom_site_occupancy
  Al  Al1       1.0  0.10116641409391042  0.49993559733273696  0.5004263633632249  1.0000
  Al  Al2       1.0  0.6014229151916552  0.5005093303468942  0.49929169024483844  1.0000
  Al  Al3       1.0  0.644231339620987  0.0003478983208538006  0.9990757136644676  1.0000
  Al  Al4       1.0  0.14387024816670646  0.9995163730659938  0.0002033155118325636  1.0000
  H   H1        1.0  0.115339768937929  0.8509338611975824  0.7070376778072855  1.0000
  H   H2        1.0  0.974127442573639  0.6703565000183148  0.8657156669078815  1.0000
  H   H3        1.0  0.6322247754727642  0.646701715734274  0.7954713838349645  1.0000
  H   H4        1.0  0.5466857053657391  0.8051506263414157  0.7587223182733992  1.0000
  H   H5        1.0  0.2601936781854022  0.17183140298352131  0.363367967095428  1.0000
  H   H6        1.0  0.6082275550692273  0.14544046580130043  0.2950402399459975  1.0000
  H   H7        1.0  0.0448378218438918  0.19680273461936795  0.23899654728325  1.0000
  H   H8        1.0  0.1367203956704799  0.354529251176885  0.20308217291075437  1.0000
  H   H9        1.0  0.7346294415537714  0.2909650364107464  0.3734245442952826  1.0000
  H   H10       1.0  0.8615577470278738  0.21891887284409256  0.3485205462436127  1.0000
  H   H11       1.0  0.976931389117233  0.3079768223566362  0.3400664821447492  1.0000
  H   H12       1.0  0.8512179193368467  0.3017597025248052  0.22423992689831349  1.0000
  H   H13       1.0  0.7341557577972893  0.37470762922782097  0.2492335318099137  1.0000
  H   H14       1.0  0.5843968730038966  0.9257463892732147  0.6492463139863531  1.0000
  H   H15       1.0  0.8370101480223224  0.9510845659906058  0.6341385230827823  1.0000
  H   H16       1.0  0.6744922693454853  0.9604895530145685  0.5638014772084502  1.0000
  H   H17       1.0  0.8843400137888793  0.8433391434652224  0.5816045766881857  1.0000
  H   H18       1.0  0.6334022412081949  0.8180630247480212  0.5978036689148213  1.0000
  H   H19       1.0  0.22982737264651834  0.6978124573273946  0.6312526901499282  1.0000
  H   H20       1.0  0.35101579442621034  0.7735535780110329  0.6518078572915015  1.0000
  H   H21       1.0  0.4745120480675381  0.685227554303559  0.6632075417127652  1.0000
  H   H22       1.0  0.35242350627731156  0.6957563036496879  0.7775335540665865  1.0000
  H   H23       1.0  0.23338492570197641  0.6204161741433155  0.7566631169381993  1.0000
  H   H24       1.0  0.3504101650184737  0.5980999035294874  0.4901831766220255  1.0000
  H   H25       1.0  0.8514286546708831  0.4014605725298922  0.5123292541538831  1.0000
  H   H26       1.0  0.3955323210840191  0.9029260520673648  0.006270258063125184  1.0000
  H   H27       1.0  0.8943442227091438  0.09718915839579273  0.9930742617885928  1.0000
  C   C1        1.0  0.3514458860768173  0.4229352063337404  0.423353228100332  1.0000
  C   C2        1.0  0.35263566002225116  0.3956510086967243  0.6050098621090783  1.0000
  C   C3        1.0  0.8495920761482552  0.5772457849669195  0.5765316021950966  1.0000
  C   C4        1.0  0.8522662826356253  0.6045019655358319  0.39459257863460817  1.0000
  C   C5        1.0  0.8565276179414738  0.6664695515320676  0.33139568099064576  1.0000
  C   C6        1.0  0.86711045603721  0.7202856978349675  0.27891076244427637  1.0000
  C   C7        1.0  0.8783486990075532  0.7796355038745093  0.22094603755520834  1.0000
  C   C8        1.0  0.8889042809230006  0.8335457735711888  0.1685192744188981  1.0000
  C   C9        1.0  0.8160722347958185  0.7937768308008588  0.687268260782652  1.0000
  C   C10       1.0  0.007202381906452595  0.8051958659201832  0.7263661374965622  1.0000
  C   C11       1.0  0.8953535818795898  0.877431168132752  0.8775376772444972  1.0000
  C   C12       1.0  0.8487987980680244  0.6212650087231923  0.623724834741779  1.0000
  C   C13       1.0  0.6913389614012785  0.779839464018018  0.7548629270670517  1.0000
  C   C14       1.0  0.8822831266213597  0.7932988756230515  0.7942547136756275  1.0000
  C   C15       1.0  0.7382426378477192  0.6928621947545965  0.7759420058690978  1.0000
  C   C16       1.0  0.8613429629659423  0.7046669460904553  0.7077393967155673  1.0000
  C   C17       1.0  0.928704660216951  0.7048901659265997  0.8143307081706795  1.0000
  C   C18       1.0  0.0535942079117504  0.7178924807194704  0.7472792852831843  1.0000
  C   C19       1.0  0.8916302991521617  0.8383553525054311  0.8390281058281985  1.0000
  C   C20       1.0  0.8518266499560383  0.6596285588061692  0.6629549120972555  1.0000
  C   C21       1.0  0.5024711185018731  0.19205943169252754  0.2754985000069539  1.0000
  C   C22       1.0  0.30973305401530377  0.20595395274372663  0.3124321046864651  1.0000
  C   C23       1.0  0.3508588127912731  0.3783030638579917  0.37646737293049876  1.0000
  C   C24       1.0  0.3933873719955158  0.12184118152755735  0.12253628078412497  1.0000
  C   C25       1.0  0.5542462160415838  0.27888517247603073  0.2554567122803206  1.0000
  C   C26       1.0  0.3595435734525552  0.293966216485437  0.2931173967838347  1.0000
  C   C27       1.0  0.4321846072103597  0.2931110036299814  0.1876112986827536  1.0000
  C   C28       1.0  0.3817559251880597  0.20494932542818844  0.20661398018216903  1.0000
  C   C29       1.0  0.23966683138881  0.3074242852063308  0.22390930906951206  1.0000
  C   C30       1.0  0.18967078282703648  0.22072581100723454  0.24436774662691363  1.0000
  C   C31       1.0  0.3514750404103708  0.3394011483975845  0.33775471880436925  1.0000
  C   C32       1.0  0.3907511110541009  0.16005671282628953  0.1617441367845558  1.0000
  C   C33       1.0  0.3569533318072827  0.3337956281315827  0.6682856697923327  1.0000
  C   C34       1.0  0.36735227606210696  0.2800062960835988  0.7208294589875595  1.0000
  C   C35       1.0  0.37831537973322327  0.2206096188383101  0.7787715411990348  1.0000
  C   C36       1.0  0.38847795251907513  0.16667278634611196  0.8311823971178711  1.0000
  C   C37       1.0  0.3928396276942863  0.10451304955107332  0.8943753292732736  1.0000
  C   C38       1.0  0.3937414191514961  0.07721752837715465  0.0757220201751281  1.0000
  C   C39       1.0  0.8931892749969563  0.8956352480914378  0.10526730857930731  1.0000
  C   C40       1.0  0.8953856087579126  0.922409594861954  0.9238357442518819  1.0000
  C   C41       1.0  0.7507377468528842  0.3123740179220108  0.26277610614847896  1.0000
  C   C42       1.0  0.8359947207631533  0.28060903732942694  0.33517647962043634  1.0000
  C   C43       1.0  0.7602535982431675  0.8432212906463976  0.6168495251829355  1.0000
  C   C44       1.0  0.711471212662424  0.9246157522469861  0.6158759859809848  1.0000
  C   C45       1.0  0.2494489414273744  0.6829023200889497  0.7408657035196953  1.0000
  C   C46       1.0  0.33126698273208177  0.7114752921981237  0.6677556777201872  1.0000
  I   I1        1.0  0.5299375989406271  0.3604860812561413  0.08935986841337498  1.0000
  O   O1        1.0  0.521007424121528  0.4194153458908689  0.5793298756668293  1.0000
  O   O2        1.0  0.18270625238542948  0.4396660847561621  0.4429094283645227  1.0000
  O   O3        1.0  0.020739210869834303  0.5806050249310317  0.4202170824873975  1.0000
  O   O4        1.0  0.182415095039886  0.41918580971787384  0.5808718130252757  1.0000
  O   O5        1.0  0.019331686697881895  0.5598060568725957  0.5580184856261711  1.0000
  O   O6        1.0  0.5208875358945804  0.4404882826744797  0.4414958508358851  1.0000
  O   O7        1.0  0.3508820861644679  0.5447415334991066  0.4928912383828746  1.0000
  O   O8        1.0  0.6811584595453368  0.5606054843264803  0.5567436915574717  1.0000
  O   O9        1.0  0.6822130772222935  0.5809912134690836  0.41870101097346424  1.0000
  O   O10       1.0  0.8513889825084532  0.4555262930585899  0.506713023130132  1.0000
  O   O11       1.0  0.2246069974145115  0.05936927966571662  0.0576806105241303  1.0000
  O   O12       1.0  0.5631792780359888  0.08115275114680293  0.9183979789791366  1.0000
  O   O13       1.0  0.7259948506821631  0.9404834961004841  0.9419960913615737  1.0000
  O   O14       1.0  0.5626349122543388  0.06056600344918913  0.056261546307759105  1.0000
  O   O15       1.0  0.7246679212130971  0.9195916006796239  0.07979885369906005  1.0000
  O   O16       1.0  0.2244757897197758  0.08055350974723301  0.9198152351862917  1.0000
  O   O17       1.0  0.394627048594593  0.9553365367216385  0.006634846633445997  1.0000
  O   O18       1.0  0.06337249445632412  0.9189240136536515  0.08120515090256923  1.0000
  O   O19       1.0  0.0640216496531139  0.9393243138418657  0.9432120181007592  1.0000
  O   O20       1.0  0.8941030950673011  0.04470818517453522  0.9928976853388535  1.0000
