data_image0
_chemical_formula_structural       Al4H20C40O20F8
_chemical_formula_sum              "Al4 H20 C40 O20 F8"
_cell_length_a       6.667458117501979
_cell_length_b       13.552327937870174
_cell_length_c       16.57523790462634
_cell_angle_alpha    89.99779008980768
_cell_angle_beta     89.72220622717522
_cell_angle_gamma    90.34921210150223

_space_group_name_H-M_alt    "P 1"
_space_group_IT_number       1

loop_
  _space_group_symop_operation_xyz
  'x, y, z'

loop_
  _atom_site_type_symbol
  _atom_site_label
  _atom_site_symmetry_multiplicity
  _atom_site_fract_x
  _atom_site_fract_y
  _atom_site_fract_z
  _atom_site_occupancy
  Al  Al1       1.0  0.0181728835128752  0.9972133911023061  0.5029394789018298  1.0000
  Al  Al2       1.0  0.5184584936043136  0.0016797475063014997  0.5021283015733786  1.0000
  Al  Al3       1.0  0.987080934101087  0.49755619365469517  0.0013654165881362994  1.0000
  Al  Al4       1.0  0.48662179028701763  0.5019451245872801  0.0023210507034363997  1.0000
  H   H1        1.0  0.2723825438469802  0.8805405865542397  0.4661800226608718  1.0000
  H   H2        1.0  0.7763794331094473  0.11516564385791378  0.4598626571910599  1.0000
  H   H3        1.0  0.23328691042586766  0.6262985799541806  0.977397937309291  1.0000
  H   H4        1.0  0.7287832939530078  0.37476974799559304  0.9739289851568029  1.0000
  H   H5        1.0  0.22034571066667044  0.6533164927393004  0.789847187463593  1.0000
  H   H6        1.0  0.08297862703820162  0.567190175461853  0.7302697229095825  1.0000
  H   H7        1.0  0.0908344058396509  0.6839782266361708  0.61292083317484  1.0000
  H   H8        1.0  0.22727625415081576  0.7720162815624004  0.6711317749155297  1.0000
  H   H9        1.0  0.7173650329284698  0.36006756483212843  0.21210286402494205  1.0000
  H   H10       1.0  0.5774651686596217  0.44328808500932115  0.2737235859676304  1.0000
  H   H11       1.0  0.5992001381425426  0.3254462277216135  0.39060585364490646  1.0000
  H   H12       1.0  0.7354755445529763  0.24062136130984155  0.32885717776729706  1.0000
  H   H13       1.0  0.7702849272374763  0.3415789160899222  0.7780151118935803  1.0000
  H   H14       1.0  0.9043019248020983  0.4329274633881041  0.7219637229033962  1.0000
  H   H15       1.0  0.9235954903747086  0.31919782374887956  0.6028507222067815  1.0000
  H   H16       1.0  0.7886870013836145  0.22648556260789823  0.6573429642208024  1.0000
  H   H17       1.0  0.08392681852805589  0.5546720733320071  0.2734710206305876  1.0000
  H   H18       1.0  0.2209604951674677  0.6412856468411118  0.21326116731876246  1.0000
  H   H19       1.0  0.2365000327905733  0.7578755707593955  0.3320440553886711  1.0000
  H   H20       1.0  0.10318325885040029  0.6697031749640487  0.39241114676240574  1.0000
  C   C1        1.0  0.7685682941919368  0.8806516184152355  0.3924055588249117  1.0000
  C   C2        1.0  0.7605813975437955  0.8914184833491487  0.6168587280524489  1.0000
  C   C3        1.0  0.2659159209273767  0.11454686940102479  0.6121347395481036  1.0000
  C   C4        1.0  0.269660583216826  0.11265282099198258  0.3882245165041311  1.0000
  C   C5        1.0  0.7459075536575881  0.6154030066794713  0.111172712073504  1.0000
  C   C6        1.0  0.7352689931412683  0.6214631786396722  0.8946975061173674  1.0000
  C   C7        1.0  0.23293191966637752  0.3810498277619131  0.8925234339613579  1.0000
  C   C8        1.0  0.2430438243987822  0.3823936999233624  0.1098725660679492  1.0000
  C   C9        1.0  0.7455338686548816  0.6936220740565487  0.8269742934623493  1.0000
  C   C10       1.0  0.7572050537499068  0.8283599428470224  0.6902021720503626  1.0000
  C   C11       1.0  0.9027405920646602  0.6953414738959437  0.7710081304386591  1.0000
  C   C12       1.0  0.6008580357405507  0.8293796244373721  0.7477170710380532  1.0000
  C   C13       1.0  0.907651936675528  0.7599192523127126  0.7055913295645551  1.0000
  C   C14       1.0  0.5957780546448319  0.764335309212619  0.8134467231256293  1.0000
  C   C15       1.0  0.09718337873761838  0.645456912793051  0.7466612633283489  1.0000
  C   C16       1.0  0.1022795418661246  0.7190762296488129  0.672522580859592  1.0000
  C   C17       1.0  0.24726298570556082  0.3114885075907594  0.178408834638681  1.0000
  C   C18       1.0  0.2654873920809422  0.17666474142492208  0.3152615120864226  1.0000
  C   C19       1.0  0.4036126086252736  0.3122984079823609  0.23425859543012703  1.0000
  C   C20       1.0  0.10886856547265468  0.17378158656178747  0.25858836566609256  1.0000
  C   C21       1.0  0.41310536314708923  0.24754547477231623  0.299348536315847  1.0000
  C   C22       1.0  0.1000625808823514  0.2384239534278833  0.1925960084254825  1.0000
  C   C23       1.0  0.5960580540123247  0.36541924297113576  0.2568384077317559  1.0000
  C   C24       1.0  0.6077293609777996  0.2912873243989508  0.3305379408770931  1.0000
  C   C25       1.0  0.24089313779816018  0.3113468258779689  0.8232003119464721  1.0000
  C   C26       1.0  0.2597433767343276  0.17972239080242494  0.6843485739363826  1.0000
  C   C27       1.0  0.0932801135069923  0.308484523876153  0.7635964962688887  1.0000
  C   C28       1.0  0.4079992898805571  0.18075354609759836  0.7443842174201547  1.0000
  C   C29       1.0  0.1024857267190598  0.24529276913288808  0.6974112630619798  1.0000
  C   C30       1.0  0.3984871572272652  0.24388225607005853  0.8113005538189666  1.0000
  C   C31       1.0  0.8970789133766103  0.3539687456158872  0.7368012128700059  1.0000
  C   C32       1.0  0.9082393049115822  0.28216425114155896  0.6616043381440945  1.0000
  C   C33       1.0  0.7509676804067383  0.6854519952736737  0.18025434360558273  1.0000
  C   C34       1.0  0.7656443952989349  0.8170549150158094  0.3192562892365629  1.0000
  C   C35       1.0  0.9065354268577155  0.6846337629687226  0.23640301753513873  1.0000
  C   C36       1.0  0.6104245426430168  0.8203298913017105  0.2620406493442218  1.0000
  C   C37       1.0  0.9143424715098051  0.7478261843703816  0.30260353209431656  1.0000
  C   C38       1.0  0.6032813572963462  0.7572393999697482  0.19505054197691143  1.0000
  C   C39       1.0  0.10017454762817118  0.633198270832679  0.2580099559040292  1.0000
  C   C40       1.0  0.11020349420461878  0.7055629411392553  0.3329608153930791  1.0000
  O   O1        1.0  0.9409974566468761  0.903684625758977  0.4195717291210386  1.0000
  O   O2        1.0  0.5933042484660332  0.9196110289703083  0.589465598987772  1.0000
  O   O3        1.0  0.4356467150573948  0.09514493371214167  0.5812284602239615  1.0000
  O   O4        1.0  0.1011159076901222  0.08931384407206619  0.4192619855534686  1.0000
  O   O5        1.0  0.09626397714762903  0.0861323190024379  0.5860714425471725  1.0000
  O   O6        1.0  0.44212647367972835  0.08979752131226347  0.4149178402586314  1.0000
  O   O7        1.0  0.6000216685895267  0.9042751687117342  0.42281220542346176  1.0000
  O   O8        1.0  0.9321111487293336  0.9088499054851693  0.5857299312796371  1.0000
  O   O9        1.0  0.2692877456587084  0.9387226064292019  0.5002686851094822  1.0000
  O   O10       1.0  0.7707442067185326  0.06011322007371689  0.4972632849950569  1.0000
  O   O11       1.0  0.9129471440936997  0.576549330975034  0.09248036477713129  1.0000
  O   O12       1.0  0.563173753172812  0.5876065016541219  0.9138044762046886  1.0000
  O   O13       1.0  0.3973033127481926  0.40199000537862867  0.9273852284751739  1.0000
  O   O14       1.0  0.0772829612032027  0.39834787537225935  0.0748554368025438  1.0000
  O   O15       1.0  0.060368237847363615  0.4146924657901749  0.9106702641516121  1.0000
  O   O16       1.0  0.41105083550271365  0.4221233756942906  0.0924272819950218  1.0000
  O   O17       1.0  0.5787713445972572  0.5991496242005921  0.0770681324766755  1.0000
  O   O18       1.0  0.9022150243857396  0.5992529689263719  0.9267049846328985  1.0000
  O   O19       1.0  0.2357789143240794  0.5605174139125777  0.0003501388301643  1.0000
  O   O20       1.0  0.7345606871792895  0.4392036017047187  0.9993318915095486  1.0000
  F   F1        1.0  0.4495253632837405  0.8950677959957642  0.7429365176044129  1.0000
  F   F2        1.0  0.44015758840264146  0.7740880440858714  0.8658913661572283  1.0000
  F   F3        1.0  0.9601503878242853  0.10549605283509317  0.2644312057977842  1.0000
  F   F4        1.0  0.9437559317853756  0.22597311969767733  0.141829757393424  1.0000
  F   F5        1.0  0.5647602881385865  0.1179445503584091  0.7411112088431152  1.0000
  F   F6        1.0  0.5481658317612953  0.23479964985584442  0.8659020431737545  1.0000
  F   F7        1.0  0.461816402271289  0.8877151971789271  0.2682659315224996  1.0000
  F   F8        1.0  0.4482199659435153  0.7701966922670561  0.1438807851155204  1.0000
