data_image0
_chemical_formula_structural       Cd2H20C24N12O4
_chemical_formula_sum              "Cd2 H20 C24 N12 O4"
_cell_length_a       7.768508943969002
_cell_length_b       9.805005622711711
_cell_length_c       10.793058804939406
_cell_angle_alpha    85.54816014547048
_cell_angle_beta     72.43332701171187
_cell_angle_gamma    87.04414076196097

_space_group_name_H-M_alt    "P 1"
_space_group_IT_number       1

loop_
  _space_group_symop_operation_xyz
  'x, y, z'

loop_
  _atom_site_type_symbol
  _atom_site_label
  _atom_site_symmetry_multiplicity
  _atom_site_fract_x
  _atom_site_fract_y
  _atom_site_fract_z
  _atom_site_occupancy
  Cd  Cd1       1.0  0.0979475307821289  0.1582268616749118  0.6001203760718636  1.0000
  Cd  Cd2       1.0  0.9020381697281721  0.8417785165170885  0.3998828169222506  1.0000
  H   H1        1.0  0.35813743437575607  0.26808365472489737  0.7689802750522644  1.0000
  H   H2        1.0  0.6418549637628034  0.7319205722208793  0.2310195878368048  1.0000
  H   H3        1.0  0.5799614545753968  0.1763371994556877  0.8839656117174639  1.0000
  H   H4        1.0  0.4200309503680018  0.82366908671478  0.11603500625813007  1.0000
  H   H5        1.0  0.6978726339980954  0.9344731722849957  0.8534792177722603  1.0000
  H   H6        1.0  0.30213986398881326  0.06553480173224811  0.1465128386475456  1.0000
  H   H7        1.0  0.5836869159498762  0.7901464765020592  0.7176173714681439  1.0000
  H   H8        1.0  0.4163149478666455  0.20985658422062406  0.28238036686750684  1.0000
  H   H9        1.0  0.2626799849471055  0.4489445353162083  0.6442114649325105  1.0000
  H   H10       1.0  0.7373181782742152  0.5510525515336511  0.35579505061178196  1.0000
  H   H11       1.0  0.1988244822373773  0.5776549858595106  0.2663469891477276  1.0000
  H   H12       1.0  0.801189756938463  0.42234900469816244  0.7336542569285811  1.0000
  H   H13       1.0  0.7496841471485852  0.10309314162716994  0.04504508064724186  1.0000
  H   H14       1.0  0.2503401031823671  0.8968913828313917  0.9549637675484487  1.0000
  H   H15       1.0  0.821766599422098  0.2753606399847045  0.04144866605752643  1.0000
  H   H16       1.0  0.17823874645480234  0.724624170647928  0.9585645940724419  1.0000
  H   H17       1.0  0.9638444681457655  0.13001939100586674  0.05974902023267251  1.0000
  H   H18       1.0  0.03617012787667307  0.869970340409765  0.9402579552056378  1.0000
  H   H19       1.0  0.47539838893867886  0.6905912146656021  0.5735725623854576  1.0000
  H   H20       1.0  0.5246142237780163  0.30942091665873767  0.4264237579493439  1.0000
  C   C1        1.0  0.4113384417074784  0.1629276798093926  0.75974867302358  1.0000
  C   C2        1.0  0.588648743789044  0.8370725881664286  0.2402564477289387  1.0000
  C   C3        1.0  0.5335324362583691  0.11082291074398398  0.8243082626219544  1.0000
  C   C4        1.0  0.46646784809790626  0.889182138976409  0.17568412054055219  1.0000
  C   C5        1.0  0.5969292240857557  0.9756424121250973  0.8082971331807157  1.0000
  C   C6        1.0  0.4030778121787293  0.0243728185611758  0.19169653180966148  1.0000
  C   C7        1.0  0.5334321814737281  0.8958137644902139  0.7310770796754014  1.0000
  C   C8        1.0  0.4665664156560895  0.10419631773095969  0.26890786824484536  1.0000
  C   C9        1.0  0.4083185733680495  0.955786027695474  0.6716872069694516  1.0000
  C   C10       1.0  0.5916737641619321  0.044220232569863106  0.3283115751781907  1.0000
  C   C11       1.0  0.32501296064724994  0.8792853106982366  0.5954019514833462  1.0000
  C   C12       1.0  0.6749819966546795  0.12072190591601381  0.40459428314630225  1.0000
  C   C13       1.0  0.2468057349947372  0.7109894886046959  0.5020724245349584  1.0000
  C   C14       1.0  0.7532000313397236  0.2890093405353086  0.4979191865572402  1.0000
  C   C15       1.0  0.24084733894848404  0.5740072555669117  0.46531826422701517  1.0000
  C   C16       1.0  0.7591479619078572  0.4259918666268164  0.5346850471102512  1.0000
  C   C17       1.0  0.2564044724664499  0.4566304111358264  0.5446688456385684  1.0000
  C   C18       1.0  0.7435935019655702  0.5433655748625624  0.45533224383558485  1.0000
  C   C19       1.0  0.2191393009588225  0.5216081406633322  0.35208241545154095  1.0000
  C   C20       1.0  0.7808616572140681  0.47838688493753523  0.6479254684718255  1.0000
  C   C21       1.0  0.9445160367523612  0.169735734315033  0.8657689066548712  1.0000
  C   C22       1.0  0.055483524103486594  0.8302654634957848  0.13423972183829844  1.0000
  C   C23       1.0  0.864182444772638  0.1715221091463235  0.011630439328385481  1.0000
  C   C24       1.0  0.13581727068958568  0.8284647518070473  0.9883784110429301  1.0000
  N   N1        1.0  0.35122428185744775  0.08765287147657828  0.6840214431480048  1.0000
  N   N2        1.0  0.6487604524006515  0.9123465049131667  0.31599081469239815  1.0000
  N   N3        1.0  0.19594461566662597  0.927420208986483  0.5451361497697035  1.0000
  N   N4        1.0  0.8040475867190581  0.07257571629767062  0.4548561032033546  1.0000
  N   N5        1.0  0.1461908381707389  0.8228102588705681  0.48692665332668367  1.0000
  N   N6        1.0  0.8538121061515441  0.17718753620510344  0.513061997799653  1.0000
  N   N7        1.0  0.35988996100362414  0.7450139866690506  0.5700719898844325  1.0000
  N   N8        1.0  0.6401088584634494  0.2549920677707079  0.4299178732605851  1.0000
  N   N9        1.0  0.22353950165298644  0.3847512223512338  0.36238354003611306  1.0000
  N   N10       1.0  0.7764503572604867  0.615240767843801  0.6376179300939526  1.0000
  N   N11       1.0  0.24524362367064617  0.344373772521081  0.4824631130437778  1.0000
  N   N12       1.0  0.7547462623034278  0.6556213129872788  0.5175399486730752  1.0000
  O   O1        1.0  0.9526301737461509  0.056084774344291995  0.8132539444105759  1.0000
  O   O2        1.0  0.047370521736674207  0.9439173484461704  0.18674878004684808  1.0000
  O   O3        1.0  0.0024331391000061015  0.28013116763765566  0.7984489242740977  1.0000
  O   O4        1.0  0.997554201637854  0.7198753298225142  0.20156213339392082  1.0000
