data_image0
_chemical_formula_structural       V4Cu3H4C4N6O12
_chemical_formula_sum              "V4 Cu3 H4 C4 N6 O12"
_cell_length_a       7.590354286399811
_cell_length_b       7.843051504149434
_cell_length_c       8.43588108868143
_cell_angle_alpha    63.14836862111097
_cell_angle_beta     64.6949155061422
_cell_angle_gamma    66.8165844946593

_space_group_name_H-M_alt    "P 1"
_space_group_IT_number       1

loop_
  _space_group_symop_operation_xyz
  'x, y, z'

loop_
  _atom_site_type_symbol
  _atom_site_label
  _atom_site_symmetry_multiplicity
  _atom_site_fract_x
  _atom_site_fract_y
  _atom_site_fract_z
  _atom_site_occupancy
  V   V1        1.0  0.3934331867996192  0.9784101398728566  0.7715229559830872  1.0000
  V   V2        1.0  0.6068601871551279  0.022844846080417397  0.22795788665735733  1.0000
  V   V3        1.0  0.1842566583565457  0.17561281157020403  0.12053539862416325  1.0000
  V   V4        1.0  0.8151038329050875  0.8253135340494282  0.8792333099731875  1.0000
  Cu  Cu1       1.0  0.5002512835377786  0.49947071532336906  0.999764046639761  1.0000
  Cu  Cu2       1.0  0.3168773986234044  0.6393683232232874  0.6771051561536368  1.0000
  Cu  Cu3       1.0  0.6827372035133408  0.3574046711655187  0.3253089223751004  1.0000
  H   H1        1.0  0.04063580951620349  0.7252467748116442  0.1794592915397573  1.0000
  H   H2        1.0  0.9593605237016972  0.2737315552417813  0.8208135938682232  1.0000
  H   H3        1.0  0.9617169687093962  0.7721244258571929  0.5143762298761346  1.0000
  H   H4        1.0  0.03909799847514249  0.2294447053112876  0.4845267756750714  1.0000
  C   C1        1.0  0.13545574221724613  0.6751194103435837  0.2658467768728839  1.0000
  C   C2        1.0  0.8646866250107195  0.3238983806773986  0.7343190509331662  1.0000
  C   C3        1.0  0.09690213295811394  0.6967068371629423  0.43258571056288986  1.0000
  C   C4        1.0  0.9035501164080556  0.30356392703408386  0.5670454510522518  1.0000
  N   N1        1.0  0.3295599843248381  0.5752855404488103  0.21854897343895635  1.0000
  N   N2        1.0  0.6699336899710956  0.42195980758221185  0.7827763604813925  1.0000
  N   N3        1.0  0.4087025937515066  0.535469062640388  0.34835780205741435  1.0000
  N   N4        1.0  0.5904631772326853  0.462293831022535  0.6523174064291624  1.0000
  N   N5        1.0  0.2693669264456773  0.6078030616204801  0.479912872341714  1.0000
  N   N6        1.0  0.7306258187887025  0.3915484614890731  0.5202719668960397  1.0000
  O   O1        1.0  0.3782773696027491  0.7420484563519094  0.8205015806864324  1.0000
  O   O2        1.0  0.6239745739940261  0.2597158319723363  0.17819898604377474  1.0000
  O   O3        1.0  0.6424197676252349  0.9736131032118819  0.7439045197160258  1.0000
  O   O4        1.0  0.357931943280434  0.028707855068987  0.2550343685395973  1.0000
  O   O5        1.0  0.3300656578479176  0.1340986858980173  0.5868990643011998  1.0000
  O   O6        1.0  0.6706387343553145  0.8677985862733734  0.41229717985924474  1.0000
  O   O7        1.0  0.22342485515635951  0.060369568110850494  0.9629557299780628  1.0000
  O   O8        1.0  0.7761238229370163  0.9403284463568512  0.03730855817305906  1.0000
  O   O9        1.0  0.051797764102914805  0.8065700992500098  0.7335327327430999  1.0000
  O   O10       1.0  0.9480148850124478  0.19247477516584868  0.26771680402800513  1.0000
  O   O11       1.0  0.23338005990381555  0.3936220273827261  0.9994189139704232  1.0000
  O   O12       1.0  0.7643738811887887  0.6080440118824413  0.9996463227343783  1.0000
