data_image0
_chemical_formula_structural       Na4H64C24S8N4O16
_chemical_formula_sum              "Na4 H64 C24 S8 N4 O16"
_cell_length_a       5.549300787
_cell_length_b       11.92918149365402
_cell_length_c       18.0113
_cell_angle_alpha    95.27410012604876
_cell_angle_beta     90.0
_cell_angle_gamma    90.0

_space_group_name_H-M_alt    "P 1"
_space_group_IT_number       1

loop_
  _space_group_symop_operation_xyz
  'x, y, z'

loop_
  _atom_site_type_symbol
  _atom_site_label
  _atom_site_symmetry_multiplicity
  _atom_site_fract_x
  _atom_site_fract_y
  _atom_site_fract_z
  _atom_site_occupancy
  Na  Na1       1.0  0.7597227401831219  0.582423420567018  0.015560134354260008  1.0000
  Na  Na2       1.0  0.2597174050064694  0.9175819421511662  0.9844409694202343  1.0000
  Na  Na3       1.0  0.24026630582423542  0.4175793127338849  0.9844386995535006  1.0000
  Na  Na4       1.0  0.7402680369432275  0.0824165819269567  0.015560939470212502  1.0000
  H   H1        1.0  0.18292755050835302  0.6647499251265998  0.6698712599256353  1.0000
  H   H2        1.0  0.6829310836561788  0.8352529120579177  0.3301308005072556  1.0000
  H   H3        1.0  0.817077713758465  0.3352780635109482  0.330128556331303  1.0000
  H   H4        1.0  0.3170687745241523  0.1647313006627726  0.6698719027223774  1.0000
  H   H5        1.0  0.3923791633535032  0.5597441282573925  0.6927217684133211  1.0000
  H   H6        1.0  0.8924025188184501  0.9402528160152458  0.30727771242842294  1.0000
  H   H7        1.0  0.6075990704808804  0.4402703908672763  0.3072677892944995  1.0000
  H   H8        1.0  0.1075991413907147  0.0597356059282248  0.6927280230956185  1.0000
  H   H9        1.0  0.7355287011224689  0.68002940379845  0.6581338783054846  1.0000
  H   H10       1.0  0.23553237608996375  0.8199658567850747  0.34186994168858587  1.0000
  H   H11       1.0  0.2644675530002019  0.3199800642588926  0.3418648104102502  1.0000
  H   H12       1.0  0.7644530658597404  0.1800175140910625  0.6581299342541272  1.0000
  H   H13       1.0  0.7339321035798108  0.7034857186322654  0.4902937276024559  1.0000
  H   H14       1.0  0.23395560086441952  0.7965238533086918  0.5097054116033634  1.0000
  H   H15       1.0  0.2660569424275465  0.2965111217567511  0.5097025267141575  1.0000
  H   H16       1.0  0.766087506007807  0.20348982397142382  0.49029408857874296  1.0000
  H   H17       1.0  0.6843817168636761  0.554790714896221  0.4772708239466041  1.0000
  H   H18       1.0  0.1844124222636054  0.9452196988892894  0.5227289217181054  1.0000
  H   H19       1.0  0.31560012102836776  0.4452078091819018  0.5227294193228218  1.0000
  H   H20       1.0  0.8156180704068206  0.0547855599452802  0.477266179496212  1.0000
  H   H21       1.0  0.8837185418906018  0.6119906850250203  0.5492007693944673  1.0000
  H   H22       1.0  0.3837492472905311  0.8880188869159368  0.45079614898332215  1.0000
  H   H23       1.0  0.11626329600144202  0.3880061553639962  0.4507977057501833  1.0000
  H   H24       1.0  0.6162866514663818  0.1119855300740724  0.549198345772119  1.0000
  H   H25       1.0  0.1099652052434337  0.7839256495442654  0.8368775544268702  1.0000
  H   H26       1.0  0.6099867586795469  0.7160729784174791  0.16311314560648071  1.0000
  H   H27       1.0  0.8900292468504105  0.216075400067524  0.16312173218415182  1.0000
  H   H28       1.0  0.3900094954431239  0.2839230201269842  0.8368763949741551  1.0000
  H   H29       1.0  0.0960877812298691  0.808936851271028  0.7409142249113216  1.0000
  H   H30       1.0  0.5960895123488612  0.6910567256233834  0.2590789436458324  1.0000
  H   H31       1.0  0.903912076950462  0.1910625146516551  0.2590849591959525  1.0000
  H   H32       1.0  0.4038761072837148  0.3089468495220729  0.7409154998577279  1.0000
  H   H33       1.0  0.3194294322903843  0.877359451161503  0.8000331027265589  1.0000
  H   H34       1.0  0.8194672039859655  0.6226408604893479  0.1999638070876344  1.0000
  H   H35       1.0  0.6805578116881392  0.1226449658285063  0.1999636128569122  1.0000
  H   H36       1.0  0.18052003999256533  0.37735682174422175  0.8000369401369198  1.0000
  H   H37       1.0  0.8847294800637755  0.8383593184655851  0.6310544587915885  1.0000
  H   H38       1.0  0.38473135300243655  0.6616342584288262  0.3689559211828382  1.0000
  H   H39       1.0  0.1152811902895294  0.1616417311462044  0.3689487142684912  1.0000
  H   H40       1.0  0.6152739112643815  0.3383608982710768  0.6310518899772148  1.0000
  H   H41       1.0  0.6975004867401537  0.9600976177084419  0.6400643818786875  1.0000
  H   H42       1.0  0.19748794344818071  0.5399001684087494  0.3599423679060507  1.0000
  H   H43       1.0  0.3025390160744195  0.0399076411261206  0.3599351609917036  1.0000
  H   H44       1.0  0.8025101127033241  0.46009330460204717  0.6400597886801692  1.0000
  H   H45       1.0  0.7156216886464507  0.8752725185098527  0.5522459692724411  1.0000
  H   H46       1.0  0.2156073433256509  0.6247269512964522  0.44776088301603784  1.0000
  H   H47       1.0  0.2844196161969564  0.12473358216927011  0.44775362484981684  1.0000
  H   H48       1.0  0.7844177432582882  0.3752606288024651  0.5522475772911762  1.0000
  H   H49       1.0  0.2112428295013586  0.6267793683213512  0.9245255001816445  1.0000
  H   H50       1.0  0.7112553727933317  0.8732192596403934  0.07547352795683791  1.0000
  H   H51       1.0  0.7887462165059987  0.3732183139122185  0.07547413662889821  1.0000
  H   H52       1.0  0.2887372772716859  0.1267801062822898  0.9245273217714641  1.0000
  H   H53       1.0  0.7161532871510589  0.3642147863973193  0.9192637191661319  1.0000
  H   H54       1.0  0.2161533580608932  0.1357844756417421  0.0807333488300301  1.0000
  H   H55       1.0  0.2838501750869327  0.6357837376808106  0.0807315272402107  1.0000
  H   H56       1.0  0.7838338859176375  0.8642140484363807  0.9192713360954629  1.0000
  H   H57       1.0  0.9814425652973711  0.5743029879902295  0.8823501857855263  1.0000
  H   H58       1.0  0.4814570524378396  0.9256956399715152  0.11764995276697482  1.0000
  H   H59       1.0  0.0185446786811525  0.42569806162156  0.11764743520446792  1.0000
  H   H60       1.0  0.5185373996560045  0.0742961493501682  0.8823532117295159  1.0000
  H   H61       1.0  0.6319588961938152  0.4687272623573406  0.8797647208894546  1.0000
  H   H62       1.0  0.1319625711613099  0.0312736833708342  0.1202324496104481  1.0000
  H   H63       1.0  0.3680301498135421  0.5312746290990091  0.1202346169734412  1.0000
  H   H64       1.0  0.8680264748460473  0.9687214733290759  0.8797686990654938  1.0000
  C   C1        1.0  0.5387579651483067  0.6685112865979903  0.8167665128092382  1.0000
  C   C2        1.0  0.0387670462022811  0.8314890250528606  0.1832342834540199  1.0000
  C   C3        1.0  0.4612256747725638  0.3315007069930118  0.1832267775920258  1.0000
  C   C4        1.0  0.9612201977762425  0.1684935039787234  0.8167688724788746  1.0000
  C   C5        1.0  0.3642837318776628  0.6505395890394965  0.691452592472892  1.0000
  C   C6        1.0  0.8642908690831419  0.8494699829014607  0.30855154359601045  1.0000
  C   C7        1.0  0.6357125222450151  0.3494732463960588  0.3085490772853774  1.0000
  C   C8        1.0  0.1357161972125027  0.1505226482647828  0.6914488961173078  1.0000
  C   C9        1.0  0.5498188181018477  0.6947919899135756  0.6385288363111954  1.0000
  C   C10       1.0  0.0498315032134897  0.8052074798927222  0.3614741295282187  1.0000
  C   C11       1.0  0.4501792380496497  0.3052115852318735  0.3614683832274111  1.0000
  C   C12       1.0  0.950175563082162  0.1947910441854077  0.6385283345692372  1.0000
  C   C13       1.0  0.7152973234571932  0.6264081148726319  0.5188903104523277  1.0000
  C   C14       1.0  0.2153298308859561  0.8736014570683253  0.4811071631324708  1.0000
  C   C15       1.0  0.2846935245789908  0.3735937765837178  0.4811084722035588  1.0000
  C   C16       1.0  0.7847132759862775  0.126407169144457  0.5188864774683142  1.0000
  C   C17       1.0  0.21713906783045905  0.7990544380407911  0.7877339202207239  1.0000
  C   C18       1.0  0.7171552151800853  0.7009450317655137  0.2122646039626233  1.0000
  C   C19       1.0  0.782857186292219  0.20095166263833164  0.21226345307350417  1.0000
  C   C20       1.0  0.2828302267696117  0.2990551760017226  0.7877368522245619  1.0000
  C   C21       1.0  0.7131294827756847  0.8741301354488158  0.613229759218072  1.0000
  C   C22       1.0  0.21312414759903225  0.6258735435802549  0.3867751285017392  1.0000
  C   C23       1.0  0.2868992078659147  0.12587259785208  0.38676685386165144  1.0000
  C   C24       1.0  0.7868991369560804  0.37412413865331473  0.6132328364139354  1.0000
  S   S1        1.0  0.5307695713485217  0.7271129279107384  0.9085049664110585  1.0000
  S   S2        1.0  0.0307660382006958  0.7728840163618997  0.0914939592236763  1.0000
  S   S3        1.0  0.4692374949471302  0.2728923309238311  0.09148957959624943  1.0000
  S   S4        1.0  0.9692266118643148  0.2271044055815707  0.9085106658863467  1.0000
  S   S5        1.0  0.7400734178296773  0.5641680213935132  0.788093615980344  1.0000
  S   S6        1.0  0.2400734887395117  0.9358289228791249  0.21190642006840932  1.0000
  S   S7        1.0  0.2599102220911931  0.4358288189955033  0.21190374875028792  1.0000
  S   S8        1.0  0.7599047450948718  0.0641637082871185  0.7880945748519181  1.0000
  N   N1        1.0  0.3792513833328854  0.704475727828857  0.7674694773109394  1.0000
  N   N2        1.0  0.8792621245960248  0.7955262675111072  0.23253086624905  1.0000
  N   N3        1.0  0.6207484748474528  0.2955379494512584  0.23252946766415764  1.0000
  N   N4        1.0  0.12073953561314002  0.204461312587803  0.7674664899179862  1.0000
  O   O1        1.0  0.6061772697346512  0.4299131773080589  0.9257180367765087  1.0000
  O   O2        1.0  0.10617013252916513  0.0700852428864494  0.0742800903817979  1.0000
  O   O3        1.0  0.39384241076280097  0.5700946070601702  0.0742872119195894  1.0000
  O   O4        1.0  0.8938044972475582  0.9299040209015744  0.9257251411871082  1.0000
  O   O5        1.0  0.0798460953924121  0.5714449257262686  0.9285048793299849  1.0000
  O   O6        1.0  0.5798388163672641  0.9285478093235965  0.0714937900453876  1.0000
  O   O7        1.0  0.9201483567014322  0.42855696573008123  0.0714966793609477  1.0000
  O   O8        1.0  0.420135813409459  0.0714448218426469  0.9285083152889585  1.0000
  O   O9        1.0  0.5128087500080198  0.6315189531655676  0.5688080964077217  1.0000
  O   O10       1.0  0.012826841206148703  0.8684914606199429  0.43119275967100634  1.0000
  O   O11       1.0  0.4871748899128506  0.3684896730472147  0.4311905410561394  1.0000
  O   O12       1.0  0.987180225089503  0.1315104308363999  0.5688110198479636  1.0000
  O   O13       1.0  0.5119131416799192  0.8116703205408626  0.6375817251727867  1.0000
  O   O14       1.0  0.011913212589753603  0.6883333584882081  0.36242149692599673  1.0000
  O   O15       1.0  0.4880993307022194  0.1883374638273665  0.3624146402111705  1.0000
  O   O16       1.0  0.9881046658788719  0.3116668492790282  0.6375866217452923  1.0000
