data_image0
_chemical_formula_structural       Mg4H72C56O8
_chemical_formula_sum              "Mg4 H72 C56 O8"
_cell_length_a       10.1533860177912
_cell_length_b       10.302139055893864
_cell_length_c       11.588881346060061
_cell_angle_alpha    90.00036659883914
_cell_angle_beta     90.00001404725585
_cell_angle_gamma    92.56803446329835

_space_group_name_H-M_alt    "P 1"
_space_group_IT_number       1

loop_
  _space_group_symop_operation_xyz
  'x, y, z'

loop_
  _atom_site_type_symbol
  _atom_site_label
  _atom_site_symmetry_multiplicity
  _atom_site_fract_x
  _atom_site_fract_y
  _atom_site_fract_z
  _atom_site_occupancy
  Mg  Mg1       1.0  0.24771417925133937  0.7679198333832956  0.9757909511318555  1.0000
  Mg  Mg2       1.0  0.7522854494741935  0.7320807438169937  0.4757918262537116  1.0000
  Mg  Mg3       1.0  0.7522850436135827  0.23208041925380485  0.024207564256108996  1.0000
  Mg  Mg4       1.0  0.2477157011264879  0.2679185410296441  0.5242084149238336  1.0000
  H   H1        1.0  0.014785729740054895  0.6695609921088561  0.11663093100709425  1.0000
  H   H2        1.0  0.9852101654162552  0.8304466915560837  0.6166348879738093  1.0000
  H   H3        1.0  0.9852124237027057  0.3304373153207365  0.8833701730634045  1.0000
  H   H4        1.0  0.014791027406552398  0.1695535649366562  0.3833653532064928  1.0000
  H   H5        1.0  0.06987974511096702  0.4218760668620831  0.07689214564882009  1.0000
  H   H6        1.0  0.9301134048002525  0.0781290896441647  0.5768972482494802  1.0000
  H   H7        1.0  0.9301194355326032  0.5781232141383016  0.9231089584245563  1.0000
  H   H8        1.0  0.0698858602875703  0.9218721346484174  0.42310385582941007  1.0000
  H   H9        1.0  0.32612403298097803  0.39268791617019627  0.12592702245532184  1.0000
  H   H10       1.0  0.6738711163597627  0.1073175994606714  0.6259296452447457  1.0000
  H   H11       1.0  0.6738763015295248  0.6073152533361537  0.8740732187331515  1.0000
  H   H12       1.0  0.3261281065059337  0.8926826531858084  0.3740714588313877  1.0000
  H   H13       1.0  0.4328278266337904  0.6230620191452305  0.1922688620018959  1.0000
  H   H14       1.0  0.5671639207369593  0.8769403749702178  0.6922695386441899  1.0000
  H   H15       1.0  0.5671695107182729  0.3769401729378217  0.8077305162874209  1.0000
  H   H16       1.0  0.43283525990634786  0.12305890602703332  0.30773070253312795  1.0000
  H   H17       1.0  0.2360386845549769  0.7928187123561157  0.20302186933690075  1.0000
  H   H18       1.0  0.763959021373715  0.7071847428709715  0.7030242154937836  1.0000
  H   H19       1.0  0.7639585261307077  0.20718056478863645  0.796977508944131  1.0000
  H   H20       1.0  0.23604217144909256  0.2928155136217612  0.2969760256865256  1.0000
  H   H21       1.0  0.5124984652406611  0.7424260651088519  0.8467922623108206  1.0000
  H   H22       1.0  0.48750301368394133  0.7575726096265712  0.3467923605684787  1.0000
  H   H23       1.0  0.4875007154023904  0.25757321588528015  0.15320711597043865  1.0000
  H   H24       1.0  0.5124971519380495  0.2424266732953697  0.6532078806089598  1.0000
  H   H25       1.0  0.33201568482339644  0.8816633590564323  0.7346075210018835  1.0000
  H   H26       1.0  0.6679847416928127  0.6183345009155375  0.23460773244507743  1.0000
  H   H27       1.0  0.6679845230204648  0.11833689550849157  0.2653918572822532  1.0000
  H   H28       1.0  0.3320154239291853  0.38166478200641046  0.765392508732354  1.0000
  H   H29       1.0  0.1360950534991687  0.5213467693351533  0.8564120219608778  1.0000
  H   H30       1.0  0.8639064734295019  0.9786529467453275  0.3564117313726454  1.0000
  H   H31       1.0  0.8639042538102686  0.4786554265972711  0.14358735632865915  1.0000
  H   H32       1.0  0.13609467717117954  0.021346338101309904  0.6435885098048997  1.0000
  H   H33       1.0  0.10120794085617041  0.7440509045961364  0.7389535127232917  1.0000
  H   H34       1.0  0.8987935576951641  0.7559489320816725  0.23895369269548172  1.0000
  H   H35       1.0  0.8987923514319435  0.255951293260985  0.26104586556636616  1.0000
  H   H36       1.0  0.10120665014921569  0.24405132248950423  0.7610474113807653  1.0000
  H   H37       1.0  0.3907064059964114  0.5217143449138746  0.9237377900778366  1.0000
  H   H38       1.0  0.6092941764203702  0.9782858570533361  0.42373744111842615  1.0000
  H   H39       1.0  0.6092917896679495  0.4782849341555675  0.07626158820331597  1.0000
  H   H40       1.0  0.390706889735803  0.0217114844979704  0.5762619371575467  1.0000
  H   H41       1.0  0.8157638661311565  0.0026017770759593994  0.8678733374001977  1.0000
  H   H42       1.0  0.18423695850614052  0.4973967583125758  0.3678738657494802  1.0000
  H   H43       1.0  0.1842362994905784  0.997397505842855  0.1321260408811824  1.0000
  H   H44       1.0  0.8157632493377209  0.5026034962523482  0.6321255125346565  1.0000
  H   H45       1.0  0.9799582153864109  0.06537366714069752  0.8433181004893482  1.0000
  H   H46       1.0  0.020041651735041896  0.434625660051843  0.3433182365652384  1.0000
  H   H47       1.0  0.020041007478766894  0.9346265854995295  0.15668127779467506  1.0000
  H   H48       1.0  0.9799585138869489  0.565373622870105  0.6566820046121931  1.0000
  H   H49       1.0  0.099643877301034  0.1667457050165737  0.9999425536363302  1.0000
  H   H50       1.0  0.9003560417388529  0.3332537853574351  0.4999423094512279  1.0000
  H   H51       1.0  0.9003563305428345  0.8332545495483501  5.682464780679998e-05  1.0000
  H   H52       1.0  0.09964416610552719  0.6667464692137345  0.5000587946250191  1.0000
  H   H53       1.0  0.021722904526335202  0.1736157012494886  0.13878006727492215  1.0000
  H   H54       1.0  0.9782769663217366  0.3263850588907076  0.63877968521448  1.0000
  H   H55       1.0  0.9782773455396524  0.8263855249615306  0.8612193110119717  1.0000
  H   H56       1.0  0.0217222143215707  0.6736142221065506  0.3612205559628378  1.0000
  H   H57       1.0  0.47353906436676846  0.8249088945767443  0.13631321832931317  1.0000
  H   H58       1.0  0.5264613875132441  0.6750901964957592  0.6363144670910044  1.0000
  H   H59       1.0  0.5264621284560392  0.17509136191599586  0.8636870228509889  1.0000
  H   H60       1.0  0.47353976308743745  0.32490908835087845  0.3636857740865409  1.0000
  H   H61       1.0  0.4643878351400659  0.9936828128167149  0.16764286295575903  1.0000
  H   H62       1.0  0.5356127200149031  0.5063184485447606  0.6676431566377798  1.0000
  H   H63       1.0  0.5356124149259288  0.0063184133943039004  0.8323565153311345  1.0000
  H   H64       1.0  0.46438847280790435  0.4936818079479792  0.33235708454252927  1.0000
  H   H65       1.0  0.36484555604066327  0.1307334622848586  0.019054881715994995  1.0000
  H   H66       1.0  0.6351542428451965  0.3692664303790423  0.5190538040846988  1.0000
  H   H67       1.0  0.6351536668250334  0.869266790361621  0.9809462223601383  1.0000
  H   H68       1.0  0.36484588055493106  0.6307318808999299  0.48094729998602737  1.0000
  H   H69       1.0  0.30793968148672235  0.0519326513270144  0.8888383437054512  1.0000
  H   H70       1.0  0.6920611557514889  0.4480660359606077  0.38883784167275326  1.0000
  H   H71       1.0  0.6920605263574018  0.9480676032410289  0.11116189747473726  1.0000
  H   H72       1.0  0.30793999484919243  0.55193324888603  0.6111623995047919  1.0000
  C   C1        1.0  0.1108892912063268  0.6280716544773668  0.12644885530642813  1.0000
  C   C2        1.0  0.889107468163246  0.8719331873077819  0.6264521634072151  1.0000
  C   C3        1.0  0.8891069767233122  0.3719285923950437  0.8735522487693569  1.0000
  C   C4        1.0  0.1108908963901456  0.1280699783523076  0.3735489406770824  1.0000
  C   C5        1.0  0.13901145414784108  0.496896477882622  0.10932776583559436  1.0000
  C   C6        1.0  0.8609808147235258  0.0031108549906662003  0.6093289761376679  1.0000
  C   C7        1.0  0.8609846871151631  0.5031008540483697  0.8906724753358614  1.0000
  C   C8        1.0  0.139016311518418  0.9968864788681414  0.3906721279299531  1.0000
  C   C9        1.0  0.27347505478108053  0.4817066018547751  0.13568317184844148  1.0000
  C   C10       1.0  0.7265169765989797  0.0182950921044238  0.6356853014452282  1.0000
  C   C11       1.0  0.726524168084616  0.5182936507917049  0.8643179322276919  1.0000
  C   C12       1.0  0.27348413177931963  0.9817032210929854  0.3643140768335086  1.0000
  C   C13       1.0  0.33005890413105726  0.6029343521041497  0.16937788701286385  1.0000
  C   C14       1.0  0.6699398509983183  0.8970708045685428  0.66937956342241  1.0000
  C   C15       1.0  0.6699394181996895  0.397067841903592  0.8306214912765665  1.0000
  C   C16       1.0  0.33006035684580587  0.1029294499995075  0.3306206777577855  1.0000
  C   C17       1.0  0.2301748167279953  0.6963833110630874  0.16370546227607718  1.0000
  C   C18       1.0  0.769820037299411  0.803622768458439  0.6637074937209915  1.0000
  C   C19       1.0  0.7698234211584989  0.30361693965245  0.8362939160078324  1.0000
  C   C20       1.0  0.2301811555236597  0.19637748803742036  0.3362936103553692  1.0000
  C   C21       1.0  0.40949845966028414  0.713399428718482  0.8330591778994286  1.0000
  C   C22       1.0  0.5905030532318349  0.7866001181569686  0.3330586006428077  1.0000
  C   C23       1.0  0.5905007632048935  0.2866008239217521  0.16694020038459453  1.0000
  C   C24       1.0  0.4094980973685908  0.2133991666865427  0.666940777638686  1.0000
  C   C25       1.0  0.3152989512908774  0.7867391922492999  0.7741520504258544  1.0000
  C   C26       1.0  0.6847024839725436  0.7132589561677207  0.2741519409800332  1.0000
  C   C27       1.0  0.6847012565529839  0.21326106231561687  0.22584732785828265  1.0000
  C   C28       1.0  0.3152986666278749  0.28674032867579063  0.7258474373014606  1.0000
  C   C29       1.0  0.21121606934300977  0.59684699551007  0.8386417629786675  1.0000
  C   C30       1.0  0.7887854891269229  0.90315356346288  0.3386418905233554  1.0000
  C   C31       1.0  0.7887831957440384  0.4031542287731326  0.16135675241205394  1.0000
  C   C32       1.0  0.2112166464524421  0.0968457233084479  0.6613583506543035  1.0000
  C   C33       1.0  0.1927408520069349  0.7143756966651722  0.7773574905394864  1.0000
  C   C34       1.0  0.8072606274056681  0.7856234466278094  0.2773586814569241  1.0000
  C   C35       1.0  0.8072584553022396  0.2856264992641329  0.22264102485399911  1.0000
  C   C36       1.0  0.1927405231950132  0.21437583821882802  0.7226415597206209  1.0000
  C   C37       1.0  0.3457723095480106  0.5964814470180287  0.8730497570248088  1.0000
  C   C38       1.0  0.6542282846247502  0.9035193593377998  0.37305071979227467  1.0000
  C   C39       1.0  0.6542269133169115  0.4035188056190719  0.12694875836315586  1.0000
  C   C40       1.0  0.345771965441756  0.096481866879472  0.6269503842867292  1.0000
  C   C41       1.0  0.91427474742801  0.015242082812676503  0.9061272920587198  1.0000
  C   C42       1.0  0.08572515744561568  0.4847576994675364  0.40612772695066457  1.0000
  C   C43       1.0  0.0857254604158513  0.9847581717522402  0.09387208622541718  1.0000
  C   C44       1.0  0.9142750503985012  0.5152425551005066  0.5938725142295309  1.0000
  C   C45       1.0  0.9667514841971467  0.8855043029294337  0.9387342929207702  1.0000
  C   C46       1.0  0.033249107234070215  0.6144960077032594  0.43873606805767185  1.0000
  C   C47       1.0  0.033248723646714495  0.11449595163549019  0.06126508536336669  1.0000
  C   C48       1.0  0.9667511006103099  0.3855042468679102  0.5612650360185751  1.0000
  C   C49       1.0  0.48144956482563833  0.9225236103294706  0.09924002986359427  1.0000
  C   C50       1.0  0.51854996423657  0.5774771534932129  0.5992407233126683  1.0000
  C   C51       1.0  0.5185496580398024  0.07747664231389001  0.9007602113164804  1.0000
  C   C52       1.0  0.48145118636411144  0.422522131353425  0.400759517864877  1.0000
  C   C53       1.0  0.38464420339418126  0.054128890204957314  0.9556765610709517  1.0000
  C   C54       1.0  0.6153567162401785  0.44587125301085  0.45567689252630555  1.0000
  C   C55       1.0  0.6153560466718063  0.9458723360060616  0.04432281721594929  1.0000
  C   C56       1.0  0.3846444343605029  0.5541280318357878  0.5443233486512468  1.0000
  O   O1        1.0  0.37657783033793635  0.9299781879513135  0.014757338208354995  1.0000
  O   O2        1.0  0.6234225907016652  0.5700209940270611  0.5147580125629003  1.0000
  O   O3        1.0  0.623422377505925  0.0700220666136104  0.9852420400757748  1.0000
  O   O4        1.0  0.37657855989876055  0.4299782908164502  0.4852413657185932  1.0000
  O   O5        1.0  0.9040685827947427  0.0968690918589274  0.008248797996642996  1.0000
  O   O6        1.0  0.09593120959629428  0.40313072251244353  0.5082486560962493  1.0000
  O   O7        1.0  0.09593158282725511  0.9031301910630208  0.9917514431807885  1.0000
  O   O8        1.0  0.9040689982480855  0.5968695320587328  0.4917524479799979  1.0000
