data_image0
_chemical_formula_structural       Zn2H28C28S4N4O10
_chemical_formula_sum              "Zn2 H28 C28 S4 N4 O10"
_cell_length_a       6.254090159156779
_cell_length_b       8.523694690429917
_cell_length_c       15.705420898913687
_cell_angle_alpha    95.6689592804792
_cell_angle_beta     90.03626108488575
_cell_angle_gamma    111.54754735701073

_space_group_name_H-M_alt    "P 1"
_space_group_IT_number       1

loop_
  _space_group_symop_operation_xyz
  'x, y, z'

loop_
  _atom_site_type_symbol
  _atom_site_label
  _atom_site_symmetry_multiplicity
  _atom_site_fract_x
  _atom_site_fract_y
  _atom_site_fract_z
  _atom_site_occupancy
  Zn  Zn1       1.0  0.5307199166199298  0.9997691198945234  0.7498769009727224  1.0000
  Zn  Zn2       1.0  0.4692828867887684  0.00022711606237639978  0.25012523511927026  1.0000
  H   H1        1.0  0.9812375548002733  0.031156618642100408  0.704395420170371  1.0000
  H   H2        1.0  0.9497024830647477  0.9683720731083627  0.7955141639837249  1.0000
  H   H3        1.0  0.01872271054357823  0.9688345193848846  0.2956013590278061  1.0000
  H   H4        1.0  0.0502676772773185  0.03162922978050631  0.20448760872688604  1.0000
  H   H5        1.0  0.13265476733227644  0.5804972098979277  0.8565807536880282  1.0000
  H   H6        1.0  0.5503655324246921  0.4187872336877446  0.643476215430901  1.0000
  H   H7        1.0  0.8673389771659146  0.41952566032320254  0.14342215681381276  1.0000
  H   H8        1.0  0.4496813167135159  0.5812140263917625  0.3565102615128238  1.0000
  H   H9        1.0  0.9708143369302037  0.2998610308183133  0.7730373606309013  1.0000
  H   H10       1.0  0.6698689004722311  0.699545747365832  0.7268358778358459  1.0000
  H   H11       1.0  0.02920687213215703  0.7001656285647115  0.22696001556582956  1.0000
  H   H12       1.0  0.3301544669925534  0.3004340283928427  0.2731730244880382  1.0000
  H   H13       1.0  0.3066423713500228  0.23500309656778742  0.8400395315315448  1.0000
  H   H14       1.0  0.07062755417470627  0.7645389683684841  0.6596305084898685  1.0000
  H   H15       1.0  0.6933585090632589  0.7649956805332039  0.15996401281075376  1.0000
  H   H16       1.0  0.9293524312388044  0.23542435145669321  0.34038899074373313  1.0000
  H   H17       1.0  0.436043027598437  0.5167146148968413  0.9256740580335927  1.0000
  H   H18       1.0  0.9175432230261719  0.4825898342319803  0.5741926611980546  1.0000
  H   H19       1.0  0.5639552839395635  0.4832854258156303  0.07432828014702858  1.0000
  H   H20       1.0  0.08249509606796589  0.5173911515784226  0.42579911125606873  1.0000
  H   H21       1.0  0.25709940181957364  0.9310716339985563  0.02549963369394701  1.0000
  H   H22       1.0  0.3249980580515199  0.06892541292568671  0.4744523326802791  1.0000
  H   H23       1.0  0.7428699690235661  0.06895372254616922  0.974490041049442  1.0000
  H   H24       1.0  0.6750756770413914  0.9310847751525272  0.5255473470395485  1.0000
  H   H25       1.0  0.2529695015480087  0.7261408935143407  0.9910147882520589  1.0000
  H   H26       1.0  0.5251186091727008  0.2741323180001274  0.50897952268312  1.0000
  H   H27       1.0  0.7470034475498865  0.27388832951142916  0.008992282123763599  1.0000
  H   H28       1.0  0.47493288338024103  0.7258588981949928  0.4910357112339127  1.0000
  C   C1        1.0  0.798999650187902  0.5718173356146606  0.9034226841820824  1.0000
  C   C2        1.0  0.2253312564687704  0.42744116268909244  0.5965280272054372  1.0000
  C   C3        1.0  0.2009979430709379  0.42820045456183203  0.09657804666161239  1.0000
  C   C4        1.0  0.7747169374398408  0.5725436097541348  0.4034582135899071  1.0000
  C   C5        1.0  0.9482766239801348  0.5097710037314088  0.8564262644043266  1.0000
  C   C6        1.0  0.4368211067828867  0.4895346148696333  0.6435616074961529  1.0000
  C   C7        1.0  0.0517193702105487  0.49024678621517376  0.14357446667994364  1.0000
  C   C8        1.0  0.5632184447255354  0.5104616016962282  0.3564335177954446  1.0000
  C   C9        1.0  0.8588240029100266  0.35235617652143253  0.808744530561654  1.0000
  C   C10       1.0  0.5052634747702316  0.6471196224837785  0.6910913946578745  1.0000
  C   C11       1.0  0.14118769047745178  0.6476578214967433  0.1912591809623194  1.0000
  C   C12       1.0  0.49475595135085376  0.35287788208712106  0.30891016922801373  1.0000
  C   C13       1.0  0.4878968799296146  0.3167407228376291  0.8452609905962659  1.0000
  C   C14       1.0  0.1699166939542281  0.6827128783124295  0.6545255735689179  1.0000
  C   C15       1.0  0.5121048812726485  0.6832758039573081  0.1547409461685376  1.0000
  C   C16       1.0  0.8300673873878425  0.3172491197988308  0.34547857368156787  1.0000
  C   C17       1.0  0.5616997348401469  0.47347671800124397  0.8934905978338958  1.0000
  C   C18       1.0  0.08661857374910656  0.525879336486824  0.606355339853465  1.0000
  C   C19       1.0  0.4383036661821933  0.5265334801527004  0.10651482405346258  1.0000
  C   C20       1.0  0.9134181537911631  0.4740952933001311  0.3936322760947276  1.0000
  C   C21       1.0  0.19347010457524771  0.8255426992224175  0.9737695058844549  1.0000
  C   C22       1.0  0.3665767938154119  0.17433124623261162  0.5262209440473666  1.0000
  C   C23       1.0  0.8065051044992302  0.17447508997882724  0.026231865169762596  1.0000
  C   C24       1.0  0.6334685440932121  0.8256637228864676  0.4737798448220545  1.0000
  C   C25       1.0  0.2982568137976643  0.8920224132654155  0.8907178559698747  1.0000
  C   C26       1.0  0.4057932138250421  0.10795697306345892  0.6091841009294824  1.0000
  C   C27       1.0  0.7016986005359129  0.10798140424915198  0.10927832164846758  1.0000
  C   C28       1.0  0.5941887997229713  0.8920456201851864  0.39082346872144297  1.0000
  S   S1        1.0  0.8857363237095227  0.7551835534382505  0.9745020582414623  1.0000
  S   S2        1.0  0.1285613332685571  0.24389890469118566  0.5255689030489491  1.0000
  S   S3        1.0  0.11424178093729864  0.2448304330210647  0.025499747807181398  1.0000
  S   S4        1.0  0.8714976182181928  0.7561010437981822  0.47440476807866355  1.0000
  N   N1        1.0  0.63367377741708  0.2532028731222126  0.8048666906545987  1.0000
  N   N2        1.0  0.3794811130478736  0.7463424616394932  0.6948832092399826  1.0000
  N   N3        1.0  0.3663324950445031  0.7468098646220228  0.19513950191887364  1.0000
  N   N4        1.0  0.6205022796877273  0.2536309480906879  0.3051202686668332  1.0000
  O   O1        1.0  0.18527341846788692  0.9392115472537274  0.8386870984018484  1.0000
  O   O2        1.0  0.24616337047555706  0.06079002258632472  0.6613992004014475  1.0000
  O   O3        1.0  0.8146682240243663  0.06080624833708011  0.1613174619168021  1.0000
  O   O4        1.0  0.7537761026222468  0.9391883851598523  0.3385848105339092  1.0000
  O   O5        1.0  0.5025317012337212  0.8990372289330538  0.8780937828600839  1.0000
  O   O6        1.0  0.6031378576987478  0.10091933168705221  0.6215569269214569  1.0000
  O   O7        1.0  0.4974106357890306  0.1009500741969376  0.12189515550788597  1.0000
  O   O8        1.0  0.396835008418492  0.8990680947195814  0.3784657595265059  1.0000
  O   O9        1.0  0.8681508799786358  0.9996199859812904  0.7498812568222917  1.0000
  O   O10       1.0  0.1318243959555545  0.00037877173620870004  0.2501178334719256  1.0000
