data_image0
_chemical_formula_structural       Cd2H32C32S2N8O8
_chemical_formula_sum              "Cd2 H32 C32 S2 N8 O8"
_cell_length_a       8.907956784009018
_cell_length_b       8.824198726596327
_cell_length_c       13.078622311703514
_cell_angle_alpha    101.06333961249899
_cell_angle_beta     90.00000070218331
_cell_angle_gamma    120.3148732530989

_space_group_name_H-M_alt    "P 1"
_space_group_IT_number       1

loop_
  _space_group_symop_operation_xyz
  'x, y, z'

loop_
  _atom_site_type_symbol
  _atom_site_label
  _atom_site_symmetry_multiplicity
  _atom_site_fract_x
  _atom_site_fract_y
  _atom_site_fract_z
  _atom_site_occupancy
  Cd  Cd1       1.0  0.4999994794713842  8.430932894e-07  8.778105779999998e-07  1.0000
  Cd  Cd2       1.0  0.5000006595731107  0.9999989248920684  0.49999983211100113  1.0000
  H   H1        1.0  0.9445430656460801  0.018176574483625505  0.07890622646344528  1.0000
  H   H2        1.0  0.926370427705038  0.9818273521664411  0.42109656977972065  1.0000
  H   H3        1.0  0.055457637857124  0.981826567123079  0.9210947917997314  1.0000
  H   H4        1.0  0.0736329652512993  0.018174432807612103  0.5789050316047833  1.0000
  H   H5        1.0  0.4193451878657655  0.8048436175675137  0.737650456763802  1.0000
  H   H6        1.0  0.6145029292854218  0.19515756985500585  0.7623501570461851  1.0000
  H   H7        1.0  0.58065528670177  0.1951568210087586  0.2623509644827066  1.0000
  H   H8        1.0  0.3854968823235509  0.8048415428162415  0.23764955754679556  1.0000
  H   H9        1.0  0.08803717267699072  0.6269531611437031  0.9731532045208693  1.0000
  H   H10       1.0  0.4610852445366049  0.37304452671179433  0.5268454114451727  1.0000
  H   H11       1.0  0.9119628627453692  0.3730486443135205  0.02684687034680169  1.0000
  H   H12       1.0  0.5389138989915238  0.6269532498099721  0.4731533597522952  1.0000
  H   H13       1.0  0.9270107993300414  0.3774124257715457  0.7826246197562055  1.0000
  H   H14       1.0  0.5495958053462788  0.6225828058217433  0.71737366828944  1.0000
  H   H15       1.0  0.07298855776692637  0.6225880230472711  0.21737603823202525  1.0000
  H   H16       1.0  0.4504033433041243  0.3774149809444864  0.28262433964999895  1.0000
  H   H17       1.0  0.06978777390836649  0.34574537130268373  0.6032129062223814  1.0000
  H   H18       1.0  0.7240448400314818  0.6542540805869451  0.8967859459453961  1.0000
  H   H19       1.0  0.9302111440434259  0.6542564443970846  0.39678640538701154  1.0000
  H   H20       1.0  0.27595497669976504  0.3457450423287654  0.10321300538955568  1.0000
  H   H21       1.0  0.2594824566493443  0.5468742899760884  0.5855744264162721  1.0000
  H   H22       1.0  0.7126077923366906  0.4531254558973359  0.9144252298493071  1.0000
  H   H23       1.0  0.7405180230404651  0.4531261588446469  0.4144262315722073  1.0000
  H   H24       1.0  0.28739089667943307  0.5468736567719931  0.08557448474341806  1.0000
  H   H25       1.0  0.07343521411200275  0.6853310851227266  0.5745941875161477  1.0000
  H   H26       1.0  0.388102268530055  0.31467046169859  0.9254072385697751  1.0000
  H   H27       1.0  0.9265666068617691  0.3146720462414336  0.42540759400531397  1.0000
  H   H28       1.0  0.6118959762186194  0.6853300076072343  0.07459189290213428  1.0000
  H   H29       1.0  0.8871015600172357  0.48335050460889323  0.5909954825789325  1.0000
  H   H30       1.0  0.40375185031347627  0.5166511419276176  0.9090036635962802  1.0000
  H   H31       1.0  0.11290027632336568  0.5166526574886491  0.40900400916844853  1.0000
  H   H32       1.0  0.5962493128240068  0.48335067377598046  0.09099564801362447  1.0000
  C   C1        1.0  0.2461935247482998  0.9985546142788594  0.12521118974967743  1.0000
  C   C2        1.0  0.24763803952451013  0.0014389145133720006  0.3747879203986599  1.0000
  C   C3        1.0  0.7538022510012966  0.0014431622371589069  0.8747875814470231  1.0000
  C   C4        1.0  0.7523622163519119  0.9985588415213869  0.6252123773151224  1.0000
  C   C5        1.0  0.11836371592206518  0.007693919812140801  0.19605328161520663  1.0000
  C   C6        1.0  0.11066862711865609  0.9923018498388744  0.3039461281408649  1.0000
  C   C7        1.0  0.8816342998909404  0.9923038464632513  0.8039462528400347  1.0000
  C   C8        1.0  0.8893336534893946  0.007699955622179305  0.6960539467273248  1.0000
  C   C9        1.0  0.9780928715930202  0.015114221434792798  0.1580392968196023  1.0000
  C   C10       1.0  0.9629808837859456  0.9848884888078544  0.3419625721023039  1.0000
  C   C11       1.0  0.021907158707065638  0.9848875737779679  0.8419615413060978  1.0000
  C   C12       1.0  0.03702318749579091  0.015114652804598406  0.6580384461616473  1.0000
  C   C13       1.0  0.30840833594628253  0.7248572774794797  0.7776712873050754  1.0000
  C   C14       1.0  0.5835523584832317  0.2751423316386549  0.7223283506023958  1.0000
  C   C15       1.0  0.6915910211506856  0.27514317133933724  0.22232937068315542  1.0000
  C   C16       1.0  0.4164474582480153  0.7248567912770483  0.2776706007325487  1.0000
  C   C17       1.0  0.13201236144569606  0.6260661154163715  0.8959454274725756  1.0000
  C   C18       1.0  0.5059470982527615  0.3739330397147285  0.6040556787579161  1.0000
  C   C19       1.0  0.8679887914472316  0.3739356797983078  0.10405541065338747  1.0000
  C   C20       1.0  0.4940538308267792  0.6260660627139745  0.39594479909334257  1.0000
  C   C21       1.0  0.05054024824846684  0.5038371674736339  0.8022560330172366  1.0000
  C   C22       1.0  0.5467018873765495  0.4961579097210987  0.6977422336986407  1.0000
  C   C23       1.0  0.9494579913779333  0.49616329158772743  0.19774386171270208  1.0000
  C   C24       1.0  0.453298383866695  0.5038398770470424  0.30225577424106115  1.0000
  C   C25       1.0  0.1312013878520801  0.49238367953454804  0.6154051809499989  1.0000
  C   C26       1.0  0.6388176538598955  0.5076157112240908  0.88459519227802  1.0000
  C   C27       1.0  0.8687979692448877  0.5076167692842689  0.3845954770382248  1.0000
  C   C28       1.0  0.36118103515622824  0.4923834014452453  0.11540452231469797  1.0000
  C   C29       1.0  0.01408275301886144  0.5383561506999326  0.5590429740975578  1.0000
  C   C30       1.0  0.4757254448283987  0.46164411846647363  0.9409567518119528  1.0000
  C   C31       1.0  0.9859184049963403  0.46164565475920244  0.44095710077036887  1.0000
  C   C32       1.0  0.5242739225131247  0.5383563508412621  0.05904237966021239  1.0000
  S   S1        1.0  0.8380525375326827  5.789392091101137e-06  0.25000223296374446  1.0000
  S   S2        1.0  0.1619502397806301  1.2874045296001857e-06  0.7500007224619407  1.0000
  N   N1        1.0  0.16408989862546963  0.5688493228284345  0.7284469193417279  1.0000
  N   N2        1.0  0.5952402685453251  0.4311487135394074  0.771552508042056  1.0000
  N   N3        1.0  0.8359094635937724  0.43115113623484563  0.2715529753884666  1.0000
  N   N4        1.0  0.4047599975756455  0.5688490629842775  0.22844626315566788  1.0000
  N   N5        1.0  0.292907534395269  0.7624726372764813  0.8794883441415278  1.0000
  N   N6        1.0  0.5304357950849905  0.23752685473395732  0.6205112780453347  1.0000
  N   N7        1.0  0.7070922720914227  0.2375264651503102  0.12051213370947517  1.0000
  N   N8        1.0  0.4695640165239753  0.7624722579372902  0.3794884365476391  1.0000
  O   O1        1.0  0.30647872137379284  0.8973983173867949  0.13623939758498685  1.0000
  O   O2        1.0  0.40908132582399764  0.10259021449766689  0.3637582795552062  1.0000
  O   O3        1.0  0.6935181769686524  0.1025994591311346  0.8637593736119694  1.0000
  O   O4        1.0  0.5909202782215957  0.8974035023610085  0.636241477746921  1.0000
  O   O5        1.0  0.2874007793301487  0.08873417849228102  0.053801913921766684  1.0000
  O   O6        1.0  0.19866512503546815  0.9112647021287542  0.4461994415127676  1.0000
  O   O7        1.0  0.7125974602962517  0.9112662805690808  0.9461979808081719  1.0000
  O   O8        1.0  0.8013353546543414  0.08873574669198091  0.553801216475719  1.0000
