data_image0
_chemical_formula_structural       Nd4H32C24O28
_chemical_formula_sum              "Nd4 H32 C24 O28"
_cell_length_a       7.8705852772906395
_cell_length_b       10.759224039218156
_cell_length_c       12.956666857983048
_cell_angle_alpha    95.38866387462694
_cell_angle_beta     107.69596454116457
_cell_angle_gamma    111.4420061588695

_space_group_name_H-M_alt    "P 1"
_space_group_IT_number       1

loop_
  _space_group_symop_operation_xyz
  'x, y, z'

loop_
  _atom_site_type_symbol
  _atom_site_label
  _atom_site_symmetry_multiplicity
  _atom_site_fract_x
  _atom_site_fract_y
  _atom_site_fract_z
  _atom_site_occupancy
  Nd  Nd1       1.0  0.8259574666339305  0.3109201043883231  0.770566000510726  1.0000
  Nd  Nd2       1.0  0.24444722247911005  0.18908257444820006  0.7294488838602148  1.0000
  Nd  Nd3       1.0  0.17404339567184476  0.6890794023883019  0.22943419388881373  1.0000
  Nd  Nd4       1.0  0.7555545619906282  0.810917956411508  0.27055048321467706  1.0000
  H   H1        1.0  0.906091983917669  0.5853691661677302  0.9135167629917829  1.0000
  H   H2        1.0  0.9072912483175273  0.9146267127682389  0.5864693496187312  1.0000
  H   H3        1.0  0.0939077915157895  0.4146303412258376  0.08648367774959094  1.0000
  H   H4        1.0  0.09271022263398983  0.0853738203648007  0.41353103591979584  1.0000
  H   H5        1.0  0.6668366719530853  0.5051325594342514  0.8570294743601748  1.0000
  H   H6        1.0  0.8048561188924949  0.9948871755423879  0.6430292076065098  1.0000
  H   H7        1.0  0.3331637121261153  0.4948679743157313  0.14297115752017922  1.0000
  H   H8        1.0  0.19514256966865426  0.0051123324681228  0.35697147947669805  1.0000
  H   H9        1.0  0.4756442195711087  0.7890147360615882  0.6426753535517303  1.0000
  H   H10       1.0  0.5438581159028856  0.711088337224531  0.8573774206219013  1.0000
  H   H11       1.0  0.5243547825082543  0.21098476967559066  0.35732431506784207  1.0000
  H   H12       1.0  0.45614180834044765  0.2889121925957312  0.1426214206730235  1.0000
  H   H13       1.0  0.41762253479582506  0.8268453517583864  0.5109902159049822  1.0000
  H   H14       1.0  0.579722439269787  0.67315960946933  0.9890342483817489  1.0000
  H   H15       1.0  0.5823759890569705  0.17315518095214338  0.4890098901954047  1.0000
  H   H16       1.0  0.4202785718458628  0.32684091973398205  0.010964346571348812  1.0000
  H   H17       1.0  0.1394217160469679  0.6321529938635564  0.5386271788348792  1.0000
  H   H18       1.0  0.4686138485990197  0.8679775588967685  0.9615072409704124  1.0000
  H   H19       1.0  0.8605763638684324  0.3678454877905394  0.4613733171093342  1.0000
  H   H20       1.0  0.531384380126255  0.13202194518402166  0.03849165552736615  1.0000
  H   H21       1.0  0.12824140507763795  0.756520371125127  0.6351664141980392  1.0000
  H   H22       1.0  0.2364910801317492  0.743653873979447  0.8648997420791033  1.0000
  H   H23       1.0  0.8717571187751576  0.24348016158540284  0.36483369190235476  1.0000
  H   H24       1.0  0.7635062264295627  0.2563446060182669  0.1350999817433162  1.0000
  H   H25       1.0  0.39353861893620484  0.5029248247041451  0.5821701399462852  1.0000
  H   H26       1.0  0.8085070598478834  0.9972142780065096  0.9178462560727493  1.0000
  H   H27       1.0  0.6064606966613865  0.4970746787597022  0.41782851020965217  1.0000
  H   H28       1.0  0.19149380245789163  0.0027852287701150996  0.08215393832678328  1.0000
  H   H29       1.0  0.3170589832774695  0.3637956987422086  0.47278045309022315  1.0000
  H   H30       1.0  0.980620106861487  0.1362671800700994  0.027270559862053116  1.0000
  H   H31       1.0  0.6829403139294214  0.6362048356247172  0.5272204251319648  1.0000
  H   H32       1.0  0.019380755444288255  0.8637323267065328  0.9727296345374866  1.0000
  C   C1        1.0  0.4499307250124788  0.9795341537813158  0.6415035817494399  1.0000
  C   C2        1.0  0.32869614544834763  0.5206124282212342  0.8584707254524914  1.0000
  C   C3        1.0  0.5500698237750756  0.020465355268648  0.35849763111372807  1.0000
  C   C4        1.0  0.6713062819563119  0.47938605096509673  0.1415287851244002  1.0000
  C   C5        1.0  0.38316962638823776  0.829653659211722  0.5870595603733333  1.0000
  C   C6        1.0  0.46638485828755444  0.6704524514897938  0.9129796321675767  1.0000
  C   C7        1.0  0.6168290621729113  0.17034584879878878  0.41294112670987454  1.0000
  C   C8        1.0  0.5336138486642951  0.3295460256176383  0.0870188268493805  1.0000
  C   C9        1.0  0.16585852562837292  0.7404220153067556  0.5617010845108936  1.0000
  C   C10       1.0  0.36368855610237444  0.7597259356805564  0.9383787139261981  1.0000
  C   C11       1.0  0.8341412498050857  0.25957749208681236  0.43829935623047317  1.0000
  C   C12       1.0  0.6363107594952169  0.24027356778329076  0.0616199362297393  1.0000
  C   C13       1.0  0.028399833626643466  0.7664323473212703  0.46472729841295984  1.0000
  C   C14       1.0  0.2972295240792063  0.7335692717024002  0.03530205905831703  1.0000
  C   C15       1.0  0.9716010286791316  0.23356715945535447  0.5352728959865799  1.0000
  C   C16       1.0  0.7027688693544221  0.26642920767836387  0.9646974184222684  1.0000
  C   C17       1.0  0.5776001546175209  0.39769437301637106  0.6056034719012187  1.0000
  C   C18       1.0  0.07435818546218793  0.10229611637497268  0.8944392560710169  1.0000
  C   C19       1.0  0.42239650900886977  0.6023061586547129  0.39439610841920814  1.0000
  C   C20       1.0  0.9256437637158969  0.8977033897847094  0.1055606919866959  1.0000
  C   C21       1.0  0.4483440089904746  0.4517947416640025  0.530630014113555  1.0000
  C   C22       1.0  0.9659901768574813  0.04825799831531439  0.9694007409619444  1.0000
  C   C23       1.0  0.5516531328624836  0.5482047630337304  0.4693691287260504  1.0000
  C   C24       1.0  0.03401068544829378  0.9517415084613104  0.030599453437595413  1.0000
  O   O1        1.0  0.6305366761425474  0.06033150224320849  0.6670184613869451  1.0000
  O   O2        1.0  0.4028898960655243  0.43973305385588196  0.8329590952039394  1.0000
  O   O3        1.0  0.3694654193531905  0.939668010119533  0.33298429571982513  1.0000
  O   O4        1.0  0.5971126617583095  0.5602674786602078  0.16704104399275363  1.0000
  O   O5        1.0  0.32271594601323983  0.015370033091549799  0.6581543163870974  1.0000
  O   O6        1.0  0.14898994275911556  0.4848383666989802  0.8417666528566272  1.0000
  O   O7        1.0  0.6772844380659605  0.9846305006584328  0.3418463154932636  1.0000
  O   O8        1.0  0.8510116929007482  0.5151611417340404  0.15823431366471377  1.0000
  O   O9        1.0  0.025798206416268902  0.7341459273075157  0.36582241601769977  1.0000
  O   O10       1.0  0.42591275280341995  0.7657816344036448  0.13419335561597723  1.0000
  O   O11       1.0  0.9741986219184753  0.265853579663549  0.6341777452855407  1.0000
  O   O12       1.0  0.5740868579216921  0.23421889768994214  0.8658065041425826  1.0000
  O   O13       1.0  0.9103343050181606  0.8161716627809169  0.4773088010574609  1.0000
  O   O14       1.0  0.11686156926771213  0.6837946914394378  0.022718360960041643  1.0000
  O   O15       1.0  0.08966469706120965  0.18382784295625498  0.5226908675621118  1.0000
  O   O16       1.0  0.8831363459393414  0.316204814914677  0.977281554001358  1.0000
  O   O17       1.0  0.7553308210760149  0.435407283521478  0.6170361383529864  1.0000
  O   O18       1.0  0.2029884899789708  0.06458970396970899  0.8830736848203884  1.0000
  O   O19       1.0  0.24467030206810844  0.5645963299146786  0.38296531328616357  1.0000
  O   O20       1.0  0.7970111207461413  0.9354108281238848  0.11692617493817162  1.0000
  O   O21       1.0  0.5021194676377547  0.3094739377718199  0.6585395550127089  1.0000
  O   O22       1.0  0.034062227581664155  0.1904872083204054  0.8414627185052622  1.0000
  O   O23       1.0  0.4978817081862417  0.6905255667314734  0.3414596209232029  1.0000
  O   O24       1.0  0.9659378613700225  0.8095122967998306  0.15853670377247633  1.0000
  O   O25       1.0  0.7923829509616526  0.5194948958816141  0.847682736318397  1.0000
  O   O26       1.0  0.9254059056658475  0.9805299263629406  0.6523167773331904  1.0000
  O   O27       1.0  0.20761868469821818  0.4805046125514067  0.15231823020294394  1.0000
  O   O28       1.0  0.0745941832858321  0.019469578757295398  0.34768264494455536  1.0000
