data_image0
_chemical_formula_structural       Zn4H28C58N16Cl2
_chemical_formula_sum              "Zn4 H28 C58 N16 Cl2"
_cell_length_a       18.52121946376109
_cell_length_b       18.509018499615777
_cell_length_c       18.55934261506432
_cell_angle_alpha    101.12566724812486
_cell_angle_beta     109.81176721451975
_cell_angle_gamma    111.11850995326274

_space_group_name_H-M_alt    "P 1"
_space_group_IT_number       1

loop_
  _space_group_symop_operation_xyz
  'x, y, z'

loop_
  _atom_site_type_symbol
  _atom_site_label
  _atom_site_symmetry_multiplicity
  _atom_site_fract_x
  _atom_site_fract_y
  _atom_site_fract_z
  _atom_site_occupancy
  Zn  Zn1       1.0  0.8959582502562071  0.005511222172863556  0.3832326739048427  1.0000
  Zn  Zn2       1.0  0.1082729744004212  0.9915762223856105  0.5893667500708164  1.0000
  Zn  Zn3       1.0  0.11309425727962008  0.11248960125008982  0.4823913825794365  1.0000
  Zn  Zn4       1.0  0.894598140031526  0.8915507661397298  0.5016387280598879  1.0000
  H   H1        1.0  0.8785619431955991  0.8914306704115016  0.21610761080964358  1.0000
  H   H2        1.0  0.14686593257396646  0.9680305784949751  0.7698518115259818  1.0000
  H   H3        1.0  0.5568870385017418  0.4548281775703556  0.8866917952771518  1.0000
  H   H4        1.0  0.471173944754092  0.4822901324722436  0.10917210883364702  1.0000
  H   H5        1.0  0.14740133347051199  0.8611172052021556  0.49096082081668874  1.0000
  H   H6        1.0  0.855516338758221  0.15547508712703006  0.32582711385643404  1.0000
  H   H7        1.0  0.3178418225026006  0.16326857009693188  0.496495685433807  1.0000
  H   H8        1.0  0.8512879366855941  0.9889472720802531  0.6306409572405515  1.0000
  H   H9        1.0  0.3071065284620289  0.007538281255179398  0.6435145130129599  1.0000
  H   H10       1.0  0.8521736512435396  0.13614030364642815  0.4747858046277501  1.0000
  H   H11       1.0  0.7426878373635972  0.8550701574734277  0.20894206078200034  1.0000
  H   H12       1.0  0.16711867559576626  0.1101970362497369  0.7634741516690228  1.0000
  H   H13       1.0  0.8676866788587815  0.7232115898549694  0.3804858757432116  1.0000
  H   H14       1.0  0.13430021414113466  0.29141840895412224  0.4657364547682691  1.0000
  H   H15       1.0  0.1581247392896472  0.024550479713219903  0.35153518513725157  1.0000
  H   H16       1.0  0.8668457003004375  0.8427842499156382  0.6588064689711005  1.0000
  H   H17       1.0  0.6467789857311529  0.45425956752821844  0.043421049008024605  1.0000
  H   H18       1.0  0.380674237317443  0.4835068460418058  0.9515093457272671  1.0000
  H   H19       1.0  0.6177600283107195  0.36803588262083037  0.1309959238442531  1.0000
  H   H20       1.0  0.5488192487972013  0.3842461995946422  0.17198567692530997  1.0000
  H   H21       1.0  0.5399346607709886  0.2834322779981803  0.1385881899628671  1.0000
  H   H22       1.0  0.4191489388134784  0.2924863133587862  0.03193151381984191  1.0000
  H   H23       1.0  0.4895305406263616  0.27875402716288983  0.9925488735272554  1.0000
  H   H24       1.0  0.5075097617305245  0.549206857269958  0.8247106133658377  1.0000
  H   H25       1.0  0.42421737746782634  0.5611601191873062  0.8439178311295594  1.0000
  H   H26       1.0  0.5089044081848613  0.6475052969276903  0.8455151436592986  1.0000
  H   H27       1.0  0.5351463791372025  0.6575212237020125  0.9907979828133621  1.0000
  H   H28       1.0  0.6168328495994615  0.644319179097401  0.9702714374198396  1.0000
  C   C1        1.0  0.9453771930704916  0.9289832844987485  0.26182056337564313  1.0000
  C   C2        1.0  0.07797109536893027  0.9386465771661107  0.7295905112551893  1.0000
  C   C3        1.0  0.009154988497570602  0.7592478090908372  0.4228346901487471  1.0000
  C   C4        1.0  0.9939216244557441  0.25630775810781603  0.39218896471172837  1.0000
  C   C5        1.0  0.3498218093402271  0.09002370268535027  0.5756026390986193  1.0000
  C   C6        1.0  0.8311450724888019  0.07717341267920125  0.5665744818450307  1.0000
  C   C7        1.0  0.7141202329721779  0.7527872375156478  0.2595491987194479  1.0000
  C   C8        1.0  0.23079402806350657  0.22109550122140575  0.7332688677144077  1.0000
  C   C9        1.0  0.4996558621453102  0.39974607471592083  0.01813949756291324  1.0000
  C   C10       1.0  0.5280302123887138  0.5376193933646218  0.9765896918825306  1.0000
  C   C11       1.0  0.5874567991022699  0.46088517870442286  0.023001886465372857  1.0000
  C   C12       1.0  0.4405871295409013  0.4780439678502899  0.9730299458775421  1.0000
  C   C13       1.0  0.6703243886735919  0.6776856632217588  0.19244219033693358  1.0000
  C   C14       1.0  0.3061627814908618  0.2804404481284095  0.8041300787887594  1.0000
  C   C15       1.0  0.48899228131855915  0.47545456117330787  0.05866892783836868  1.0000
  C   C16       1.0  0.5378687062392656  0.46133477447730087  0.9364196340933832  1.0000
  C   C17       1.0  0.5779585404899803  0.5378376393986882  0.06547963678539036  1.0000
  C   C18       1.0  0.4481854113433598  0.4004075806522066  0.9300598388279654  1.0000
  C   C19       1.0  0.6349879262161336  0.6121041161315545  0.13486144016903978  1.0000
  C   C20       1.0  0.37524362166389835  0.3329603546258255  0.8614155941271806  1.0000
  C   C21       1.0  0.011259867370355892  0.6834219740777954  0.40226910470014593  1.0000
  C   C22       1.0  0.9931619168063577  0.3303888957517458  0.3868569334933768  1.0000
  C   C23       1.0  0.07839493147641718  0.840034528059796  0.46914307875092487  1.0000
  C   C24       1.0  0.9241315344879621  0.17585630951770528  0.36081833597848617  1.0000
  C   C25       1.0  0.0083866580632304  0.6145401446441524  0.3922935179390948  1.0000
  C   C26       1.0  0.9962410923408667  0.39750729470382135  0.38493394305862694  1.0000
  C   C27       1.0  0.004665508650781201  0.5398453794089803  0.3863743996148514  1.0000
  C   C28       1.0  0.00020714901652499766  0.471153837304854  0.38455664884430973  1.0000
  C   C29       1.0  0.7759982059291345  0.10105594703446737  0.5894345434934537  1.0000
  C   C30       1.0  0.4322555274216596  0.10034960146255398  0.5876414025951605  1.0000
  C   C31       1.0  0.717343048725013  0.11105891713129522  0.5994360529114362  1.0000
  C   C32       1.0  0.5038298877158524  0.10811715229512224  0.5959935568229114  1.0000
  C   C33       1.0  0.6480376040385636  0.11532675733796785  0.6037166804877998  1.0000
  C   C34       1.0  0.5799801195524023  0.11358818970245459  0.6018967444276483  1.0000
  C   C35       1.0  0.025548319188324287  0.9279293460840916  0.1765041609460525  1.0000
  C   C36       1.0  0.012036685793731294  0.9023014434439887  0.8245811563038076  1.0000
  C   C37       1.0  0.025133447929263794  0.9175634489294352  0.10878336609368235  1.0000
  C   C38       1.0  0.016076815423346616  0.9033800767288507  0.8923864465965892  1.0000
  C   C39       1.0  0.023310249875557097  0.9101361277731713  0.034822589263306704  1.0000
  C   C40       1.0  0.0201441837298333  0.9060591371479416  0.9664130594376134  1.0000
  C   C41       1.0  0.30059902568734037  0.12292256935969452  0.5296970835473546  1.0000
  C   C42       1.0  0.8587265249011364  0.018697165243736293  0.5867988336410478  1.0000
  C   C43       1.0  0.7390640160358258  0.7653922157028106  0.3436025325340071  1.0000
  C   C44       1.0  0.201167776782242  0.22632003833894745  0.6544537968377003  1.0000
  C   C45       1.0  0.29520898082807173  0.043378208375763415  0.6050667697302502  1.0000
  C   C46       1.0  0.8591061894763069  0.09408708668772185  0.5069553221316667  1.0000
  C   C47       1.0  0.7485650006097585  0.8347993698094883  0.26087504411667356  1.0000
  C   C48       1.0  0.17050441780416745  0.14097978059951535  0.7196115976002632  1.0000
  C   C49       1.0  0.9349356358889904  0.7698444204772341  0.4123962580981483  1.0000
  C   C50       1.0  0.06682913614953627  0.245342514759038  0.4321918165651439  1.0000
  C   C51       1.0  0.08870701187674257  0.9971478265197148  0.3308252213133899  1.0000
  C   C52       1.0  0.9347027225882343  0.8744527543749072  0.6728727720032667  1.0000
  C   C53       1.0  0.021100376752457392  0.947020697348684  0.2511282072291011  1.0000
  C   C54       1.0  0.0083462133371697  0.9041360009409939  0.7484641723700777  1.0000
  C   C55       1.0  0.48559604694673186  0.32285527145287307  0.038664153492739176  1.0000
  C   C56       1.0  0.5515382417148657  0.34053837683528326  0.12483763977368059  1.0000
  C   C57       1.0  0.5470943418963614  0.6132010182356568  0.9535374427898377  1.0000
  C   C58       1.0  0.4939638865883467  0.5917627379387581  0.8618825964046906  1.0000
  N   N1        1.0  0.9670068649153336  0.9670539253866579  0.34075669603961983  1.0000
  N   N2        1.0  0.0480523832031352  0.93034956413031  0.6501495149398053  1.0000
  N   N3        1.0  0.04694209383239209  0.8929231882556438  0.48604644543138426  1.0000
  N   N4        1.0  0.9535489389098472  0.12231592146954275  0.38032061793634153  1.0000
  N   N5        1.0  0.22415082570097408  0.0977635403984536  0.5319142126785223  1.0000
  N   N6        1.0  0.8970858902336969  0.0011368496119104343  0.5409201969618778  1.0000
  N   N7        1.0  0.7863923559377921  0.846513599331679  0.390535022787617  1.0000
  N   N8        1.0  0.1310719904894881  0.15552189666186678  0.5991666889089445  1.0000
  N   N9        1.0  0.22076739366870865  0.048488934333576574  0.5788294255091132  1.0000
  N   N10       1.0  0.8973916798329283  0.047316435945752716  0.4918892580272713  1.0000
  N   N11       1.0  0.7918421990257156  0.8899658558998806  0.3382699349978253  1.0000
  N   N12       1.0  0.1121860858250656  0.10176241388444401  0.6393237051790521  1.0000
  N   N13       1.0  0.9589493204482264  0.849816036188457  0.45125416258959217  1.0000
  N   N14       1.0  0.04227418979983359  0.1656775618529663  0.42487212119224443  1.0000
  N   N15       1.0  0.0548327816489333  0.008922442770000306  0.3830893013303438  1.0000
  N   N16       1.0  0.9590484168407798  0.8903009290328967  0.6149316380047409  1.0000
  Cl  Cl1       1.0  0.7169249875493476  0.6925611026024467  0.38770463650867265  1.0000
  Cl  Cl2       1.0  0.24740266859716084  0.3067647302587772  0.6264509380732549  1.0000
