data_image0
_chemical_formula_structural       Zn2H38C52N4Cl2O12
_chemical_formula_sum              "Zn2 H38 C52 N4 Cl2 O12"
_cell_length_a       9.698777384884847
_cell_length_b       11.00229548288643
_cell_length_c       23.554699148962218
_cell_angle_alpha    90.22327256289006
_cell_angle_beta     88.98250278411055
_cell_angle_gamma    89.69226538936225

_space_group_name_H-M_alt    "P 1"
_space_group_IT_number       1

loop_
  _space_group_symop_operation_xyz
  'x, y, z'

loop_
  _atom_site_type_symbol
  _atom_site_label
  _atom_site_symmetry_multiplicity
  _atom_site_fract_x
  _atom_site_fract_y
  _atom_site_fract_z
  _atom_site_occupancy
  Zn  Zn1       1.0  0.6392325415294878  0.5078163394321037  0.5015085840092581  1.0000
  Zn  Zn2       1.0  0.354325449869151  0.5085233522528512  0.5064406189553808  1.0000
  H   H1        1.0  0.22002125896212724  0.6413923213849061  0.9495726393890681  1.0000
  H   H2        1.0  0.3190754542525625  0.37021596578086496  0.6747116377882423  1.0000
  H   H3        1.0  0.6921610952237671  0.5741838527517873  0.6910493312747549  1.0000
  H   H4        1.0  0.3155028120622134  0.8974791855407181  0.5645037891718874  1.0000
  H   H5        1.0  0.8025730418313018  0.12003294448550861  0.45042470242027843  1.0000
  H   H6        1.0  0.6900896133544947  0.8870834190340416  0.39667719557083814  1.0000
  H   H7        1.0  0.8071571631571145  0.893402823964081  0.45414446465137115  1.0000
  H   H8        1.0  0.11409249951305611  0.5900772464001494  0.584525619418038  1.0000
  H   H9        1.0  0.8544235217589744  0.592831590923609  0.5784254023186364  1.0000
  H   H10       1.0  0.8814682836481539  0.3171984169002116  0.3995483686837247  1.0000
  H   H11       1.0  0.1355020983686899  0.2989204674482196  0.41229634145409483  1.0000
  H   H12       1.0  0.16205407664498486  0.439248164909806  0.3756334938979506  1.0000
  H   H13       1.0  0.6853580473975994  0.19322271312991293  0.05832604195562401  1.0000
  H   H14       1.0  0.6937599868163105  0.19330287622987893  0.9507481548017441  1.0000
  H   H15       1.0  0.38329203624202524  0.2623243661020211  0.23669594653380707  1.0000
  H   H16       1.0  0.3971658389727111  0.30294937361836116  0.3409464563636604  1.0000
  H   H17       1.0  0.5473578586802574  0.6177691519977274  0.2034223469978542  1.0000
  H   H18       1.0  0.309891541189586  0.3410932933457289  0.7804141180624671  1.0000
  H   H19       1.0  0.65708540834639  0.7573125152107212  0.7908287038968144  1.0000
  H   H20       1.0  0.5760910207563724  0.6955148931409667  0.8519322749342992  1.0000
  H   H21       1.0  0.7538778936990767  0.735165093619436  0.8534238972985764  1.0000
  H   H22       1.0  0.7357728463806339  0.5099437287995842  0.8430017547914519  1.0000
  H   H23       1.0  0.8100663811305963  0.5729080059376699  0.7813183894991271  1.0000
  H   H24       1.0  0.8735838025406083  0.14989688719882824  0.3402909391673958  1.0000
  H   H25       1.0  0.787188898728637  0.014571734858819204  0.3213418560054535  1.0000
  H   H26       1.0  0.738271022628652  0.15508788924724126  0.29043427081110457  1.0000
  H   H27       1.0  0.5666094532202095  0.09470308422843489  0.36591476802904316  1.0000
  H   H28       1.0  0.6487789495494312  0.23129053698077234  0.3843528247912646  1.0000
  H   H29       1.0  0.9006835424906328  0.6633779636208317  0.3834919222319187  1.0000
  H   H30       1.0  0.056635163093702104  0.6154040118232517  0.3491312810200712  1.0000
  H   H31       1.0  0.9124382874233563  0.6568482128737048  0.3084105451474387  1.0000
  H   H32       1.0  0.9273491199066441  0.4312187404847023  0.3096723687502561  1.0000
  H   H33       1.0  0.777464693053531  0.4801068553086694  0.34714030111231164  1.0000
  H   H34       1.0  0.3959858067610825  0.8000770942061168  0.2836138774577109  1.0000
  H   H35       1.0  0.383087597565563  0.7530538767240956  0.35567902453112066  1.0000
  H   H36       1.0  0.4935717779829574  0.875191209477194  0.3364205439786333  1.0000
  H   H37       1.0  0.6315475783215803  0.6848885738105396  0.35191044286670353  1.0000
  H   H38       1.0  0.6463318601972077  0.7329225939970031  0.280612517951255  1.0000
  C   C1        1.0  0.4897701990954104  0.7417859806389872  0.50761164752835  1.0000
  C   C2        1.0  0.2824957403623216  0.5774650694764816  0.9734079407958379  1.0000
  C   C3        1.0  0.27127272596925417  0.574150098142404  0.03318168326835291  1.0000
  C   C4        1.0  0.35379387758248987  0.49495773876375915  0.06467061570936751  1.0000
  C   C5        1.0  0.44693908199836596  0.415821804037954  0.03476251706095471  1.0000
  C   C6        1.0  0.5342236852763875  0.3343737199614978  0.06408511683711282  1.0000
  C   C7        1.0  0.620466239808465  0.2545741963811068  0.034091395523944405  1.0000
  C   C8        1.0  0.6258464974460551  0.25503857430142324  0.9745565198903566  1.0000
  C   C9        1.0  0.34933958249899183  0.4919043362620813  0.12767073843286883  1.0000
  C   C10       1.0  0.5408915539250287  0.33721926312227174  0.12688611850816764  1.0000
  C   C11       1.0  0.4215877368141321  0.348816427548293  0.2524286933668449  1.0000
  C   C12       1.0  0.48683447583836437  0.5025127496588909  0.39337165037207467  1.0000
  C   C13       1.0  0.4295459216860138  0.3720005765609998  0.3104684938868304  1.0000
  C   C14       1.0  0.47953514919102247  0.48320197303510093  0.3303018322610001  1.0000
  C   C15       1.0  0.5240311130172585  0.5736556019666352  0.2922043818259611  1.0000
  C   C16       1.0  0.5152309096651136  0.5490262144383848  0.2341347076004041  1.0000
  C   C17       1.0  0.46403776406739183  0.4386717922809424  0.21466481599974685  1.0000
  C   C18       1.0  0.39300273132575114  0.3924000526460389  0.7602178922207729  1.0000
  C   C19       1.0  0.3975604378701192  0.4086664205287749  0.7018268483817992  1.0000
  C   C20       1.0  0.5053520842796716  0.4754372297735615  0.6770514875240111  1.0000
  C   C21       1.0  0.6083169280222832  0.52352004530686  0.7111841317272507  1.0000
  C   C22       1.0  0.6048326233870895  0.5099874072760215  0.7702826870746338  1.0000
  C   C23       1.0  0.4958157536767232  0.27409409921212813  0.5035886364987263  1.0000
  C   C24       1.0  0.4943626656111562  0.4440949782333163  0.7937079825916912  1.0000
  C   C25       1.0  0.5922715514026179  0.9425074200584691  0.4787324109984042  1.0000
  C   C26       1.0  0.4934494142597218  0.8767847174253165  0.5089574499365099  1.0000
  C   C27       1.0  0.3944185568954667  0.9450075546205243  0.5399251087826971  1.0000
  C   C28       1.0  0.395055071774479  0.0720462697531801  0.5396218563989522  1.0000
  C   C29       1.0  0.4938473086457691  0.13889475990134062  0.5080392308057143  1.0000
  C   C30       1.0  0.5913114251256815  0.06894491419274831  0.4784887814099649  1.0000
  C   C31       1.0  0.7081338519801933  0.0772947203124659  0.43459154779805  1.0000
  C   C32       1.0  0.7124647582608999  0.9330080741301504  0.4369761830378351  1.0000
  C   C33       1.0  0.07599296284274  0.45893101514712953  0.4625704994434089  1.0000
  C   C34       1.0  0.5068909928224131  0.49429829715490575  0.6141257309220125  1.0000
  C   C35       1.0  0.06212118269104391  0.552954751312356  0.5477394854818628  1.0000
  C   C36       1.0  0.9189187003404414  0.55593413684268  0.5440957490117244  1.0000
  C   C37       1.0  0.9330376444485183  0.465674061257218  0.4576937133239128  1.0000
  C   C38       1.0  0.9349735866657339  0.4050002716835976  0.39928107455151735  1.0000
  C   C39       1.0  0.09746206369482731  0.39239470397335924  0.40722249994664855  1.0000
  C   C40       1.0  0.5581108424509509  0.3419215895324895  0.8817953311717306  1.0000
  C   C41       1.0  0.38420630200707967  0.5110656150862809  0.88167152538783  1.0000
  C   C42       1.0  0.3727135236924397  0.5011579401050739  0.9443923938517503  1.0000
  C   C43       1.0  0.4551756938532918  0.417430874535498  0.974278160022628  1.0000
  C   C44       1.0  0.5457464098222359  0.3372072087975155  0.9447207096908702  1.0000
  C   C45       1.0  0.7134696394976386  0.5681134577595088  0.806395460328311  1.0000
  C   C46       1.0  0.6728300033739599  0.6962771392675721  0.8269748845747602  1.0000
  C   C47       1.0  0.6668538047170642  0.1331371095554275  0.3780064007905751  1.0000
  C   C48       1.0  0.7721427379424527  0.11217210766277932  0.3299241829448363  1.0000
  C   C49       1.0  0.8905249163529376  0.4800804168792184  0.3479932645619783  1.0000
  C   C50       1.0  0.9435565430834744  0.6107281152036564  0.3474493208583809  1.0000
  C   C51       1.0  0.5736895473526857  0.6959440970054163  0.31248733186451727  1.0000
  C   C52       1.0  0.45447784904818184  0.786443307210817  0.3226400148711478  1.0000
  N   N1        1.0  0.479829598109042  0.43242800084119176  0.8546937366005384  1.0000
  N   N2        1.0  0.45292955032972065  0.4217642026042938  0.15410803381124086  1.0000
  N   N3        1.0  0.1439341209915099  0.5028095062041517  0.5064648414794279  1.0000
  N   N4        1.0  0.851044863239878  0.5118732937313126  0.49832439606920803  1.0000
  Cl  Cl1       1.0  0.2702422950650529  0.1469706612433015  0.5806674574490103  1.0000
  Cl  Cl2       1.0  0.1542562654738759  0.6743802065861361  0.0630384895123584  1.0000
  O   O1        1.0  0.6013028988003909  0.6884881451484546  0.4917917531742831  1.0000
  O   O2        1.0  0.3165019981155694  0.5847884515581612  0.8545958657524511  1.0000
  O   O3        1.0  0.26441942242639266  0.54772399826237  0.15703059806797637  1.0000
  O   O4        1.0  0.6198760227468013  0.272533258721218  0.15386438517841583  1.0000
  O   O5        1.0  0.376954632967383  0.6900484750361997  0.5213818247379225  1.0000
  O   O6        1.0  0.6023997482416662  0.48015928869522656  0.415857775806913  1.0000
  O   O7        1.0  0.37715764561828985  0.5368284565863776  0.41907277011635813  1.0000
  O   O8        1.0  0.6109464308682958  0.3247707991757025  0.5128983959145189  1.0000
  O   O9        1.0  0.38488970269903433  0.3266476218082985  0.48923928103145914  1.0000
  O   O10       1.0  0.6185615293318634  0.528255306048287  0.5897789263175215  1.0000
  O   O11       1.0  0.39334887666701235  0.47370669241471586  0.5894202794812957  1.0000
  O   O12       1.0  0.6338293673367161  0.27317090062124555  0.8541943865787973  1.0000
