data_image0
_chemical_formula_structural       Co2H32C44N4O12
_chemical_formula_sum              "Co2 H32 C44 N4 O12"
_cell_length_a       7.125136131488384
_cell_length_b       9.615397680063701
_cell_length_c       12.697891264067
_cell_angle_alpha    87.97890793234876
_cell_angle_beta     94.28342787926536
_cell_angle_gamma    93.48861929731349

_space_group_name_H-M_alt    "P 1"
_space_group_IT_number       1

loop_
  _space_group_symop_operation_xyz
  'x, y, z'

loop_
  _atom_site_type_symbol
  _atom_site_label
  _atom_site_symmetry_multiplicity
  _atom_site_fract_x
  _atom_site_fract_y
  _atom_site_fract_z
  _atom_site_occupancy
  Co  Co1       1.0  4.1400544860373014e-07  0.5000016757221531  0.5000000310384038  1.0000
  Co  Co2       1.0  0.4999995688703153  1.8985813454987429e-06  0.5000019731251086  1.0000
  H   H1        1.0  0.9029044771421797  0.02046170359788851  0.6097305800945065  1.0000
  H   H2        1.0  0.5907102053813489  0.5200726285645773  0.39310476640527975  1.0000
  H   H3        1.0  0.09710467909261673  0.9795411366496015  0.3902661445481499  1.0000
  H   H4        1.0  0.4092889134154234  0.47992672688973687  0.6068978672375778  1.0000
  H   H5        1.0  0.23019169709452564  0.41917794356920274  0.021429331867238895  1.0000
  H   H6        1.0  0.26259958135676  0.920142924396821  0.976051259023599  1.0000
  H   H7        1.0  0.7698116409695359  0.5808205521839371  0.978569560690836  1.0000
  H   H8        1.0  0.7374206866555044  0.0798559957478489  0.0239460079289628  1.0000
  H   H9        1.0  0.14837758507641752  0.6278417228036234  0.9118011587498812  1.0000
  H   H10       1.0  0.3350877808624233  0.12728844219993363  0.0854129520159219  1.0000
  H   H11       1.0  0.8516116627320541  0.3721573985034824  0.08820183244784369  1.0000
  H   H12       1.0  0.6649410150969217  0.8727117945561677  0.9145807327620689  1.0000
  H   H13       1.0  0.0298274846778881  0.6053034428705361  0.7224359558322675  1.0000
  H   H14       1.0  0.45787936257647743  0.10032589128286423  0.274262153547518  1.0000
  H   H15       1.0  0.9701574544508065  0.39469350212395693  0.2775668764552464  1.0000
  H   H16       1.0  0.5421339467427516  0.8996749759047735  0.725733993192186  1.0000
  H   H17       1.0  0.9015618445274427  0.8629317193102466  0.7350723307915812  1.0000
  H   H18       1.0  0.5929925644537021  0.36819150689072444  0.2682847754397528  1.0000
  H   H19       1.0  0.09843733403241833  0.13706873161673636  0.26492792728948433  1.0000
  H   H20       1.0  0.4070049277753895  0.6318016383254631  0.7317147224954041  1.0000
  H   H21       1.0  0.07720711019691608  0.8082618263691759  0.8341216143264701  1.0000
  H   H22       1.0  0.4233034953586455  0.309429598991919  0.16581257222541984  1.0000
  H   H23       1.0  0.9227948058035339  0.19173660271747656  0.16587879203378006  1.0000
  H   H24       1.0  0.5766844968359521  0.6905727062946598  0.8341863813291397  1.0000
  H   H25       1.0  0.14488699432558147  0.8677281281110822  0.7054269192774284  1.0000
  H   H26       1.0  0.34719800941993384  0.3508589951144856  0.2929114818652394  1.0000
  H   H27       1.0  0.8551092635341037  0.13226918924116401  0.2945708911729312  1.0000
  H   H28       1.0  0.6527970693988152  0.6491445064590026  0.707087766177004  1.0000
  H   H29       1.0  0.17359173533689898  0.18231714958017164  0.9448211442273688  1.0000
  H   H30       1.0  0.3237823806158674  0.6825841039806523  0.053176873356910896  1.0000
  H   H31       1.0  0.8264102340068717  0.8176823570931264  0.05517767419111409  1.0000
  H   H32       1.0  0.676225159441337  0.3174144129117949  0.9468253539949244  1.0000
  C   C1        1.0  0.14631080283899678  0.2764632443608123  0.8975408047404373  1.0000
  C   C2        1.0  0.3515538082452281  0.7751489117391231  0.10002926988622819  1.0000
  C   C3        1.0  0.8536854550206812  0.7235340729914342  0.1024570057099226  1.0000
  C   C4        1.0  0.6484524164350063  0.224851693660142  0.8999712953842334  1.0000
  C   C5        1.0  0.9217121465607792  0.24259705842029436  0.5877200385950161  1.0000
  C   C6        1.0  0.579340410084967  0.7405728553297664  0.4107406287504105  1.0000
  C   C7        1.0  0.07828856273449249  0.7574065488450047  0.4122802428187811  1.0000
  C   C8        1.0  0.42065419109334107  0.2594190968528168  0.5892626971108398  1.0000
  C   C9        1.0  0.9507105247276757  0.11866373134790113  0.6457119456186432  1.0000
  C   C10       1.0  0.5471186513987903  0.6170422721334107  0.35495416843201616  1.0000
  C   C11       1.0  0.0492913295245216  0.8813326677675521  0.3542861232849575  1.0000
  C   C12       1.0  0.4528694153836028  0.38296209889639243  0.6450455473391444  1.0000
  C   C13       1.0  0.036766786902113296  0.12706271361185634  0.7471128897371457  1.0000
  C   C14       1.0  0.4637447567358776  0.6245450681550369  0.2526959579198049  1.0000
  C   C15       1.0  0.9632381969889394  0.8729420460374512  0.2528867756685571  1.0000
  C   C16       1.0  0.5362514581705682  0.3754530584936476  0.7473120788892088  1.0000
  C   C17       1.0  0.07600318170545252  0.26124011392260377  0.7912555550406353  1.0000
  C   C18       1.0  0.4243167283517479  0.7580227004856753  0.20609372454588026  1.0000
  C   C19       1.0  0.9239929951466623  0.738755119800402  0.2087422808131549  1.0000
  C   C20       1.0  0.5756784868030423  0.24198489680223648  0.7939086231696209  1.0000
  C   C21       1.0  0.17581601391470514  0.40682862802724884  0.9395622221585639  1.0000
  C   C22       1.0  0.3181622082605814  0.9061271053388751  0.057760357165165  1.0000
  C   C23       1.0  0.8241846484570204  0.5931739195374137  0.060438859576976284  1.0000
  C   C24       1.0  0.6818524035960748  0.09387163756991872  0.9422390268959618  1.0000
  C   C25       1.0  0.1312554807659936  0.5257772834532803  0.8764714935731063  1.0000
  C   C26       1.0  0.35853195036451524  0.024161787414527708  0.1204363179395287  1.0000
  C   C27       1.0  0.8687363148037052  0.47421464271241853  0.12353013417232717  1.0000
  C   C28       1.0  0.6414841368990807  0.9758380997474064  0.8795599643776413  1.0000
  C   C29       1.0  0.06561406178919069  0.5149109673499555  0.7719365687359384  1.0000
  C   C30       1.0  0.42748326312976564  0.010876732958905698  0.2243668397197354  1.0000
  C   C31       1.0  0.9343724549984742  0.48509019368349027  0.2280654865625635  1.0000
  C   C32       1.0  0.5725216461734915  0.9891259609471782  0.7756320634693665  1.0000
  C   C33       1.0  0.0403128843783733  0.38255499649579167  0.7259165875964654  1.0000
  C   C34       1.0  0.4605663419949835  0.8773049513645433  0.27006899589805033  1.0000
  C   C35       1.0  0.9596833883060044  0.6174432911270173  0.274084360632294  1.0000
  C   C36       1.0  0.5394298368422951  0.12269121685699254  0.729933552974188  1.0000
  C   C37       1.0  0.048086291372165114  0.8804330862966486  0.7672950382018655  1.0000
  C   C38       1.0  0.4485334762034512  0.3773159627363044  0.23334702360447318  1.0000
  C   C39       1.0  0.9519141813201982  0.1195642879669379  0.2327045318021916  1.0000
  C   C40       1.0  0.5514629520762852  0.6226864742589698  0.7666546614374496  1.0000
  C   C41       1.0  0.8178051879493681  0.24508714461242692  0.4818197159276493  1.0000
  C   C42       1.0  0.6822445239026111  0.741625389135372  0.5188830789135253  1.0000
  C   C43       1.0  0.18218944532780057  0.7549048970002306  0.518179671833458  1.0000
  C   C44       1.0  0.3177505420766025  0.25837807666608376  0.4811177443687811  1.0000
  N   N1        1.0  0.9771697567169539  0.3710936980006849  0.6213360076135643  1.0000
  N   N2        1.0  0.528692192086453  0.8660345892289313  0.373525697135058  1.0000
  N   N3        1.0  0.022828019038605894  0.6289067399178522  0.3786634014095894  1.0000
  N   N4        1.0  0.47129880823565173  0.13397295114763347  0.6264748910267457  1.0000
  O   O1        1.0  0.08085280935538461  0.01714427372039751  0.8105117539466776  1.0000
  O   O2        1.0  0.4207467849142007  0.5156845794016293  0.1899367957029483  1.0000
  O   O3        1.0  0.9191490320572699  0.9828520896230302  0.18948789019697904  1.0000
  O   O4        1.0  0.5792523531418823  0.4843148297107336  0.8100634750798291  1.0000
  O   O5        1.0  0.8258751204529133  0.3651262029131318  0.4324792384268221  1.0000
  O   O6        1.0  0.6787965430172351  0.8555028344038506  0.5689111654060852  1.0000
  O   O7        1.0  0.174124139114511  0.634876331643092  0.5675209942508131  1.0000
  O   O8        1.0  0.3212011453109865  0.1444955019994367  0.4310890566405305  1.0000
  O   O9        1.0  0.7247044265444842  0.13907743922941052  0.4459794724271545  1.0000
  O   O10       1.0  0.767049125194724  0.6365170574061737  0.5541364650502842  1.0000
  O   O11       1.0  0.27530344396273426  0.860929430066023  0.5540218656909275  1.0000
  O   O12       1.0  0.2329499125944849  0.3634802144188996  0.44586619399600375  1.0000
