data_image0
_chemical_formula_structural       Zn8H32C80O26F8
_chemical_formula_sum              "Zn8 H32 C80 O26 F8"
_cell_length_a       23.821006558837766
_cell_length_b       23.8225719281091
_cell_length_c       23.820828782223536
_cell_angle_alpha    66.57165388410932
_cell_angle_beta     72.47633301816076
_cell_angle_gamma    107.53307219245649

_space_group_name_H-M_alt    "P 1"
_space_group_IT_number       1

loop_
  _space_group_symop_operation_xyz
  'x, y, z'

loop_
  _atom_site_type_symbol
  _atom_site_label
  _atom_site_symmetry_multiplicity
  _atom_site_fract_x
  _atom_site_fract_y
  _atom_site_fract_z
  _atom_site_occupancy
  Zn  Zn1       1.0  0.057739339401145055  0.9578072153616546  0.48446507918693277  1.0000
  Zn  Zn2       1.0  0.057737154360324894  0.09993122140362941  0.45781125579159726  1.0000
  Zn  Zn3       1.0  0.9422557255541264  0.9844618792044386  0.4578000197386984  1.0000
  Zn  Zn4       1.0  0.9422760409274177  0.957804732691969  0.5999336649483451  1.0000
  Zn  Zn5       1.0  0.9422615598630201  0.5421930598707545  0.015535744531540207  1.0000
  Zn  Zn6       1.0  0.057748693996586574  0.5155419200924102  0.042197924902865155  1.0000
  Zn  Zn7       1.0  0.9422627141426717  0.40006951195015017  0.042194982066405415  1.0000
  Zn  Zn8       1.0  0.05772344343485967  0.5421911307598039  0.9000675865864026  1.0000
  H   H1        1.0  0.9236661722388888  0.6521205300585889  0.11243868244294235  1.0000
  H   H2        1.0  0.9232667464908246  0.7149886929334601  0.17522150354068336  1.0000
  H   H3        1.0  0.07671742256735568  0.6752107185719112  0.2150288022830721  1.0000
  H   H4        1.0  0.07632544417967319  0.6124305136691747  0.1521597438985509  1.0000
  H   H5        1.0  0.9232744340220331  0.82478102612923  0.28497939113202614  1.0000
  H   H6        1.0  0.9236676886340122  0.8875635520483983  0.34784756399712785  1.0000
  H   H7        1.0  0.07627580467230631  0.8478092522884637  0.38763137634243355  1.0000
  H   H8        1.0  0.07667087390629494  0.7849356798143675  0.3248557926452378  1.0000
  H   H9        1.0  0.07634323682552237  0.4638692145396561  0.7715561041721415  1.0000
  H   H10       1.0  0.07673625601363904  0.4014826479042526  0.7082903873503099  1.0000
  H   H11       1.0  0.9232846842543198  0.20825656668151987  0.9015174330290989  1.0000
  H   H12       1.0  0.923683741651587  0.2715198501971016  0.9639048172408308  1.0000
  H   H13       1.0  0.07667436812364771  0.29173217553268677  0.5984957272586371  1.0000
  H   H14       1.0  0.07627579463037645  0.22846833110494907  0.5361092591003072  1.0000
  H   H15       1.0  0.9236664556721126  0.03610648947022087  0.7284704596695164  1.0000
  H   H16       1.0  0.9232755702003818  0.09849153555564533  0.7917373952134241  1.0000
  H   H17       1.0  0.7354271957386371  0.4638861712795477  0.11241051570342357  1.0000
  H   H18       1.0  0.6097758966723391  0.401501869633293  0.17518926305478988  1.0000
  H   H19       1.0  0.6097717778583345  0.20826089067561776  0.21503052729806177  1.0000
  H   H20       1.0  0.7354215305146852  0.27152301705475435  0.1521640190289303  1.0000
  H   H21       1.0  0.3902287728031624  0.2917400246949241  0.2849590603768846  1.0000
  H   H22       1.0  0.2645788220292787  0.22847717301378628  0.3478296942202802  1.0000
  H   H23       1.0  0.26457307089980725  0.03612653768945505  0.3875207466003729  1.0000
  H   H24       1.0  0.39022496426732545  0.0985130086316346  0.32473466277451013  1.0000
  H   H25       1.0  0.2645848574492931  0.6123916977400867  0.9638827775377053  1.0000
  H   H26       1.0  0.3902349665303431  0.675168786981473  0.9014989959994041  1.0000
  H   H27       1.0  0.3902177190342115  0.7150212322644409  0.7082491009544255  1.0000
  H   H28       1.0  0.26456785451649983  0.6521534913982309  0.7715121350086916  1.0000
  H   H29       1.0  0.6097866709307666  0.7849727580319482  0.7917484749854042  1.0000
  H   H30       1.0  0.7354357657152165  0.8478423405160599  0.7284836834570072  1.0000
  H   H31       1.0  0.7354169951899721  0.8875397307763323  0.5361269377902074  1.0000
  H   H32       1.0  0.6097658292624217  0.8247553181684779  0.5985143618594932  1.0000
  C   C1        1.0  0.1825870137881509  0.09130027640133422  0.4087006276316316  1.0000
  C   C2        1.0  0.9999967901529843  0.13697390280590574  0.36302458718149916  1.0000
  C   C3        1.0  0.9999849935583497  0.90870083716311  0.40871666023873143  1.0000
  C   C4        1.0  0.8174184043805539  0.9086980222623496  0.5913043236014415  1.0000
  C   C5        1.0  4.250271338343913e-06  0.8630247177664787  0.6369777787214445  1.0000
  C   C6        1.0  0.9999901692671714  0.09129013999547907  0.5912989915644431  1.0000
  C   C7        1.0  8.341260765356037e-07  0.5912817351318224  0.091301186913782  1.0000
  C   C8        1.0  3.122287210884621e-06  0.3630258380099817  0.13697615378083586  1.0000
  C   C9        1.0  0.8174134491616128  0.40870264497696246  0.09128399304830727  1.0000
  C   C10       1.0  0.9999983558046496  0.4086962289469938  0.908717064725721  1.0000
  C   C11       1.0  0.9999980723688113  0.6369745070123971  0.8630225431951856  1.0000
  C   C12       1.0  0.18258481843057678  0.5912859260271545  0.9086963269626908  1.0000
  C   C13       1.0  3.025255175247817e-06  0.8053782851067837  0.6946218397920207  1.0000
  C   C14       1.0  0.9999999793679636  0.6946210991043742  0.8053790527899738  1.0000
  C   C15       1.0  0.9577015857117885  0.7767031211197662  0.7655929206674302  1.0000
  C   C16       1.0  0.04230161699464223  0.7232969839866712  0.7344072065058429  1.0000
  C   C17       1.0  0.9576998425109126  0.7232925500421816  0.8190025814275044  1.0000
  C   C18       1.0  0.04230316212079539  0.7767068352706589  0.6809974711131018  1.0000
  C   C19       1.0  6.692776816819977e-08  0.1946213582884937  0.3053783118276385  1.0000
  C   C20       1.0  3.173469664781998e-06  0.30538172306166445  0.19462184945614783  1.0000
  C   C21       1.0  0.9577009919590227  0.18100107708533403  0.2766965945992012  1.0000
  C   C22       1.0  0.04230312273787718  0.31900234557474505  0.22330309801365902  1.0000
  C   C23       1.0  0.9577020531555008  0.23441148597642336  0.22328846327722818  1.0000
  C   C24       1.0  0.042301379545563074  0.26559177559884267  0.2767119187323459  1.0000
  C   C25       1.0  0.9999956077524813  0.6286773905019982  0.12870245890210438  1.0000
  C   C26       1.0  0.9568267411536979  0.6575925085611302  0.13518729701232257  1.0000
  C   C27       1.0  0.9566574877481173  0.6924402162033516  0.16999954518986732  1.0000
  C   C28       1.0  0.9999922983827504  0.6991853606968236  0.19921006250296344  1.0000
  C   C29       1.0  0.04332883830409876  0.6699832351360087  0.19247325282058367  1.0000
  C   C30       1.0  0.043165251106436986  0.6351732225133943  0.15762219607748318  1.0000
  C   C31       1.0  0.999989885454781  0.7346525070161933  0.23468308422613376  1.0000
  C   C32       1.0  0.999981590730506  0.7653109808537052  0.2653537265543379  1.0000
  C   C33       1.0  0.9999726875891923  0.8007742403271865  0.3008310868732025  1.0000
  C   C34       1.0  0.956649904908559  0.8299932865255214  0.30755206919519645  1.0000
  C   C35       1.0  0.9568165284887793  0.8648073841247239  0.34239933080798585  1.0000
  C   C36       1.0  0.9999722603917219  0.8712845738028107  0.3713364641672073  1.0000
  C   C37       1.0  0.043130549293522204  0.8423546968181695  0.3648657763450063  1.0000
  C   C38       1.0  0.04329020965600694  0.807495296260022  0.3300631574635986  1.0000
  C   C39       1.0  9.916837377811398e-06  0.3712922853250333  0.8713251446806893  1.0000
  C   C40       1.0  0.043180005273342155  0.4079686521579262  0.7992436883715898  1.0000
  C   C41       1.0  0.0433477444298731  0.3733232016251621  0.764228694181824  1.0000
  C   C42       1.0  7.154725984940456e-06  0.3007865908671405  0.8008188899146094  1.0000
  C   C43       1.0  0.9566758127550018  0.26419309300847255  0.8733576885235763  1.0000
  C   C44       1.0  0.9568406801256089  0.2992097270715278  0.908002586138835  1.0000
  C   C45       1.0  0.9999987603680368  0.26531906058470156  0.7653466920006907  1.0000
  C   C46       1.0  0.9999884219894781  0.23466126073947902  0.7346759455859626  1.0000
  C   C47       1.0  0.9999768215409689  0.1991941899035084  0.6992029229882348  1.0000
  C   C48       1.0  0.04329256680023255  0.23579244783272904  0.6266593851210445  1.0000
  C   C49       1.0  0.043131307457869576  0.20077733568223982  0.5920136352790167  1.0000
  C   C50       1.0  0.9999732458275973  0.1286913384148676  0.6286936873126052  1.0000
  C   C51       1.0  0.9568164661895153  0.09201001201812906  0.700778972919231  1.0000
  C   C52       1.0  0.956651058815531  0.12665466069283585  0.7357961005051122  1.0000
  C   C53       1.0  0.7426170633728546  0.3713017857763461  0.12868745039195761  1.0000
  C   C54       1.0  0.7072125202324528  0.40798234570171854  0.1351680962608056  1.0000
  C   C55       1.0  0.6375518714924197  0.3733375228614405  0.16997486988553603  1.0000
  C   C56       1.0  0.6016049010499173  0.3007970404107778  0.19919085109742715  1.0000
  C   C57       1.0  0.6375493788475171  0.2642011918886312  0.19246756781875252  1.0000
  C   C58       1.0  0.7072116553481821  0.29921714363268853  0.1576172499388305  1.0000
  C   C59       1.0  0.5306650819827184  0.26533242295938203  0.23465313996607048  1.0000
  C   C60       1.0  0.4693364819176935  0.23467685073028122  0.2653059604801769  1.0000
  C   C61       1.0  0.3983960686605669  0.19921007830483003  0.30076466528529283  1.0000
  C   C62       1.0  0.3624512384281218  0.23580346605815813  0.3075041434790151  1.0000
  C   C63       1.0  0.29279056779407847  0.2007875461124939  0.3423611009646805  1.0000
  C   C64       1.0  0.25738375205028063  0.1287036013283398  0.3712771951866928  1.0000
  C   C65       1.0  0.29278695391445814  0.09202745930506499  0.3647817684435353  1.0000
  C   C66       1.0  0.36244848281923225  0.1266731751422441  0.32996513959950147  1.0000
  C   C67       1.0  0.25738133461425844  0.6286733448478968  0.8712956409993494  1.0000
  C   C68       1.0  0.29279401046749576  0.635150969501609  0.9079769727577087  1.0000
  C   C69       1.0  0.3624548300492377  0.669953861173049  0.8733329016276912  1.0000
  C   C70       1.0  0.3983957848852738  0.69917829411348  0.8007897900890415  1.0000
  C   C71       1.0  0.36244590698276363  0.6924545270574995  0.7641913694420026  1.0000
  C   C72       1.0  0.29278252628931506  0.65760475669979  0.7992082743654764  1.0000
  C   C73       1.0  0.46933666076045444  0.7346502299737736  0.765327638875661  1.0000
  C   C74       1.0  0.5306653936342512  0.7653132333729502  0.7346802276351455  1.0000
  C   C75       1.0  0.6016057191924915  0.8007820134586724  0.6992152957729586  1.0000
  C   C76       1.0  0.6375560170598288  0.8075223821775024  0.7358095254815568  1.0000
  C   C77       1.0  0.7072180563400817  0.8423765528104139  0.7007912803459678  1.0000
  C   C78       1.0  0.7426206320687142  0.8712921245065741  0.6287072585164496  1.0000
  C   C79       1.0  0.7072097364270603  0.8648001003860059  0.592028580786398  1.0000
  C   C80       1.0  0.6375487614109687  0.829985049040438  0.626674581875996  1.0000
  O   O1        1.0  5.248939415999928e-07  1.1151003605001219e-06  0.4999991550050282  1.0000
  O   O2        1.0  0.1534347528663105  0.02572967540061199  0.43367333772588523  1.0000
  O   O3        1.0  0.04034659150740076  0.15559772739188557  0.38474955250718784  1.0000
  O   O4        1.0  0.9593815900100112  0.9336685465330918  0.4128964544592435  1.0000
  O   O5        1.0  0.15343522606453064  0.12771445152577604  0.4129066842450655  1.0000
  O   O6        1.0  0.04060291626473859  0.9129015968238579  0.43367363252166763  1.0000
  O   O7        1.0  0.9596451970627342  0.07490917484521739  0.3847441207811214  1.0000
  O   O8        1.0  0.8465629809635828  0.9336602643690527  0.5257347017620617  1.0000
  O   O9        1.0  0.9596630292134379  0.8847485192577053  0.6556023095511564  1.0000
  O   O10       1.0  0.8465769083396351  0.9128932898482136  0.6277223280541762  1.0000
  O   O11       1.0  0.040350299400536326  0.8847458985672956  0.5749095740637317  1.0000
  O   O12       1.0  0.04060440779272771  0.12770702342832865  0.5257310638977586  1.0000
  O   O13       1.0  0.9593942251378852  0.02571728953665097  0.6277183750669906  1.0000
  O   O14       1.0  1.197327200906179e-06  0.49999992568945123  1.4337714873006765e-06  1.0000
  O   O15       1.0  0.9593883460662198  0.5870879840897771  0.0663376971609893  1.0000
  O   O16       1.0  0.04035599160604158  0.4250928875379358  0.11525531464108946  1.0000
  O   O17       1.0  0.8465651264195061  0.3722857308309884  0.0870929092938512  1.0000
  O   O18       1.0  0.04061578895905158  0.5663282035332031  0.08710808837752637  1.0000
  O   O19       1.0  0.8465655558003887  0.4742715149175966  0.06631999212928691  1.0000
  O   O20       1.0  0.9596526389155502  0.3444018495849905  0.1152539779553264  1.0000
  O   O21       1.0  0.9593836391248018  0.3722804432405696  0.9742860303493472  1.0000
  O   O22       1.0  0.04033709326313322  0.6152485049777  0.8443982892135296  1.0000
  O   O23       1.0  0.04059720918463942  0.4742662606623043  0.8722975711813916  1.0000
  O   O24       1.0  0.9596522213100512  0.6152540454543356  0.9250912425062552  1.0000
  O   O25       1.0  0.15344169482209935  0.566332444119908  0.974264555639877  1.0000
  O   O26       1.0  0.1534243574839705  0.5870986154200891  0.8722786962485785  1.0000
  F   F1        1.0  0.914750285048207  0.7992480599405953  0.7859919506274196  1.0000
  F   F2        1.0  0.08525359964121981  0.7007522045981247  0.71400874721121  1.0000
  F   F3        1.0  0.9147483161226333  0.700740792310171  0.884500427378825  1.0000
  F   F4        1.0  0.08525356648222976  0.7992579920295101  0.6155002019198292  1.0000
  F   F5        1.0  0.914751607569194  0.11550673890884161  0.2992364712946553  1.0000
  F   F6        1.0  0.08525294716298505  0.38449712419043186  0.20076291393618112  1.0000
  F   F7        1.0  0.9147532467539888  0.21401628308795748  0.2007301298940335  1.0000
  F   F8        1.0  0.08525110989918967  0.28598685966688464  0.29926960072483416  1.0000
