data_image0
_chemical_formula_structural       Co4P4H24C8N4O12
_chemical_formula_sum              "Co4 P4 H24 C8 N4 O12"
_cell_length_a       6.427677522473339
_cell_length_b       8.327137618000943
_cell_length_c       9.750770111281932
_cell_angle_alpha    89.99996591565106
_cell_angle_beta     99.83950517995972
_cell_angle_gamma    89.99996422383177

_space_group_name_H-M_alt    "P 1"
_space_group_IT_number       1

loop_
  _space_group_symop_operation_xyz
  'x, y, z'

loop_
  _atom_site_type_symbol
  _atom_site_label
  _atom_site_symmetry_multiplicity
  _atom_site_fract_x
  _atom_site_fract_y
  _atom_site_fract_z
  _atom_site_occupancy
  Co  Co1       1.0  0.5099181145242184  0.6637500477528063  0.3431895383664312  1.0000
  Co  Co2       1.0  0.49008183798896  0.1637499740561736  0.15681000896207564  1.0000
  Co  Co3       1.0  0.4900818368262279  0.33624965202398016  0.6568104930642635  1.0000
  Co  Co4       1.0  0.5099181133614863  0.8362497257206127  0.8431900224686191  1.0000
  P   P1        1.0  0.7581300596062945  0.857087797911333  0.15324020803758745  1.0000
  P   P2        1.0  0.2418697041947055  0.3570877116471961  0.3467602448534494  1.0000
  P   P3        1.0  0.2418698917441517  0.1429119018654531  0.8467598233931074  1.0000
  P   P4        1.0  0.758131826154731  0.6429107872363033  0.6532399647494815  1.0000
  H   H1        1.0  0.09256524876984432  0.7267250302985528  0.16547865630418102  1.0000
  H   H2        1.0  0.9074362214244899  0.22672223149953638  0.33452103012770357  1.0000
  H   H3        1.0  0.9074347034994759  0.2732758703717906  0.8345193241097565  1.0000
  H   H4        1.0  0.0925653089255292  0.7732750664911164  0.6654791794756038  1.0000
  H   H5        1.0  0.1120940998447253  0.9398510809813344  0.16789962753866666  1.0000
  H   H6        1.0  0.8879055842906497  0.4398482932274916  0.33209872299096344  1.0000
  H   H7        1.0  0.8879058515045487  0.060151020581145104  0.8321004038912893  1.0000
  H   H8        1.0  0.11209594651851519  0.560150205656363  0.6679004611037842  1.0000
  H   H9        1.0  0.0280514017815818  0.9309187739440501  0.41669649838490846  1.0000
  H   H10       1.0  0.9719482901292977  0.43092092184605235  0.08330390870111158  1.0000
  H   H11       1.0  0.9719485491108911  0.06907732315384149  0.583304558555092  1.0000
  H   H12       1.0  0.02805166075966529  0.5690823806089256  0.9166971482366509  1.0000
  H   H13       1.0  0.0512220773804302  0.7188338880857685  0.41148607427028605  1.0000
  H   H14       1.0  0.9487794014151164  0.21883484259856797  0.08851156603967784  1.0000
  H   H15       1.0  0.9487794543487738  0.28116340990595745  0.5885110588084501  1.0000
  H   H16       1.0  0.05122370931015751  0.7811672589640961  0.911485745209433  1.0000
  H   H17       1.0  0.3796834063260164  0.84274670057718  0.5161007274260145  1.0000
  H   H18       1.0  0.6203165375351674  0.34274753866293384  0.9838997840759024  1.0000
  H   H19       1.0  0.6203165450256023  0.15725059741391326  0.48389930400542636  1.0000
  H   H20       1.0  0.3796834133555508  0.6572521611135043  0.016101272862982803  1.0000
  H   H21       1.0  0.3820955305140856  0.9528890375407925  0.3766618578442334  1.0000
  H   H22       1.0  0.6179072975425939  0.4528889257277837  0.12333991746417892  1.0000
  H   H23       1.0  0.61790599937504  0.04711066223519819  0.6233393772665183  1.0000
  H   H24       1.0  0.38209423234653167  0.5471107740482068  0.8766613176465654  1.0000
  C   C1        1.0  0.0395141529271825  0.8363857581032688  0.21200314691076022  1.0000
  C   C2        1.0  0.9604872104907828  0.3363829660965789  0.2879964714882278  1.0000
  C   C3        1.0  0.9604857988824023  0.16361514256672643  0.7879958590113747  1.0000
  C   C4        1.0  0.03951431985865381  0.6636155327869274  0.712003738114703  1.0000
  C   C5        1.0  0.10365984810034228  0.8312374604584603  0.36967655797283794  1.0000
  C   C6        1.0  0.8963415203298551  0.3312360093655328  0.13032306361970572  1.0000
  C   C7        1.0  0.8963401032506865  0.16876103842548665  0.6303234734582335  1.0000
  C   C8        1.0  0.10366001001899859  0.668763690410813  0.8696771459828554  1.0000
  N   N1        1.0  0.3364454980860713  0.8429833237678892  0.4095057524827369  1.0000
  N   N2        1.0  0.6635558589065554  0.3429832128185878  0.09049386182232413  1.0000
  N   N3        1.0  0.6635560327225037  0.15701637600881915  0.590493431611627  1.0000
  N   N4        1.0  0.3364456714422914  0.657016486957758  0.9095063477802373  1.0000
  O   O1        1.0  0.6831233602479259  0.9953874101026089  0.23870141976789233  1.0000
  O   O2        1.0  0.3168715309746659  0.4953909497590984  0.261300463822515  1.0000
  O   O3        1.0  0.31687343264656676  0.004611088781857099  0.7612992808276433  1.0000
  O   O4        1.0  0.683128419916052  0.5046087500173398  0.7387005931163702  1.0000
  O   O5        1.0  0.6438941351649985  0.698111219342607  0.17955206796806072  1.0000
  O   O6        1.0  0.3561105204257302  0.19811229741007708  0.3204490180663911  1.0000
  O   O7        1.0  0.35610897372312417  0.3018872795400964  0.8204493453149271  1.0000
  O   O8        1.0  0.643892588461803  0.801887402365473  0.6795523952162201  1.0000
  O   O9        1.0  0.7305887756741142  0.8943572219143898  0.996353881998708  1.0000
  O   O10       1.0  0.26940953847741866  0.3943549584034614  0.5036474448216169  1.0000
  O   O11       1.0  0.2694095962170309  0.10564487964818169  0.003646996767564311  1.0000
  O   O12       1.0  0.7305904128730275  0.6056447413733324  0.4963525866090779  1.0000
