data_image0
_chemical_formula_structural       ZnH28C26N4Cl2O8
_chemical_formula_sum              "Zn1 H28 C26 N4 Cl2 O8"
_cell_length_a       8.917949425197145
_cell_length_b       10.39773175298734
_cell_length_c       11.662733382295206
_cell_angle_alpha    68.88385325541677
_cell_angle_beta     90.95875744862498
_cell_angle_gamma    67.78333903902107

_space_group_name_H-M_alt    "P 1"
_space_group_IT_number       1

loop_
  _space_group_symop_operation_xyz
  'x, y, z'

loop_
  _atom_site_type_symbol
  _atom_site_label
  _atom_site_symmetry_multiplicity
  _atom_site_fract_x
  _atom_site_fract_y
  _atom_site_fract_z
  _atom_site_occupancy
  Zn  Zn1       1.0  0.4999959293695681  1.2928173162956093e-06  0.5000018656495087  1.0000
  H   H1        1.0  0.9271904522985749  0.500083689696055  0.7067607577621545  1.0000
  H   H2        1.0  0.07281380793480699  0.4999133252187421  0.29323471526151923  1.0000
  H   H3        1.0  0.05120706759564796  0.6027132114242236  0.6615193960989103  1.0000
  H   H4        1.0  0.9487983980960591  0.3972837710706258  0.3384820969096367  1.0000
  H   H5        1.0  0.25820755026792597  0.43291182843348963  0.8513249905809701  1.0000
  H   H6        1.0  0.7417852207341014  0.5670966208521406  0.1486778631669239  1.0000
  H   H7        1.0  0.06260325907290108  0.5104934735835016  0.8892429886040463  1.0000
  H   H8        1.0  0.9373866722097687  0.4895004664584235  0.11075853746199019  1.0000
  H   H9        1.0  0.026022758110670497  0.2712352185441205  0.9237073948214417  1.0000
  H   H10       1.0  0.9739860403335212  0.7287538524641163  0.07629238908136671  1.0000
  H   H11       1.0  0.22154285192381445  0.19416469140355022  0.8844454601594551  1.0000
  H   H12       1.0  0.7784679527642736  0.8058355446482255  0.11555501285121042  1.0000
  H   H13       1.0  0.1348467887015943  0.12185705388598927  0.5484511563004517  1.0000
  H   H14       1.0  0.8651550955130459  0.8781456115330143  0.4515459052060465  1.0000
  H   H15       1.0  0.9634155944870173  0.3027436956478978  0.6338191070475575  1.0000
  H   H16       1.0  0.03658825485518949  0.6972622906598502  0.3661786073651641  1.0000
  H   H17       1.0  0.3616303378452912  0.4409199870473655  0.6455461467773919  1.0000
  H   H18       1.0  0.6383761372988914  0.5590747279589793  0.3544595153601406  1.0000
  H   H19       1.0  0.5166884687882812  0.255872842893467  0.5573367676602886  1.0000
  H   H20       1.0  0.4833230271468025  0.7441206464241645  0.44267017842024364  1.0000
  H   H21       1.0  0.5942467809321669  0.1021752271711946  0.24363371872599526  1.0000
  H   H22       1.0  0.40574758427322166  0.8978320702636395  0.7563678021170972  1.0000
  H   H23       1.0  0.47053201492890634  0.1994766411302962  0.0199721384453397  1.0000
  H   H24       1.0  0.5294570313089436  0.8005352495048398  0.980028722696524  1.0000
  H   H25       1.0  0.012246102744875  0.20944663539933117  0.14142227255243972  1.0000
  H   H26       1.0  0.9877523981158656  0.7905482492930458  0.8585789995076426  1.0000
  H   H27       1.0  0.15441246977243847  0.1102624910036596  0.3580253477661302  1.0000
  H   H28       1.0  0.8455893944133664  0.8897323276581091  0.6419733934394785  1.0000
  C   C1        1.0  0.05493380165296462  0.48934880506276096  0.7117672296293948  1.0000
  C   C2        1.0  0.9450652977690837  0.5106527835340628  0.2882404529487133  1.0000
  C   C3        1.0  0.1354270809611862  0.4314426873484792  0.8485822281977349  1.0000
  C   C4        1.0  0.8645718929945543  0.5685510675033001  0.1514185545756987  1.0000
  C   C5        1.0  0.149292335060494  0.2715964396183991  0.9269776933624955  1.0000
  C   C6        1.0  0.8507056083552768  0.7283995853243254  0.07301720438120188  1.0000
  C   C7        1.0  0.1807212206584623  0.1955879251401598  0.569446170751263  1.0000
  C   C8        1.0  0.819287061457082  0.8044101302732187  0.43054727503680823  1.0000
  C   C9        1.0  0.08607544811611229  0.29616919464773167  0.619426693852482  1.0000
  C   C10       1.0  0.9139257248226966  0.7038323707481879  0.38056557428326704  1.0000
  C   C11       1.0  0.1484890446061655  0.3867517776848857  0.6499515415265051  1.0000
  C   C12       1.0  0.8515134770780931  0.6132519968657277  0.3500443076981129  1.0000
  C   C13       1.0  0.3062632637833502  0.3724052003388748  0.6255462411899303  1.0000
  C   C14       1.0  0.693742233539595  0.6275917782523236  0.37445782566975083  1.0000
  C   C15       1.0  0.39323636929565703  0.2698238934569233  0.5751374137575382  1.0000
  C   C16       1.0  0.6067765459244185  0.7301662063389146  0.42486806446306963  1.0000
  C   C17       1.0  0.4653969933114012  0.12806296320727736  0.21641465980163593  1.0000
  C   C18       1.0  0.5346007151902087  0.8719364214397203  0.7835860098861006  1.0000
  C   C19       1.0  0.3953490539204978  0.18216543403720206  0.09209252646103043  1.0000
  C   C20       1.0  0.6046493437108038  0.8178429025949897  0.9079078250968352  1.0000
  C   C21       1.0  0.2292221892029929  0.2131118352642218  0.060333475603819416  1.0000
  C   C22       1.0  0.7707752105782363  0.7868909181955883  0.9396669603753126  1.0000
  C   C23       1.0  0.14173011084022138  0.18808192953525804  0.15846902358277504  1.0000
  C   C24       1.0  0.8582666303838946  0.8119197173953694  0.8415309087774859  1.0000
  C   C25       1.0  0.22043515997522423  0.1333474791529596  0.2809338327180342  1.0000
  C   C26       1.0  0.779561199780936  0.8666496963393372  0.7190632558808405  1.0000
  N   N1        1.0  0.33313600805634275  0.1809536469397486  0.5478284650470117  1.0000
  N   N2        1.0  0.6668712583883193  0.8190444174716377  0.4521744038629976  1.0000
  N   N3        1.0  0.37993203801315895  0.10322543291034948  0.3102188436679115  1.0000
  N   N4        1.0  0.6200645072051075  0.896773978951721  0.6897792378364686  1.0000
  Cl  Cl1       1.0  0.7308889803948728  0.23146787777103137  0.3924408933477324  1.0000
  Cl  Cl2       1.0  0.26910453024755293  0.7685360780660703  0.6075582730206079  1.0000
  O   O1        1.0  0.6830844397791722  0.10315478959088858  0.4505709007926768  1.0000
  O   O2        1.0  0.3169044915361141  0.8968492659979858  0.5494239184948883  1.0000
  O   O3        1.0  0.7820690302991051  0.26774120097556425  0.4917273601344974  1.0000
  O   O4        1.0  0.21792307266072442  0.7322582937224382  0.5082775276440188  1.0000
  O   O5        1.0  0.8667470002459153  0.1825055976997376  0.3285821032818603  1.0000
  O   O6        1.0  0.13325042062280082  0.8174971531576317  0.671420048598023  1.0000
  O   O7        1.0  0.5908132853205288  0.360571465534548  0.3044310752373107  1.0000
  O   O8        1.0  0.4091810271661203  0.6394358384063777  0.6955661558538893  1.0000
