data_image0
_chemical_formula_structural       Zn4H55C72N21O2
_chemical_formula_sum              "Zn4 H55 C72 N21 O2"
_cell_length_a       19.834001370841584
_cell_length_b       20.29127043699427
_cell_length_c       21.603320486240005
_cell_angle_alpha    109.19983982565508
_cell_angle_beta     106.05003145038569
_cell_angle_gamma    112.03123742243298

_space_group_name_H-M_alt    "P 1"
_space_group_IT_number       1

loop_
  _space_group_symop_operation_xyz
  'x, y, z'

loop_
  _atom_site_type_symbol
  _atom_site_label
  _atom_site_symmetry_multiplicity
  _atom_site_fract_x
  _atom_site_fract_y
  _atom_site_fract_z
  _atom_site_occupancy
  Zn  Zn1       1.0  0.5910975803994771  0.5925424138144706  0.4898029144558718  1.0000
  Zn  Zn2       1.0  0.39629411408186843  0.3708886061634686  0.49273797857988194  1.0000
  Zn  Zn3       1.0  0.5215603182833419  0.5903246834299622  0.6145102183915724  1.0000
  Zn  Zn4       1.0  0.4900794084274054  0.3859871648374238  0.38441613798254076  1.0000
  H   H1        1.0  0.7493679162527087  0.7973531707633015  0.6103124128769012  1.0000
  H   H2        1.0  0.515023656091266  0.3337055019687654  0.5895504191532197  1.0000
  H   H3        1.0  0.4781097359365915  0.6138210660319103  0.7492224463219371  1.0000
  H   H4        1.0  0.6435953024887694  0.36076592975460653  0.4463967347691736  1.0000
  H   H5        1.0  0.4481507621344605  0.3743142575584457  0.6773363708077369  1.0000
  H   H6        1.0  0.7536073429126018  0.61545313796951  0.600086551113442  1.0000
  H   H7        1.0  0.5085582845854901  0.21466883070843318  0.3786452793538188  1.0000
  H   H8        1.0  0.6817353791557463  0.7113919682270761  0.7552904677588329  1.0000
  H   H9        1.0  0.5537706192520487  0.6358684464079971  0.3567819636031899  1.0000
  H   H10       1.0  0.24253145425303302  0.35311625629287136  0.5382102954897903  1.0000
  H   H11       1.0  0.5304619572448316  0.7694741897410324  0.6459747136857316  1.0000
  H   H12       1.0  0.3439152791645341  0.35174409164023507  0.24390034221382004  1.0000
  H   H13       1.0  0.2168341920967336  0.3215879121391936  0.37552550101568727  1.0000
  H   H14       1.0  0.5168844842981315  0.681615576679313  0.4287893349072789  1.0000
  H   H15       1.0  0.45745978258381104  0.38009281575029524  0.22147081350384204  1.0000
  H   H16       1.0  0.3583237937216026  0.5957820039390072  0.5644060676684646  1.0000
  H   H17       1.0  0.0574225336067258  0.4139131413950921  0.6224780741827942  1.0000
  H   H18       1.0  0.9485554941222816  0.42645537337553213  0.6348570101762903  1.0000
  H   H19       1.0  0.0224942968605859  0.6219514965615148  0.6289290260965927  1.0000
  H   H20       1.0  0.0205355071079367  0.5797770710044929  0.6885392639605074  1.0000
  H   H21       1.0  0.13327616465717534  0.5680334900693111  0.687158589754965  1.0000
  H   H22       1.0  0.14160011553704518  0.6201280297894698  0.6358049762053426  1.0000
  H   H23       1.0  0.8899798217026739  0.4234113218087218  0.45359750187388664  1.0000
  H   H24       1.0  0.9378301757889103  0.5298077281035986  0.48980576339457105  1.0000
  H   H25       1.0  0.009964478877399997  0.4322585359403632  0.45025789890305395  1.0000
  H   H26       1.0  0.8882596339315042  0.3620515820525441  0.5391550043595785  1.0000
  H   H27       1.0  0.00023889490414320108  0.35864822555357995  0.5255358922070954  1.0000
  H   H28       1.0  0.06123071285426111  0.5394977087866124  0.49591239041645  1.0000
  H   H29       1.0  0.6523522880455841  0.053860948527109494  0.6679963577476328  1.0000
  H   H30       1.0  0.6599834403418399  0.170554359563134  0.6662704501136998  1.0000
  H   H31       1.0  0.6556921433671334  0.09117181890961493  0.47811517875980764  1.0000
  H   H32       1.0  0.7142317281565409  0.03906547923882906  0.5830386080779064  1.0000
  H   H33       1.0  0.6525120391504798  0.9778707687136503  0.486039834463412  1.0000
  H   H34       1.0  0.46392069232334876  0.0423864014220428  0.491912406260198  1.0000
  H   H35       1.0  0.5072111976093936  0.029447605459616097  0.4309336525450362  1.0000
  H   H36       1.0  0.4527577035644227  0.9244503315046513  0.49439333913164757  1.0000
  H   H37       1.0  0.5526903508461132  0.12406143427887885  0.6286182887985703  1.0000
  H   H38       1.0  0.5451933227818272  0.008337592661277378  0.6339663615763981  1.0000
  H   H39       1.0  0.49686804789059374  0.9116325562139735  0.4339862875390422  1.0000
  H   H40       1.0  0.4138931400637843  0.5934813755435897  0.8178418446038833  1.0000
  H   H41       1.0  0.3669775847971407  0.581989474575792  0.9107269498886694  1.0000
  H   H42       1.0  0.47006165954881135  0.6439666096676716  0.12314250447032292  1.0000
  H   H43       1.0  0.5299860751589164  0.6434255325702054  0.24056880249207774  1.0000
  H   H44       1.0  0.36203858146865997  0.346242989709161  0.7350083021595849  1.0000
  H   H45       1.0  0.3010318229716944  0.3870475288868321  0.014914682018506785  1.0000
  H   H46       1.0  0.3121644794013818  0.3348296171178903  0.8270089753363975  1.0000
  H   H47       1.0  0.3569887420382543  0.3857917098447388  0.13224620577705787  1.0000
  H   H48       1.0  0.2295431346321308  0.3198351781387885  0.15095275170222777  1.0000
  H   H49       1.0  0.10317154376234325  0.22884190635620877  0.03211045287704198  1.0000
  H   H50       1.0  0.9536047811847793  0.06015362124897914  0.8280625078729071  1.0000
  H   H51       1.0  0.8591977077934984  0.9225315742143819  0.7184867207882135  1.0000
  H   H52       1.0  0.0907584918415125  0.2520236873337964  0.2648568337256664  1.0000
  H   H53       1.0  0.8366308546900213  0.9837930247823581  0.9521799658545972  1.0000
  H   H54       1.0  0.9642119661837398  0.1633513374141913  0.14521383646156483  1.0000
  H   H55       1.0  0.7417029026375204  0.8461969953142727  0.8434875762462825  1.0000
  C   C1        1.0  0.7241307361462502  0.7636557568008725  0.6361763062183741  1.0000
  C   C2        1.0  0.5055226509900947  0.3089364910354179  0.5329848691295922  1.0000
  C   C3        1.0  0.4777295045445128  0.5573714933881676  0.7252913458931545  1.0000
  C   C4        1.0  0.6572324933401461  0.4220623953140787  0.47820765436091506  1.0000
  C   C5        1.0  0.4624866804815396  0.43535590430883525  0.6875952526324838  1.0000
  C   C6        1.0  0.7139979289709899  0.5525823651961731  0.5569617929455574  1.0000
  C   C7        1.0  0.5017435018146656  0.24893328204286302  0.42470140393862726  1.0000
  C   C8        1.0  0.6893173938559585  0.7202688649672383  0.7101658189293403  1.0000
  C   C9        1.0  0.7402066648885537  0.791163074726569  0.7106175626279522  1.0000
  C   C10       1.0  0.5301302549676733  0.2583094924047629  0.4966119541685429  1.0000
  C   C11       1.0  0.4412892848754096  0.48645547014400853  0.7302663731879734  1.0000
  C   C12       1.0  0.7320195077595385  0.49030508609343565  0.5363911290604334  1.0000
  C   C13       1.0  0.5337846767641491  0.5717475996122728  0.3344926743661387  1.0000
  C   C14       1.0  0.2818800273482367  0.4109544033520508  0.5433442564599247  1.0000
  C   C15       1.0  0.5248248212400455  0.7349896047702132  0.5923666551382922  1.0000
  C   C16       1.0  0.3243430470042199  0.3475954234774576  0.28525560246868753  1.0000
  C   C17       1.0  0.25901725565339717  0.33106043881516467  0.3518318161229174  1.0000
  C   C18       1.0  0.5185133401159874  0.6900534996556189  0.48149933422974556  1.0000
  C   C19       1.0  0.4844596252070942  0.44142027317604965  0.2656128546045976  1.0000
  C   C20       1.0  0.3411408417625949  0.5350393245976974  0.5564450471355542  1.0000
  C   C21       1.0  0.4881555771458109  0.5100008972618681  0.260641461963182  1.0000
  C   C22       1.0  0.27086075327853376  0.47763508823167206  0.5537101070108008  1.0000
  C   C23       1.0  0.5324546101610891  0.7593019052568764  0.5393221047626469  1.0000
  C   C24       1.0  0.24672304903330658  0.324599309101643  0.2821089114346265  1.0000
  C   C25       1.0  0.9458420583755328  0.4187552075206541  0.5812658480548266  1.0000
  C   C26       1.0  0.0224587831355407  0.5707804228350142  0.6361735203388008  1.0000
  C   C27       1.0  0.09931025823010488  0.5672272462333227  0.6368920733334491  1.0000
  C   C28       1.0  0.20466569565036244  0.4840964409288872  0.5606688623411954  1.0000
  C   C29       1.0  0.9439832730997465  0.4909363488871251  0.5725982644754879  1.0000
  C   C30       1.0  0.020154859976209093  0.4145722966611486  0.574661384953373  1.0000
  C   C31       1.0  0.07459261754045342  0.48864234470857326  0.5692841873593366  1.0000
  C   C32       1.0  0.023568571780138797  0.4854805854858098  0.4984107658071011  1.0000
  C   C33       1.0  0.9443184516904494  0.4816065264711257  0.49835463217090137  1.0000
  C   C34       1.0  0.1462432802872797  0.48688321625171244  0.5662742144059081  1.0000
  C   C35       1.0  0.8706936331033218  0.4924416776676922  0.5707773838167538  1.0000
  C   C36       1.0  0.8077681634468235  0.4938955653242517  0.5598113091338844  1.0000
  C   C37       1.0  0.6022985431928377  0.11602907476733301  0.6214766600131371  1.0000
  C   C38       1.0  0.6626218290658059  0.09587068207302017  0.5317501513957766  1.0000
  C   C39       1.0  0.6578434500856503  0.020385678742933143  0.536903895026171  1.0000
  C   C40       1.0  0.5530021644634857  0.8358953570621991  0.5443110829505643  1.0000
  C   C41       1.0  0.5952863244644034  0.11013335420538797  0.5464866920440842  1.0000
  C   C42       1.0  0.5963717574645101  0.038541686288127146  0.6235492023374076  1.0000
  C   C43       1.0  0.5839666879728965  0.977655500218866  0.5495197405571731  1.0000
  C   C44       1.0  0.5054199329408462  0.9554863510446124  0.4860237845439031  1.0000
  C   C45       1.0  0.5124444523321117  0.03271279782367032  0.4839870512645987  1.0000
  C   C46       1.0  0.5738093484564145  0.9028734793150122  0.5494958284984931  1.0000
  C   C47       1.0  0.5922162754020731  0.17787600737216996  0.5390118915618274  1.0000
  C   C48       1.0  0.5668910658592451  0.21875148404031117  0.5220658374508388  1.0000
  C   C49       1.0  0.45034444674467267  0.5138181895419649  0.19449954816968074  1.0000
  C   C50       1.0  0.3831724457994027  0.4426017060798627  0.1304207058696391  1.0000
  C   C51       1.0  0.3506091152425057  0.4427590706354181  0.0649045545156852  1.0000
  C   C52       1.0  0.38425308147007786  0.5154786536255712  0.06164668322780628  1.0000
  C   C53       1.0  0.4456241184012482  0.5881246278426956  0.12666162232574857  1.0000
  C   C54       1.0  0.478826549134304  0.587159007677684  0.19187267478214662  1.0000
  C   C55       1.0  0.36558196819748184  0.5306454414095539  0.8715885996606401  1.0000
  C   C56       1.0  0.39250824739436746  0.5367265326584063  0.8200542492433486  1.0000
  C   C57       1.0  0.3409256307481669  0.45874456588241225  0.8770077952162012  1.0000
  C   C58       1.0  0.397685417620913  0.4728702699720202  0.773115645112405  1.0000
  C   C59       1.0  0.36293612174525686  0.39809635630231804  0.7729516761327844  1.0000
  C   C60       1.0  0.33427441060420177  0.39089535364022504  0.8236334944491545  1.0000
  C   C61       1.0  0.7938621154585093  0.8733619972835599  0.7728447064576118  1.0000
  C   C62       1.0  0.7879157634612567  0.8929235627904432  0.8395394207131729  1.0000
  C   C63       1.0  0.8400079112509784  0.9696659681551338  0.9003061307174461  1.0000
  C   C64       1.0  0.9010199167149935  0.030586033807438292  0.8967636816954608  1.0000
  C   C65       1.0  0.9059292186896213  0.01268779142393577  0.8300450766874901  1.0000
  C   C66       1.0  0.8530686594016925  0.9355995232188975  0.7691499046326982  1.0000
  C   C67       1.0  0.1012969164362261  0.235266898517331  0.08360616963357612  1.0000
  C   C68       1.0  0.17164688163011013  0.2851505551578271  0.1502464298871544  1.0000
  C   C69       1.0  0.026380706565561195  0.18775230979752422  0.0811740711345905  1.0000
  C   C70       1.0  0.17060867514026506  0.288889319715274  0.21654735860035856  1.0000
  C   C71       1.0  0.09407972322540559  0.24833601648986559  0.2143617615057565  1.0000
  C   C72       1.0  0.023027257198499695  0.19874731516163277  0.14776367024509088  1.0000
  N   N1        1.0  0.6680261410749537  0.6838758714918639  0.595724146616945  1.0000
  N   N2        1.0  0.46495097109353617  0.3263593215439471  0.48544249058306826  1.0000
  N   N3        1.0  0.5164108260049503  0.5478342964670874  0.6834299288036974  1.0000
  N   N4        1.0  0.6004247387506254  0.44330080778606634  0.46519558554984997  1.0000
  N   N5        1.0  0.5064209536201998  0.47133615130695716  0.6587816290072438  1.0000
  N   N6        1.0  0.6347452520223836  0.5234273681016146  0.513134562098763  1.0000
  N   N7        1.0  0.4628027744586943  0.2896476483451735  0.4179288728510642  1.0000
  N   N8        1.0  0.6460725564959588  0.6563475766392486  0.641247302039396  1.0000
  N   N9        1.0  0.5531712110740942  0.5417713891611984  0.379592315258222  1.0000
  N   N10       1.0  0.353712581883876  0.4291371555994418  0.5417212522781228  1.0000
  N   N11       1.0  0.5085622406130383  0.658225201822148  0.5674271588018556  1.0000
  N   N12       1.0  0.3773160913349186  0.364299052009045  0.3506083933854  1.0000
  N   N13       1.0  0.33696571903976746  0.3536602966882612  0.3915255186539924  1.0000
  N   N14       1.0  0.5055702041688761  0.6296181364939742  0.49905573358731203  1.0000
  N   N15       1.0  0.5225915155318361  0.4600974065207097  0.33628329706223775  1.0000
  N   N16       1.0  0.39040402099863764  0.5051715516158309  0.5489792527807609  1.0000
  N   N17       1.0  0.3702524530313551  0.520784368748103  0.996294306461813  1.0000
  N   N18       1.0  0.3358573432118988  0.4524417108789365  0.9385557796629554  1.0000
  N   N19       1.0  0.9640213682896641  0.10596005333056988  0.9580872969875428  1.0000
  N   N20       1.0  0.9557473584151666  0.12193754739823968  0.016725903882694123  1.0000
  N   N21       1.0  0.7465530832341188  0.17195018523715808  0.5855253595475248  1.0000
  O   O1        1.0  0.7820239762413549  0.18108850001971893  0.647409106326556  1.0000
  O   O2        1.0  0.7725614157136604  0.2211003029958293  0.563960128411459  1.0000
