data_image0
_chemical_formula_structural       Zn2H24C44Br2N2O8
_chemical_formula_sum              "Zn2 H24 C44 Br2 N2 O8"
_cell_length_a       11.238028308013801
_cell_length_b       13.970831421017342
_cell_length_c       16.05403480400053
_cell_angle_alpha    90.00002423526664
_cell_angle_beta     89.99998333733024
_cell_angle_gamma    89.99982113334677

_space_group_name_H-M_alt    "P 1"
_space_group_IT_number       1

loop_
  _space_group_symop_operation_xyz
  'x, y, z'

loop_
  _atom_site_type_symbol
  _atom_site_label
  _atom_site_symmetry_multiplicity
  _atom_site_fract_x
  _atom_site_fract_y
  _atom_site_fract_z
  _atom_site_occupancy
  Zn  Zn1       1.0  0.4999994387072206  0.09873580107325348  5.902108313000001e-07  1.0000
  Zn  Zn2       1.0  0.5000003425676596  0.9012659481429848  0.999999815793366  1.0000
  H   H1        1.0  0.1349014097659662  0.15394565314645797  0.33394285611487373  1.0000
  H   H2        1.0  0.8650975507126546  0.8460538680338201  0.33394290923357783  1.0000
  H   H3        1.0  0.8650979352847158  0.15394553309652537  0.6660574224954277  1.0000
  H   H4        1.0  0.13490088712175213  0.8460548652728406  0.666057624164033  1.0000
  H   H5        1.0  0.8650983715116924  0.8460546645157551  0.666057549889054  1.0000
  H   H6        1.0  0.1349031204021998  0.15394573385025712  0.6660574967701365  1.0000
  H   H7        1.0  0.13490273583013854  0.8460540687875522  0.3339429835082869  1.0000
  H   H8        1.0  0.8650988941559065  0.1539454523893724  0.3339427818399017  1.0000
  H   H9        1.0  0.2531526087968814  0.15333706212444304  0.20171315680130422  1.0000
  H   H10       1.0  0.7468472964869123  0.8466638263433808  0.20171323420098025  1.0000
  H   H11       1.0  0.7468467386157585  0.15333730319444777  0.7982871215850269  1.0000
  H   H12       1.0  0.2531529186543793  0.8466631594391673  0.7982872994206931  1.0000
  H   H13       1.0  0.7468471724807769  0.84666325553777  0.7982872492026305  1.0000
  H   H14       1.0  0.25315337462655657  0.15333649131770946  0.7982871718028621  1.0000
  H   H15       1.0  0.25315304266064237  0.8466637302446286  0.20171266152267012  1.0000
  H   H16       1.0  0.7468486422964136  0.15333644244364564  0.20171248368656347  1.0000
  H   H17       1.0  0.3162818615385632  0.25152293000984116  6.370212944000001e-07  1.0000
  H   H18       1.0  0.6837179197377026  0.7484781034293847  0.9999997689827751  1.0000
  H   H19       1.0  0.6837190922363234  0.2515231845845634  5.996460004000002e-07  1.0000
  H   H20       1.0  0.3162808969058731  0.7484776058483292  7.284937880000002e-07  1.0000
  H   H21       1.0  0.30707438591105785  0.4290120204397141  6.706275499000002e-07  1.0000
  H   H22       1.0  0.6929253953681139  0.5709875814453298  0.9999991124798844  1.0000
  H   H23       1.0  0.6929230014468075  0.4290124949106371  0.9999990863473589  1.0000
  H   H24       1.0  0.3070767798323644  0.5709871069744067  6.967600754000003e-07  1.0000
  C   C1        1.0  0.1229120263930668  0.9999999672258111  0.5000007722223572  1.0000
  C   C2        1.0  0.8770868650500458  0.9999996346606538  0.5000002566779076  1.0000
  C   C3        1.0  0.0627279974430266  2.415021780000004e-08  0.4233863935483485  1.0000
  C   C4        1.0  0.9372719771015028  3.5798836959999987e-07  0.423386304590693  1.0000
  C   C5        1.0  0.9372717838360246  0.999999577734975  0.5766140124554513  1.0000
  C   C6        1.0  0.0627279655920816  6.138566280000001e-08  0.576614540243739  1.0000
  C   C7        1.0  0.1284787104630567  0.9999998203325474  0.34282738342029984  1.0000
  C   C8        1.0  0.871522025993528  0.9999997051635675  0.3428277466691655  1.0000
  C   C9        1.0  0.8715219606517977  0.9999997815515369  0.6571730225834145  1.0000
  C   C10       1.0  0.128477916701442  0.9999999984334452  0.6571730981651316  1.0000
  C   C11       1.0  0.1603366134782291  0.08651369315649758  0.3046716949062258  1.0000
  C   C12       1.0  0.8396641388410941  0.9134858137952333  0.30467115512670523  1.0000
  C   C13       1.0  0.83966299335502  0.08651365118424079  0.6953285588802205  1.0000
  C   C14       1.0  0.1603367067184323  0.9134867614100203  0.6953281573017522  1.0000
  C   C15       1.0  0.8396631678009426  0.9134859087285462  0.6953280882012012  1.0000
  C   C16       1.0  0.16033742210831287  0.08651450386459199  0.6953286279806792  1.0000
  C   C17       1.0  0.1603367879240309  0.9134859507009595  0.3046718471235864  1.0000
  C   C18       1.0  0.8396639643950365  0.0865135562510773  0.3046722487020902  1.0000
  C   C19       1.0  0.2259015107437321  0.0865314874067167  0.23109766062541587  1.0000
  C   C20       1.0  0.7740983823253629  0.9134686995653567  0.23109775707430913  1.0000
  C   C21       1.0  0.7740980960186619  0.08653236156173698  0.768902593167752  1.0000
  C   C22       1.0  0.22590246330198482  0.9134688025665055  0.7689028011404349  1.0000
  C   C23       1.0  0.7740982705340543  0.9134688302553399  0.7689021224821533  1.0000
  C   C24       1.0  0.2259022887868412  0.0865323338726043  0.7689020260332955  1.0000
  C   C25       1.0  0.22590168525899665  0.9134679561004687  0.23109781283618255  1.0000
  C   C26       1.0  0.7740990976459015  0.08653223087048191  0.23109760486345016  1.0000
  C   C27       1.0  0.2605527825636074  0.9999997201678782  0.19427574516902277  1.0000
  C   C28       1.0  0.7394472872325011  0.9999991190657623  0.19427507355987939  1.0000
  C   C29       1.0  0.7394462702956872  0.9999999834301078  0.805724476769001  1.0000
  C   C30       1.0  0.2605535453000627  0.999999868752667  0.8057239025850864  1.0000
  C   C31       1.0  0.33944920029197323  3.1862267489999997e-07  0.11899995664668953  1.0000
  C   C32       1.0  0.6605517906274302  2.0629100489999997e-06  0.11899992398478082  1.0000
  C   C33       1.0  0.6605507423989607  1.5323052338e-06  0.8810002652916398  1.0000
  C   C34       1.0  0.33944993173373217  5.037926343000001e-07  0.8810002979534918  1.0000
  C   C35       1.0  0.39709933529916697  0.2947106662728274  6.367500092000002e-07  1.0000
  C   C36       1.0  0.6029004459800049  0.7052889356122236  0.9999991463574247  1.0000
  C   C37       1.0  0.6029012429499261  0.2947099351819347  0.9999990707837585  1.0000
  C   C38       1.0  0.3970985383291251  0.7052896667032655  1.3352200412e-06  1.0000
  C   C39       1.0  0.39356183723567273  0.39406792105609867  0.9999997332623354  1.0000
  C   C40       1.0  0.6064377361763179  0.6059326396121419  0.9999985048131426  1.0000
  C   C41       1.0  0.6064372575891922  0.3940676538572702  0.9999978429197047  1.0000
  C   C42       1.0  0.3935625236874642  0.6059333795815006  6.943952542000001e-07  1.0000
  C   C43       1.0  0.5000012245378258  0.4468971415392247  0.9999978634703767  1.0000
  C   C44       1.0  0.49999923870758073  0.5531048506814783  0.9999985059161606  1.0000
  Br  Br1       1.0  0.29282690235503145  0.999999652238614  0.49999907031549656  1.0000
  Br  Br2       1.0  0.7071728789245385  0.999999949645982  0.49999884410282663  1.0000
  N   N1        1.0  0.5000000429226362  0.24588022920668348  1.2401914091000004e-06  1.0000
  N   N2        1.0  0.49999905638349423  0.7541205612276228  1.3337412099e-06  1.0000
  O   O1        1.0  0.37141106101721977  0.08119157405901942  0.09044141557766493  1.0000
  O   O2        1.0  0.6285888905302386  0.9188071129979464  0.09044029780150002  1.0000
  O   O3        1.0  0.6285894563132643  0.08119145030299528  0.9095594591458042  1.0000
  O   O4        1.0  0.3714110445359537  0.9188076348552839  0.9095596394822894  1.0000
  O   O5        1.0  0.6285878304287921  0.9188065962732637  0.9095589904259642  1.0000
  O   O6        1.0  0.3714108907490682  0.08119248888694841  0.9095588624095686  1.0000
  O   O7        1.0  0.3714112148044962  0.9188067200269073  0.09044032396127481  1.0000
  O   O8        1.0  0.6285887367443479  0.08119125125305261  0.09044138941775513  1.0000
