data_image0
_chemical_formula_structural       Cd4H28C32I8N20
_chemical_formula_sum              "Cd4 H28 C32 I8 N20"
_cell_length_a       9.382572583941855
_cell_length_b       9.650799568701835
_cell_length_c       15.104431446015305
_cell_angle_alpha    90.00014620607327
_cell_angle_beta     90.00002119824667
_cell_angle_gamma    108.08151588649127

_space_group_name_H-M_alt    "P 1"
_space_group_IT_number       1

loop_
  _space_group_symop_operation_xyz
  'x, y, z'

loop_
  _atom_site_type_symbol
  _atom_site_label
  _atom_site_symmetry_multiplicity
  _atom_site_fract_x
  _atom_site_fract_y
  _atom_site_fract_z
  _atom_site_occupancy
  Cd  Cd1       1.0  0.04840062203945194  0.39843283084285025  0.8914201816640384  1.0000
  Cd  Cd2       1.0  0.4516013324388268  0.10156974693470033  0.3914203491965864  1.0000
  Cd  Cd3       1.0  0.9515986748272738  0.6015697781653345  0.10857798198955487  1.0000
  Cd  Cd4       1.0  0.5483991146010965  0.8984263399580785  0.6085764903370076  1.0000
  H   H1        1.0  0.1361550456021734  0.9686289277888142  0.8983471032560855  1.0000
  H   H2        1.0  0.36384163324731844  0.5313722550511957  0.3983425060504189  1.0000
  H   H3        1.0  0.8638389128167533  0.03137365145745721  0.10165834302799938  1.0000
  H   H4        1.0  0.6361602648805375  0.4686216637705913  0.6016589678830256  1.0000
  H   H5        1.0  0.7785358043042052  0.1409529445725255  0.774601332929592  1.0000
  H   H6        1.0  0.7214637190136273  0.35904643411654297  0.2746018869432375  1.0000
  H   H7        1.0  0.2214570864213031  0.8590496287134075  0.22540212718232058  1.0000
  H   H8        1.0  0.2785398898640423  0.6409529346897714  0.7254002490521997  1.0000
  H   H9        1.0  0.3251964202836177  0.010594879406134801  0.0053964652514296  1.0000
  H   H10       1.0  0.17479510269857468  0.48940259633096195  0.5053905102160312  1.0000
  H   H11       1.0  0.6747968538341952  0.9894055198438855  0.9946076569160807  1.0000
  H   H12       1.0  0.8252042766516396  0.5105934846091317  0.49460765343219026  1.0000
  H   H13       1.0  0.47360474152976206  0.42566467897049187  0.1406677174908566  1.0000
  H   H14       1.0  0.026403016936498602  0.07434003947451373  0.6406676738319205  1.0000
  H   H15       1.0  0.5263945140966939  0.5743411940748049  0.8593317702801426  1.0000
  H   H16       1.0  0.9735999488795811  0.9256538852969034  0.35933115187217607  1.0000
  H   H17       1.0  0.012010370411928883  0.8276413929172296  0.7987146267160553  1.0000
  H   H18       1.0  0.4879906984839197  0.6723604431990113  0.2987129308709484  1.0000
  H   H19       1.0  0.9879927725869917  0.17236667798697178  0.20128419899972266  1.0000
  H   H20       1.0  0.5120086808677726  0.3276356377441375  0.7012865568919862  1.0000
  H   H21       1.0  0.2913203993509725  0.503929018101168  0.050140029743715786  1.0000
  H   H22       1.0  0.20869105008107883  0.9960793466108486  0.5501413739644432  1.0000
  H   H23       1.0  0.7086809916556477  0.4960768668510271  0.949857471855395  1.0000
  H   H24       1.0  0.7913115735837054  0.0039134881609044015  0.4498561276240024  1.0000
  H   H25       1.0  0.4945416583962796  0.17297395568299126  0.11859650465020617  1.0000
  H   H26       1.0  0.0054568661044954265  0.32702516905201423  0.6185909157631568  1.0000
  H   H27       1.0  0.5054540520097606  0.8270308095045781  0.8814056313490254  1.0000
  H   H28       1.0  0.9945425544867206  0.6729676478524953  0.3814065858250116  1.0000
  C   C1        1.0  0.1206455001191742  0.07588589138595843  0.907088171136152  1.0000
  C   C2        1.0  0.379354354021892  0.42411674689876133  0.4070855483777577  1.0000
  C   C3        1.0  0.8793502102898287  0.9241188738077287  0.0929166130925196  1.0000
  C   C4        1.0  0.620648871462734  0.5758847959419388  0.5929152635047215  1.0000
  C   C5        1.0  0.22144466907239746  0.1732533258744838  0.9698963173746689  1.0000
  C   C6        1.0  0.2785524646425088  0.32675067486916026  0.46989351730363876  1.0000
  C   C7        1.0  0.7785524511761253  0.82675253526849  0.03010714274029879  1.0000
  C   C8        1.0  0.7214454223839509  0.6732508381882027  0.5301053084062912  1.0000
  C   C9        1.0  0.8090602414417489  0.04166868485391011  0.7662401311929299  1.0000
  C   C10       1.0  0.6909381542391203  0.45833391326272754  0.26624018183866827  1.0000
  C   C11       1.0  0.1909355102045539  0.9583328162965477  0.23376068068889566  1.0000
  C   C12       1.0  0.30906980788753197  0.5416589513000147  0.7337626162091266  1.0000
  C   C13       1.0  0.3222044988433979  0.12116278109728285  0.017573115140066892  1.0000
  C   C14       1.0  0.17779234859117576  0.37883804473861465  0.5175669782427192  1.0000
  C   C15       1.0  0.6777904447780401  0.8788463321621196  0.9824276967479688  1.0000
  C   C16       1.0  0.8222106997017279  0.6211493519509335  0.4824258889397654  1.0000
  C   C17       1.0  0.40437780122532985  0.3503145847956049  0.09277574433792778  1.0000
  C   C18       1.0  0.09563381996279222  0.14968558205427482  0.5927725261505187  1.0000
  C   C19       1.0  0.5956171423961082  0.6496945284637975  0.9072250675501079  1.0000
  C   C20       1.0  0.9043771268046967  0.8502964182601435  0.40722298925760464  1.0000
  C   C21       1.0  0.9310920603677744  0.8811369052951863  0.7785359008143117  1.0000
  C   C22       1.0  0.5689085455363313  0.618864364399734  0.278534709264484  1.0000
  C   C23       1.0  0.06890894725098211  0.11887115370211634  0.2214649110733546  1.0000
  C   C24       1.0  0.43109796550386653  0.38113066823705577  0.7214647784981805  1.0000
  C   C25       1.0  0.3021917317634718  0.3952482994554389  0.04201053870366419  1.0000
  C   C26       1.0  0.19781576477210192  0.10475922698356754  0.542011235710042  1.0000
  C   C27       1.0  0.6978107269395224  0.6047575914632193  0.9579915972970523  1.0000
  C   C28       1.0  0.8021842576374782  0.8952422979868262  0.4579882520574399  1.0000
  C   C29       1.0  0.4157457650235443  0.211370369339278  0.08015350714040889  1.0000
  C   C30       1.0  0.0842525910006557  0.2886351057644205  0.5801491921185828  1.0000
  C   C31       1.0  0.5842524229169117  0.7886354977609786  0.9198506150320184  1.0000
  C   C32       1.0  0.9157435027925019  0.7113674853765134  0.4198489715347335  1.0000
  I   I1        1.0  0.16970950916153532  0.7003881921419649  0.9616554577781213  1.0000
  I   I2        1.0  0.3302887211432052  0.7996143792874764  0.46164864919129656  1.0000
  I   I3        1.0  0.8302868855359904  0.2996187530219745  0.03833939559201129  1.0000
  I   I4        1.0  0.6697128348252052  0.2003784495178138  0.5383442179955438  1.0000
  I   I5        1.0  0.8564544413319409  0.4518974122853976  0.7603004947937179  1.0000
  I   I6        1.0  0.6435482530702927  0.048101918167290605  0.260301847148618  1.0000
  I   I7        1.0  0.143554641938323  0.5481193964573169  0.23969766887240235  1.0000
  I   I8        1.0  0.3564368506818597  0.9518690571058247  0.7396916820761987  1.0000
  N   N1        1.0  0.9271085717128359  0.015673470712819406  0.808871317041948  1.0000
  N   N2        1.0  0.5728927802535536  0.4843282523336542  0.3088700668612602  1.0000
  N   N3        1.0  0.07288641315108885  0.9843323785140683  0.19113015690076193  1.0000
  N   N4        1.0  0.4271090766318153  0.515668930520647  0.6911307450175099  1.0000
  N   N5        1.0  0.21311253557951207  0.30964876198135755  0.9816062376807578  1.0000
  N   N6        1.0  0.2868903461792058  0.190353148636639  0.481605200203603  1.0000
  N   N7        1.0  0.7868852689671614  0.690359279151757  0.01839589832135149  1.0000
  N   N8        1.0  0.713113386419991  0.8096364280598752  0.5183936254969692  1.0000
  N   N9        1.0  0.7466367936890421  0.9309650694105897  0.713363000133995  1.0000
  N   N10       1.0  0.7533619144388198  0.5690337130788167  0.2133637431748454  1.0000
  N   N11       1.0  0.2533624619396448  0.06904080363929672  0.2866384738090844  1.0000
  N   N12       1.0  0.24664348766771135  0.4309645776347396  0.7866350825330526  1.0000
  N   N13       1.0  0.017649227706101604  0.11452052180728602  0.8669410361718588  1.0000
  N   N14       1.0  0.4823533563110944  0.3854841228038454  0.36693902884022117  1.0000
  N   N15       1.0  0.9823465239416793  0.8854809793462339  0.13306109982467965  1.0000
  N   N16       1.0  0.5176527300972892  0.614516347907504  0.6330617830416114  1.0000
  N   N17       1.0  0.8229828566139901  0.8296938967529643  0.720748834855861  1.0000
  N   N18       1.0  0.6770172778759472  0.6703060158285582  0.22074907020200377  1.0000
  N   N19       1.0  0.17701956084355433  0.17031525819209042  0.2792499908607552  1.0000
  N   N20       1.0  0.32298321041090367  0.32968680704088643  0.7792524037304174  1.0000
