data_image0
_chemical_formula_structural       Ca2P4H22C8N2O18
_chemical_formula_sum              "Ca2 P4 H22 C8 N2 O18"
_cell_length_a       7.134057863889904
_cell_length_b       7.259673379701181
_cell_length_c       10.436952607982168
_cell_angle_alpha    78.72497868339465
_cell_angle_beta     80.53520876479362
_cell_angle_gamma    89.41062010115073

_space_group_name_H-M_alt    "P 1"
_space_group_IT_number       1

loop_
  _space_group_symop_operation_xyz
  'x, y, z'

loop_
  _atom_site_type_symbol
  _atom_site_label
  _atom_site_symmetry_multiplicity
  _atom_site_fract_x
  _atom_site_fract_y
  _atom_site_fract_z
  _atom_site_occupancy
  Ca  Ca1       1.0  0.6201212317810698  0.8290497067530752  0.74172856752201  1.0000
  Ca  Ca2       1.0  0.3798785738105223  0.17095033174819463  0.25827105921751325  1.0000
  P   P1        1.0  0.5177655520099691  0.27670223900211244  0.883836035802929  1.0000
  P   P2        1.0  0.48223421314079207  0.723294992207798  0.11616589523208636  1.0000
  P   P3        1.0  0.10672056648392922  0.8857291202672712  0.7912951813361103  1.0000
  P   P4        1.0  0.8932792391076632  0.1142709182339985  0.20870444540340566  1.0000
  H   H1        1.0  0.6899675189087872  0.4450255686812241  0.70214793218355  1.0000
  H   H2        1.0  0.3100308474397692  0.5549730578731982  0.2978539669585487  1.0000
  H   H3        1.0  0.266041469754704  0.7961678283766817  0.9552253880711489  1.0000
  H   H4        1.0  0.7339583605242693  0.20383361629228597  0.04477500194062153  1.0000
  H   H5        1.0  0.7468405814657473  0.19893673765353975  0.565055817066522  1.0000
  H   H6        1.0  0.2531591792180521  0.801060491034356  0.4349441985484929  1.0000
  H   H7        1.0  0.7107302915333236  0.07446522892617222  0.46485928802084686  1.0000
  H   H8        1.0  0.2892694916043723  0.925533404668414  0.5351405331564152  1.0000
  H   H9        1.0  0.3445550076312571  0.19379460504238463  0.696951489050285  1.0000
  H   H10       1.0  0.6554462192164365  0.8062054430210708  0.303047975144402  1.0000
  H   H11       1.0  0.19642011081099037  0.1633474895506737  0.9492652647025465  1.0000
  H   H12       1.0  0.8035782488371196  0.8366511332207268  0.050733761309551526  1.0000
  H   H13       1.0  0.19649324274864446  0.4116493830460469  0.8999174137962669  1.0000
  H   H14       1.0  0.8035051191329502  0.5883492409863608  0.10008256992583137  1.0000
  H   H15       1.0  0.0187620545640428  0.15988594855016908  0.6498441117132572  1.0000
  H   H16       1.0  0.9812391700501734  0.8401140982522717  0.3501543947714296  1.0000
  H   H17       1.0  0.941280309921332  0.17712337334232583  0.8187537792860553  1.0000
  H   H18       1.0  0.05871949120330559  0.8228766626369362  0.18124393203346761  1.0000
  H   H19       1.0  0.321675553180512  0.5440459267416101  0.6702275429026373  1.0000
  H   H20       1.0  0.6783270747028709  0.45595272723833363  0.32977291089496663  1.0000
  H   H21       1.0  0.0753812587294576  0.5043678357352306  0.6766496826527089  1.0000
  H   H22       1.0  0.9246213893743374  0.4956322218903963  0.3233496189971489  1.0000
  C   C1        1.0  0.2640177196545608  0.2832936326163846  0.87662260831776  1.0000
  C   C2        1.0  0.7359792165039707  0.7167049793318299  0.12337562252916712  1.0000
  C   C3        1.0  0.0584758916113302  0.1366583691029746  0.7487916025369259  1.0000
  C   C4        1.0  0.9415253330028861  0.8633416776994666  0.2512069039477609  1.0000
  C   C5        1.0  0.21644142332339558  0.4469967212915619  0.6520258238818144  1.0000
  C   C6        1.0  0.7835612067934646  0.5530019339493891  0.3479755876257897  1.0000
  C   C7        1.0  0.26113926113354313  0.4296843376589763  0.507591187850565  1.0000
  C   C8        1.0  0.7388565837578084  0.5703339422477569  0.49241118738274275  1.0000
  N   N1        1.0  0.2290195533493318  0.26083704152676995  0.7416119395531523  1.0000
  N   N2        1.0  0.7709816734983618  0.7391630065366783  0.25838752464153464  1.0000
  O   O1        1.0  0.5937946582978453  0.1137791075451986  0.8220277429308922  1.0000
  O   O2        1.0  0.4062022823276478  0.8862195069250234  0.17797240333603528  1.0000
  O   O3        1.0  0.5378692863199673  0.27274187887410045  0.0270531329313286  1.0000
  O   O4        1.0  0.4621291002490082  0.7272581513260049  0.9729476140630237  1.0000
  O   O5        1.0  0.6086337386336353  0.46776614392309307  0.7934137740509967  1.0000
  O   O6        1.0  0.3913660894118536  0.532235299484867  0.20658565825077346  1.0000
  O   O7        1.0  0.2980962604948658  0.8583568202637719  0.7073923756536332  1.0000
  O   O8        1.0  0.7019035226428301  0.14164181333081424  0.2926074455236289  1.0000
  O   O9        1.0  0.1314052591107995  0.842374556758358  0.942478984632423  1.0000
  O   O10       1.0  0.8685945689346896  0.15762688664960217  0.057520447669347184  1.0000
  O   O11       1.0  0.9328648296591027  0.7837637727324703  0.7735188040560034  1.0000
  O   O12       1.0  0.0671349534785932  0.21623486086211594  0.2264810171212588  1.0000
  O   O13       1.0  0.3450672172371583  0.2874952574274872  0.4777760195244483  1.0000
  O   O14       1.0  0.6549367623071517  0.7124991901335634  0.5222238973315569  1.0000
  O   O15       1.0  0.21423028256745622  0.570403336969548  0.4245172195896671  1.0000
  O   O16       1.0  0.7857722846546764  0.4295911060733531  0.5754866906511822  1.0000
  O   O17       1.0  0.7282599023238489  0.06714480680479082  0.5577121724783183  1.0000
  O   O18       1.0  0.2717399032677505  0.9328552316964788  0.4422874542611979  1.0000
