data_image0
_chemical_formula_structural       Zn8H52C56O26
_chemical_formula_sum              "Zn8 H52 C56 O26"
_cell_length_a       14.456816552467622
_cell_length_b       15.168811056977164
_cell_length_c       16.43914071198102
_cell_angle_alpha    90.00047414929999
_cell_angle_beta     90.00432629145772
_cell_angle_gamma    92.17002747427382

_space_group_name_H-M_alt    "P 1"
_space_group_IT_number       1

loop_
  _space_group_symop_operation_xyz
  'x, y, z'

loop_
  _atom_site_type_symbol
  _atom_site_label
  _atom_site_symmetry_multiplicity
  _atom_site_fract_x
  _atom_site_fract_y
  _atom_site_fract_z
  _atom_site_occupancy
  Zn  Zn1       1.0  0.5049913407654714  0.4272748384923588  0.9049087786440638  1.0000
  Zn  Zn2       1.0  0.5028484423659947  0.42337304604279064  0.0945725670528432  1.0000
  Zn  Zn3       1.0  0.002870915241636903  0.42337255967677834  0.4054265542426023  1.0000
  Zn  Zn4       1.0  0.0049543507156073  0.4273532900716929  0.5950892027285448  1.0000
  Zn  Zn5       1.0  0.38351826903375763  0.5650394598088082  0.9999817219239729  1.0000
  Zn  Zn6       1.0  0.8835017788170563  0.5650680828723083  0.5000241766578954  1.0000
  Zn  Zn7       1.0  0.6086907342251708  0.5864729511175781  0.9991167818805167  1.0000
  Zn  Zn8       1.0  0.1087060041203287  0.5864820554180381  0.5008852913750772  1.0000
  H   H1        1.0  0.5932371223373566  0.8568492165762506  0.9416410109727168  1.0000
  H   H2        1.0  0.2948905356567551  0.5789489421794582  0.7200361817057586  1.0000
  H   H3        1.0  0.7949094455283758  0.5789618280307066  0.7800160557646552  1.0000
  H   H4        1.0  0.7954162155588095  0.5758339091460698  0.21593245392732294  1.0000
  H   H5        1.0  0.32486420731265764  0.8951720076792995  0.22594766904310862  1.0000
  H   H6        1.0  0.23534567294164793  0.9101631445323688  0.15377877623823372  1.0000
  H   H7        1.0  0.2354630453362035  0.8129764364480393  0.21319378711488216  1.0000
  H   H8        1.0  0.2899613926279727  0.7809450498516384  0.0725220507722923  1.0000
  H   H9        1.0  0.3736316877797066  0.760408279892637  0.14523520555384553  1.0000
  H   H10       1.0  0.7360111188720071  0.9099631066650388  0.34515057421810275  1.0000
  H   H11       1.0  0.8259287683286161  0.8948916291391524  0.2733983312041346  1.0000
  H   H12       1.0  0.0929070860253418  0.8568956064169337  0.5587871952094687  1.0000
  H   H13       1.0  0.7364723147004995  0.8127027888668577  0.2858513612516803  1.0000
  H   H14       1.0  0.8742504410505493  0.7602135929617617  0.354509397716754  1.0000
  H   H15       1.0  0.7902313609529941  0.7809383869926734  0.4268616005490317  1.0000
  H   H16       1.0  0.7928300352117861  0.1048862040337397  0.9090907520813689  1.0000
  H   H17       1.0  0.7336987463428247  0.0931158697948575  0.8148419646128319  1.0000
  H   H18       1.0  0.8026306632606365  0.1895150806346066  0.8347190668639612  1.0000
  H   H19       1.0  0.635039631139172  0.22130459300409913  0.8504325689181017  1.0000
  H   H20       1.0  0.6968182374122308  0.23899504948848724  0.9403509116325923  1.0000
  H   H21       1.0  0.23330637550838423  0.0929097762904334  0.6855330299528434  1.0000
  H   H22       1.0  0.29246427747047943  0.10495040574249967  0.591329145316756  1.0000
  H   H23       1.0  0.6568269873697477  0.0054356524477797  0.9039307719637437  1.0000
  H   H24       1.0  0.30218086950208095  0.18939740644362496  0.6659056324300252  1.0000
  H   H25       1.0  0.19642670639804297  0.23907757289075696  0.560319625938682  1.0000
  H   H26       1.0  0.13455980668871353  0.22116271314252597  0.6501351278688078  1.0000
  H   H27       1.0  0.7070284823030237  0.3618798743268314  0.5726347906240861  1.0000
  H   H28       1.0  0.7777125917540104  0.29770426080607126  0.6362558836444024  1.0000
  H   H29       1.0  0.6580636025844343  0.26998803688024253  0.6257043120275441  1.0000
  H   H30       1.0  0.6842350239373047  0.3444560042156866  0.7593440030292484  1.0000
  H   H31       1.0  0.6138841297455928  0.40572554761028096  0.6971725122251515  1.0000
  H   H32       1.0  0.767857664927277  0.3048222252712947  0.3755862366903528  1.0000
  H   H33       1.0  0.6976474278022241  0.37564527580302337  0.4331345014521305  1.0000
  H   H34       1.0  0.1563360029325551  0.0054857570944975  0.5965839393889782  1.0000
  H   H35       1.0  0.6473043889133978  0.28103442250897354  0.3850679193046461  1.0000
  H   H36       1.0  0.6093694005367497  0.41256274178446967  0.3040283405327316  1.0000
  H   H37       1.0  0.6789587454380169  0.34460668907786385  0.2476060253432379  1.0000
  H   H38       1.0  0.19754118418853042  0.3757941020993413  0.0668551596276359  1.0000
  H   H39       1.0  0.2677803417265779  0.3048953106574715  0.12432142332980331  1.0000
  H   H40       1.0  0.1471961998901676  0.2811579873436257  0.11485503427236671  1.0000
  H   H41       1.0  0.17895810548923663  0.34461308848936767  0.2523673703256862  1.0000
  H   H42       1.0  0.10936964423962792  0.4126436762629524  0.19599425204231846  1.0000
  H   H43       1.0  0.2777799379790693  0.2975624189891235  0.8636188903348627  1.0000
  H   H44       1.0  0.20709968713465096  0.36166104351028133  0.9273085881767287  1.0000
  H   H45       1.0  0.35743562603741463  0.9940792878638476  0.11575908923633453  1.0000
  H   H46       1.0  0.15814850184140286  0.26984517501001903  0.874131680602332  1.0000
  H   H47       1.0  0.11392396841193181  0.4056310069192505  0.8027961864700759  1.0000
  H   H48       1.0  0.184267153475588  0.3444239633433454  0.7405755303500144  1.0000
  H   H49       1.0  0.8579023156344409  0.9940207324091047  0.3836762445650521  1.0000
  H   H50       1.0  0.4210793167382152  0.14266127250320443  0.0787757754936322  1.0000
  H   H51       1.0  0.9213983045117546  0.14266780237593224  0.420885977054482  1.0000
  H   H52       1.0  0.2954816906107425  0.5758076067219662  0.2841417645013138  1.0000
  C   C1        1.0  0.3218787717272917  0.4803975760994065  0.15414924640806052  1.0000
  C   C2        1.0  0.0406682824261111  0.8879915276823809  0.5217544566660026  1.0000
  C   C3        1.0  0.4064176895732389  0.8720834019487212  0.0696992817458408  1.0000
  C   C4        1.0  0.9066901225142845  0.8720418550721478  0.4299929141368821  1.0000
  C   C5        1.0  0.40755673377641705  0.9630151820071049  0.0764970218493275  1.0000
  C   C6        1.0  0.9078459352172035  0.9629768219550952  0.4231427394322367  1.0000
  C   C7        1.0  0.7445099482084744  0.5236531029526645  0.7773155491552615  1.0000
  C   C8        1.0  0.743560298336867  0.5219267133964891  0.2208934946669174  1.0000
  C   C9        1.0  0.24360126374382676  0.5219239692145266  0.2791387800184851  1.0000
  C   C10       1.0  0.24450343214713402  0.523631741230453  0.7227094356785244  1.0000
  C   C11       1.0  0.24556029863855142  0.46569736385691124  0.21539104004259002  1.0000
  C   C12       1.0  0.32313082312381175  0.4790162107415411  0.8460540638970073  1.0000
  C   C13       1.0  0.24773235438112814  0.4644181708955982  0.7840552585523  1.0000
  C   C14       1.0  0.7477198279943593  0.4644736540721651  0.7159408450137905  1.0000
  C   C15       1.0  0.7455344574128094  0.4656851609206639  0.2846317374667109  1.0000
  C   C16       1.0  0.6766749981929081  0.519185192996062  0.8440390177163266  1.0000
  C   C17       1.0  0.6756088622485664  0.5164291623767666  0.15416837972399833  1.0000
  C   C18       1.0  0.1756412923845119  0.5164378575419802  0.3458439967460053  1.0000
  C   C19       1.0  0.17667268603375424  0.5191853612611297  0.6559758070150536  1.0000
  C   C20       1.0  0.4818685283238154  0.7374567942727949  0.006995862379525901  1.0000
  C   C21       1.0  0.9818786449618103  0.7374766454124709  0.493035718807505  1.0000
  C   C22       1.0  0.5197718351664024  0.2620262608652482  0.9981660953323869  1.0000
  C   C23       1.0  0.8231073271899946  0.47910120660446853  0.6539526340353562  1.0000
  C   C24       1.0  0.019706526730601602  0.2620615371839321  0.5018294702719572  1.0000
  C   C25       1.0  0.4758378056254601  0.8347642189648852  0.0189895152231898  1.0000
  C   C26       1.0  0.9758730237608476  0.8347825417548833  0.48100500232287413  1.0000
  C   C27       1.0  0.5326032809385383  0.16479559737737054  0.9947588624680677  1.0000
  C   C28       1.0  0.0325126782310576  0.1648302208836228  0.5053045915143316  1.0000
  C   C29       1.0  0.6043015210406111  0.0366562729678463  0.940522310882699  1.0000
  C   C30       1.0  0.10395565134448502  0.0367019820631711  0.5598194586535785  1.0000
  C   C31       1.0  0.6019504521270919  0.12756261366206448  0.9439900881411705  1.0000
  C   C32       1.0  0.1016285138874551  0.12760963039980308  0.5563349267689475  1.0000
  C   C33       1.0  0.471518112743759  0.11182963453781977  0.0395824558194207  1.0000
  C   C34       1.0  0.8218721435186326  0.4803941264352004  0.3458707989130688  1.0000
  C   C35       1.0  0.971633166037357  0.1118331929220346  0.460272792612436  1.0000
  C   C36       1.0  0.3368638547369543  0.8144954531527586  0.11635175346807362  1.0000
  C   C37       1.0  0.2803675708064831  0.8611695237454455  0.18066784182882156  1.0000
  C   C38       1.0  0.8373545636375754  0.8143762674191349  0.3831502379728918  1.0000
  C   C39       1.0  0.7811973818904152  0.8609363556245596  0.31851920742952444  1.0000
  C   C40       1.0  0.6716406715607877  0.1863455992146754  0.8987482769567166  1.0000
  C   C41       1.0  0.7544369054760411  0.14058602754677454  0.8625700952854771  1.0000
  C   C42       1.0  0.17122698988292484  0.18632085287732994  0.6017900676504908  1.0000
  C   C43       1.0  0.2540376990651724  0.14050478500463728  0.6379222354096542  1.0000
  C   C44       1.0  0.6851704843442761  0.38339637555669254  0.7028367791345006  1.0000
  C   C45       1.0  0.4718179091390412  0.018851902217697603  0.03392715666564071  1.0000
  C   C46       1.0  0.7089463633856569  0.3253443758506052  0.6303033508687435  1.0000
  C   C47       1.0  0.679886240988701  0.38771532462990876  0.3014646629054809  1.0000
  C   C48       1.0  0.6998654751525212  0.3346494589289363  0.3781147035221438  1.0000
  C   C49       1.0  0.17986612791081313  0.3877626174701447  0.19853181370988446  1.0000
  C   C50       1.0  0.19978866082471572  0.33474293583631715  0.12183259627637003  1.0000
  C   C51       1.0  0.18522131164191794  0.3833142668858612  0.7971143618646794  1.0000
  C   C52       1.0  0.20901601974244952  0.3252125758362823  0.8695952049719865  1.0000
  C   C53       1.0  0.9718898925323316  0.0188548080701523  0.46595202621307413  1.0000
  C   C54       1.0  0.5399202667206496  0.9808271175829119  0.9831749018266508  1.0000
  C   C55       1.0  0.0397580555295747  0.9808598258562852  0.5169754938625033  1.0000
  C   C56       1.0  0.540827872044339  0.8879560614618284  0.9784606676238569  1.0000
  O   O1        1.0  0.499716862842611  0.5028587868361213  0.0007408430613296001  1.0000
  O   O2        1.0  0.11241609351086623  0.45901937188859415  0.6607077583431504  1.0000
  O   O3        1.0  0.3071200587082927  0.5316836717348038  0.9041149557230457  1.0000
  O   O4        1.0  0.30701372064230276  0.5342807869092141  0.0967637479086818  1.0000
  O   O5        1.0  0.8070156832159867  0.534289266818547  0.4032473818887681  1.0000
  O   O6        1.0  0.8070537851800879  0.5317315549809579  0.5958681594010784  1.0000
  O   O7        1.0  0.685373150794149  0.5736847711529264  0.0971784090552035  1.0000
  O   O8        1.0  0.6868594537295181  0.5757520706823984  0.9015909354926919  1.0000
  O   O9        1.0  0.1868553392454047  0.5757561568931776  0.5984341176599487  1.0000
  O   O10       1.0  0.1853870822787158  0.5737033283086104  0.4028295692765696  1.0000
  O   O11       1.0  0.40543496056923806  0.6924051144593266  0.002087632908129  1.0000
  O   O12       1.0  0.9997055107605705  0.5028998301557834  0.4992253882219657  1.0000
  O   O13       1.0  0.9054402705989094  0.692432322517838  0.4978938147452681  1.0000
  O   O14       1.0  0.5075006071680832  0.29688786696380715  0.06793884347131753  1.0000
  O   O15       1.0  0.5192873142036093  0.3022921816163374  0.9299970255198886  1.0000
  O   O16       1.0  0.019162542066659707  0.3023612100630473  0.5699844341351793  1.0000
  O   O17       1.0  0.0075340003852204995  0.29689067739778346  0.43202432380783057  1.0000
  O   O18       1.0  0.5627912008138339  0.7073547442470768  0.0011926749501967  1.0000
  O   O19       1.0  0.06279187889909818  0.7073695849948719  0.4988940190401936  1.0000
  O   O20       1.0  0.393223501468519  0.4351432673010719  0.16484543215239714  1.0000
  O   O21       1.0  0.39527625167758634  0.4350509622962732  0.8348829493828094  1.0000
  O   O22       1.0  0.8952818135747338  0.43518314131433294  0.6651440030813163  1.0000
  O   O23       1.0  0.8932118291813823  0.4351428494258867  0.3351741388249111  1.0000
  O   O24       1.0  0.6124235870695146  0.4590217458621666  0.839289938353666  1.0000
  O   O25       1.0  0.612520247220715  0.4549855524348486  0.1581095719720267  1.0000
  O   O26       1.0  0.11255032470650411  0.45499678654356035  0.3419009568679599  1.0000
