data_image0
_chemical_formula_structural       FeMo4H24C36N12O13
_chemical_formula_sum              "Fe1 Mo4 H24 C36 N12 O13"
_cell_length_a       8.122011523806815
_cell_length_b       8.648759597804903
_cell_length_c       13.666409065851468
_cell_angle_alpha    80.8562852993464
_cell_angle_beta     84.54470631863913
_cell_angle_gamma    82.3822066626898

_space_group_name_H-M_alt    "P 1"
_space_group_IT_number       1

loop_
  _space_group_symop_operation_xyz
  'x, y, z'

loop_
  _atom_site_type_symbol
  _atom_site_label
  _atom_site_symmetry_multiplicity
  _atom_site_fract_x
  _atom_site_fract_y
  _atom_site_fract_z
  _atom_site_occupancy
  Fe  Fe1       1.0  0.4999979831384706  7.898980172005435e-07  0.999999334135623  1.0000
  Mo  Mo1       1.0  0.1450517219872225  0.31628039191971874  0.9240368806642749  1.0000
  Mo  Mo2       1.0  0.854945284733887  0.6837200706018719  0.0759630987510533  1.0000
  Mo  Mo3       1.0  0.31036511406242784  0.6300943650731697  0.046129275699307457  1.0000
  Mo  Mo4       1.0  0.6896306587238781  0.369906076165961  0.9538707743381423  1.0000
  H   H1        1.0  0.5827333494818631  0.3918987106043447  0.20292910849118329  1.0000
  H   H2        1.0  0.41726523345077027  0.6080994145784899  0.7970710339277502  1.0000
  H   H3        1.0  0.6209329125412708  0.22706528753176514  0.3708618453464467  1.0000
  H   H4        1.0  0.3790706022032353  0.7729329354502925  0.6291387452093885  1.0000
  H   H5        1.0  0.9966922901639986  0.9217965424036197  0.22578628318453303  1.0000
  H   H6        1.0  0.0033084301435195966  0.07820394595717772  0.7742112924882889  1.0000
  H   H7        1.0  0.9367006922647931  0.09091081001809441  0.06515573692170308  1.0000
  H   H8        1.0  0.06329772738414619  0.9090884691365704  0.9348428274336058  1.0000
  H   H9        1.0  0.6649822247259323  0.7370684158357934  0.9064550757628637  1.0000
  H   H10       1.0  0.335011975776183  0.26293435007269755  0.09354408064559289  1.0000
  H   H11       1.0  0.8096832155063748  0.6922174859216597  0.7439297510010263  1.0000
  H   H12       1.0  0.1903123861415636  0.30778413462807924  0.25607018222356  1.0000
  H   H13       1.0  0.5859680038236377  0.15359552947911237  0.6204142875163967  1.0000
  H   H14       1.0  0.4140311324176834  0.8464073215592195  0.3795845864035812  1.0000
  H   H15       1.0  0.46805428271726146  0.19085591788167733  0.793466294496426  1.0000
  H   H16       1.0  0.5319453708664809  0.8091433825554407  0.20653219923676147  1.0000
  H   H17       1.0  0.12583750377363145  0.5467102336601642  0.647559586432834  1.0000
  H   H18       1.0  0.8741626795547928  0.45329386864877114  0.3524420225536744  1.0000
  H   H19       1.0  0.34666986060119603  0.3230558646616615  0.6385252013792736  1.0000
  H   H20       1.0  0.6533281892796835  0.6769458617999292  0.3614782437279729  1.0000
  H   H21       1.0  0.4163140706632759  0.4312675374368665  0.33171283935499923  1.0000
  H   H22       1.0  0.583688715706849  0.568727151669691  0.6682896335123091  1.0000
  H   H23       1.0  0.19444560536106079  0.6562557141056546  0.3277088085243776  1.0000
  H   H24       1.0  0.8055616072605146  0.3437425853931587  0.6722923007904739  1.0000
  C   C1        1.0  0.6726701870838737  0.2861976425121854  0.21131697450160658  1.0000
  C   C2        1.0  0.32732962978356267  0.7138005039531096  0.7886830972952055  1.0000
  C   C3        1.0  0.6942671529263293  0.19541735012218453  0.3042492530855014  1.0000
  C   C4        1.0  0.30573496459967936  0.8045820055492429  0.6957498300288308  1.0000
  C   C5        1.0  0.8129368069009216  0.06171485049689101  0.3107982631953732  1.0000
  C   C6        1.0  0.18706548176344728  0.9382833258639283  0.6892009367318223  1.0000
  C   C7        1.0  0.9036889761886184  0.0248770502563076  0.2235441765419637  1.0000
  C   C8        1.0  0.096315434141296  0.9751235399600233  0.7764553791406428  1.0000
  C   C9        1.0  0.8715058460651476  0.11989059980211181  0.13428223920333687  1.0000
  C   C10       1.0  0.1284950375260648  0.8801087345868553  0.8657169145331167  1.0000
  C   C11       1.0  0.6552464541291483  0.8289103765684518  0.8426352285721705  1.0000
  C   C12       1.0  0.3447480925770279  0.17109001804944776  0.15736343083663232  1.0000
  C   C13       1.0  0.7338858859252112  0.8037156214721506  0.7513285612847014  1.0000
  C   C14       1.0  0.2661109457301976  0.19628603302943762  0.24867203194314408  1.0000
  C   C15       1.0  0.7124481774749326  0.9217262196454856  0.6692629547747445  1.0000
  C   C16       1.0  0.2875497248315853  0.07827661011037891  0.330735989767355  1.0000
  C   C17       1.0  0.6094878368928816  0.06108525834033431  0.6833132140366799  1.0000
  C   C18       1.0  0.390512708348936  0.9389164220004533  0.316684975448659  1.0000
  C   C19       1.0  0.5422080542055809  0.08132169665923782  0.7786890954552348  1.0000
  C   C20       1.0  0.45779388825472705  0.91867885099218  0.2213106014716146  1.0000
  C   C21       1.0  0.8008776226342391  0.8956619773318055  0.5726665454175333  1.0000
  C   C22       1.0  0.19912554983354613  0.10433860427146163  0.4273338115125753  1.0000
  C   C23       1.0  0.8469468450327895  0.9594548213142887  0.4061237894310068  1.0000
  C   C24       1.0  0.15305650250068933  0.040544568308980906  0.5938759536865773  1.0000
  C   C25       1.0  0.006055003017735291  0.7522499328131076  0.4887532570329681  1.0000
  C   C26       1.0  0.99394552651475  0.24775179820523627  0.5112478549538935  1.0000
  C   C27       1.0  0.14280208323442165  0.6216438486400621  0.4879470108359172  1.0000
  C   C28       1.0  0.8572007430293026  0.37835910425379643  0.5120538430938382  1.0000
  C   C29       1.0  0.18820639434618866  0.5259592246179425  0.5760392335419269  1.0000
  C   C30       1.0  0.8117951979827324  0.47404370699346293  0.42396169100995  1.0000
  C   C31       1.0  0.3129524589919157  0.39983177962914607  0.5702744904345279  1.0000
  C   C32       1.0  0.6870471710278209  0.6001675968243065  0.4297283870509432  1.0000
  C   C33       1.0  0.35070715168227906  0.4592212440482299  0.4011835273194818  1.0000
  C   C34       1.0  0.6492963473528945  0.540777029611377  0.598819985737876  1.0000
  C   C35       1.0  0.22674407729391524  0.5869801489730833  0.39834343734655414  1.0000
  C   C36       1.0  0.7732615512614697  0.4130205132032644  0.6016589702154461  1.0000
  N   N1        1.0  0.7586570774565613  0.24940125981215297  0.1270767453202097  1.0000
  N   N2        1.0  0.24134414841137186  0.7505957159556047  0.8729226420419636  1.0000
  N   N3        1.0  0.5660689944334365  0.9672852688558677  0.8580530612749159  1.0000
  N   N4        1.0  0.4339292501498092  0.0327152022787942  0.1419461168929104  1.0000
  N   N5        1.0  0.7570090166975232  0.9922695877191219  0.4897081572721547  1.0000
  N   N6        1.0  0.24299292969012493  0.0077309472629068  0.5102908090293141  1.0000
  N   N7        1.0  0.970602460590264  0.8406577306084204  0.4016167898640077  1.0000
  N   N8        1.0  0.029400711877514082  0.15934285099483964  0.5983835670661009  1.0000
  N   N9        1.0  0.9250584977487433  0.775909222828915  0.5762478129307098  1.0000
  N   N10       1.0  0.07494203571106789  0.22409249552003985  0.4237525684307712  1.0000
  N   N11       1.0  0.39425129422356514  0.3647113651452898  0.4848909262157122  1.0000
  N   N12       1.0  0.605750970876798  0.6352868872318641  0.5151126574637601  1.0000
  O   O1        1.0  0.26476676891184775  0.13428508880911497  0.9591980593187301  1.0000
  O   O2        1.0  0.7352314756713909  0.86571538232554  0.040801118849095964  1.0000
  O   O3        1.0  0.9269295866350757  0.2758697643126241  0.9338737141672482  1.0000
  O   O4        1.0  0.07306848680980943  0.7241318861326395  0.06612534718771455  1.0000
  O   O5        1.0  0.20695754262440852  0.3864830574264176  0.8031110953826824  1.0000
  O   O6        1.0  0.7930417569005996  0.613518639640084  0.19688935660091997  1.0000
  O   O7        1.0  0.18480233728339357  0.45187315503795134  0.004306926071350893  1.0000
  O   O8        1.0  0.8151934315755796  0.5481272988705683  0.9956938545914724  1.0000
  O   O9        1.0  0.4999988301830525  0.5000000361106133  1.1931950887532065e-07  1.0000
  O   O10       1.0  0.4018850408799464  0.8086236531854072  0.03079463993741166  1.0000
  O   O11       1.0  0.598111969768496  0.19137679666679475  0.969204608852536  1.0000
  O   O12       1.0  0.3203263559155332  0.560255688000069  0.17019668458979004  1.0000
  O   O13       1.0  0.6796692496597458  0.43974591988028083  0.8298025180094156  1.0000
