data_image0
_chemical_formula_structural       Zn4P4H20C20N4O12
_chemical_formula_sum              "Zn4 P4 H20 C20 N4 O12"
_cell_length_a       5.234739868004735
_cell_length_b       11.221707372693928
_cell_length_c       13.765535133774199
_cell_angle_alpha    98.37941103243126
_cell_angle_beta     89.99987269778704
_cell_angle_gamma    89.99993251399839

_space_group_name_H-M_alt    "P 1"
_space_group_IT_number       1

loop_
  _space_group_symop_operation_xyz
  'x, y, z'

loop_
  _atom_site_type_symbol
  _atom_site_label
  _atom_site_symmetry_multiplicity
  _atom_site_fract_x
  _atom_site_fract_y
  _atom_site_fract_z
  _atom_site_occupancy
  Zn  Zn1       1.0  0.27762516898049944  0.4348155746005418  0.10357254956792157  1.0000
  Zn  Zn2       1.0  0.7776228825539421  0.06518442107133642  0.3964276701035132  1.0000
  Zn  Zn3       1.0  0.7223764020625225  0.5651839191476854  0.8964275684781882  1.0000
  Zn  Zn4       1.0  0.22237486786264074  0.9348159853270488  0.603571108300592  1.0000
  P   P1        1.0  0.21023782056393972  0.6696268829711727  0.9984105871287666  1.0000
  P   P2        1.0  0.7102390817332633  0.8303721294593628  0.5015879891226829  1.0000
  P   P3        1.0  0.7897618401652977  0.33037080336443125  0.0015900330222393903  1.0000
  P   P4        1.0  0.2897548480568802  0.1696291895891804  0.49840944963941763  1.0000
  H   H1        1.0  0.30726728249844376  0.7851127997004353  0.03362029613806068  1.0000
  H   H2        1.0  0.8072680296915493  0.714887471881582  0.4663786199817465  1.0000
  H   H3        1.0  0.6927323782285129  0.21488759477441022  0.9663799337208515  1.0000
  H   H4        1.0  0.19272972072909056  0.2851156605403204  0.5336175909467115  1.0000
  H   H5        1.0  0.46536253071509026  0.5801145558837106  0.2857858625820596  1.0000
  H   H6        1.0  0.9653546819539116  0.91988468400546  0.21421497192378774  1.0000
  H   H7        1.0  0.5346428609542001  0.41988673931502524  0.7142144790861095  1.0000
  H   H8        1.0  0.0346430684620245  0.08011481570556361  0.785784420396247  1.0000
  H   H9        1.0  0.340924070809379  0.62503953635607  0.4603587342344965  1.0000
  H   H10       1.0  0.8409192660180268  0.8749561896392277  0.039641768719327744  1.0000
  H   H11       1.0  0.6590813208638265  0.37495543587682073  0.5396430019337828  1.0000
  H   H12       1.0  0.159078484398556  0.1250442167591572  0.9603570096847704  1.0000
  H   H13       1.0  0.7657938472145815  0.3448142011677788  0.4012461857944842  1.0000
  H   H14       1.0  0.2657911373619726  0.15518489627984172  0.0987546587932826  1.0000
  H   H15       1.0  0.23420581351530254  0.6551843918551938  0.5987538204405849  1.0000
  H   H16       1.0  0.7342047027313896  0.844818200374185  0.9012459065031633  1.0000
  H   H17       1.0  0.9071710414838137  0.317748784035743  0.22757612956571185  1.0000
  H   H18       1.0  0.40716724838339513  0.1822502182464305  0.2724238578487927  1.0000
  H   H19       1.0  0.09283052956278938  0.6822498149479728  0.772423150940625  1.0000
  H   H20       1.0  0.5928324123414513  0.8177501702669898  0.7275770977379705  1.0000
  C   C1        1.0  0.3120960584945466  0.5297384035049575  0.31492598107208636  1.0000
  C   C2        1.0  0.8120882527424411  0.9702582438380605  0.18507466049799598  1.0000
  C   C3        1.0  0.6879036022376183  0.4702574813787733  0.6850744154550837  1.0000
  C   C4        1.0  0.187907587354502  0.029743958051454897  0.8149250672586774  1.0000
  C   C5        1.0  0.2424017343705174  0.5531968462358919  0.41312373760890597  1.0000
  C   C6        1.0  0.7423926514103698  0.9467989561955009  0.0868761312205422  1.0000
  C   C7        1.0  0.7576017469908508  0.4467990386464749  0.5868766589164878  1.0000
  C   C8        1.0  0.2576070093174039  0.053199630866039606  0.9131246007423853  1.0000
  C   C9        1.0  0.0410870312049454  0.48814290664068943  0.4479636925777939  1.0000
  C   C10       1.0  0.5410830713793402  0.011856333656133701  0.052039538116019884  1.0000
  C   C11       1.0  0.9589183604554209  0.5118547439243102  0.5520412819376403  1.0000
  C   C12       1.0  0.45892232028865726  0.988143148167872  0.9479620313840015  1.0000
  C   C13       1.0  0.920771932051224  0.4003686263622228  0.3798835142024045  1.0000
  C   C14       1.0  0.4207692377253166  0.0996294535420361  0.12011780020988987  1.0000
  C   C15       1.0  0.07922963898253241  0.599632650953602  0.6201190046510802  1.0000
  C   C16       1.0  0.5792266023724436  0.9003709409341809  0.8798824296507914  1.0000
  C   C17       1.0  0.0010703770772622  0.3826302442266538  0.2827137018003398  1.0000
  C   C18       1.0  0.5010670953261284  0.11736814781365008  0.21728655137546574  1.0000
  C   C19       1.0  0.9989331042847596  0.6173665473430816  0.7172860808091244  1.0000
  C   C20       1.0  0.49893447571461286  0.8826340540738116  0.7827131763785428  1.0000
  N   N1        1.0  0.19332254294915427  0.4461422582635849  0.25019301615844813  1.0000
  N   N2        1.0  0.6933192316310297  0.05385510149403672  0.24980622073050532  1.0000
  N   N3        1.0  0.8066771177813835  0.5538572414467566  0.7498063761606913  1.0000
  N   N4        1.0  0.30668233941410955  0.9461443982156227  0.750193171587753  1.0000
  O   O1        1.0  0.22442465767618097  0.6010426699549569  0.08645995791912497  1.0000
  O   O2        1.0  0.7244252485802392  0.8989558594326681  0.41353881160013367  1.0000
  O   O3        1.0  0.7755807340002648  0.3989568357147562  0.913538708669513  1.0000
  O   O4        1.0  0.2755572193159638  0.10104544173569252  0.5864608043508425  1.0000
  O   O5        1.0  0.9344935490664809  0.693636584765912  0.9660211937413405  1.0000
  O   O6        1.0  0.434492746097284  0.8063640806297201  0.5339759461766888  1.0000
  O   O7        1.0  0.06550611166194639  0.3063629089829973  0.033978924305657195  1.0000
  O   O8        1.0  0.5655030940040503  0.19363541908198562  0.4660234461442272  1.0000
  O   O9        1.0  0.36802631672676267  0.6152968048021775  0.9086890778175486  1.0000
  O   O10       1.0  0.8680250060077627  0.8847029895275115  0.5913101892704731  1.0000
  O   O11       1.0  0.6319752543190164  0.3847036015948434  0.0913097005847732  1.0000
  O   O12       1.0  0.1319727444065393  0.11530012501011562  0.4086881988415384  1.0000
