data_image0
_chemical_formula_structural       Li4H76C48N8O4
_chemical_formula_sum              "Li4 H76 C48 N8 O4"
_cell_length_a       7.396572338144796
_cell_length_b       9.750795172730733
_cell_length_c       16.465117216874916
_cell_angle_alpha    98.49285403157603
_cell_angle_beta     89.99996622524847
_cell_angle_gamma    89.99929856138495

_space_group_name_H-M_alt    "P 1"
_space_group_IT_number       1

loop_
  _space_group_symop_operation_xyz
  'x, y, z'

loop_
  _atom_site_type_symbol
  _atom_site_label
  _atom_site_symmetry_multiplicity
  _atom_site_fract_x
  _atom_site_fract_y
  _atom_site_fract_z
  _atom_site_occupancy
  Li  Li1       1.0  0.29417282816074675  0.2672759138667972  0.6707041614595965  1.0000
  Li  Li2       1.0  0.7941708081477615  0.2327234049911837  0.8292925104159254  1.0000
  Li  Li3       1.0  0.7058289246839352  0.7327234321264412  0.32929514402961513  1.0000
  Li  Li4       1.0  0.2058241848019904  0.7672770696574532  0.17070386830166484  1.0000
  H   H1        1.0  0.9699251780720747  0.3947523452520514  0.9158659913397431  1.0000
  H   H2        1.0  0.4699191102938018  0.10525052727735579  0.5841291803492157  1.0000
  H   H3        1.0  0.030077926740951003  0.6052479823853577  0.08413523251323345  1.0000
  H   H4        1.0  0.5300664188137034  0.894750002531282  0.4158653814460822  1.0000
  H   H5        1.0  0.8541493703064236  0.6287553642652027  0.95777310950097  1.0000
  H   H6        1.0  0.35414989943581804  0.8712429522082986  0.5422267123685032  1.0000
  H   H7        1.0  0.14584832660972322  0.371242669409078  0.042235179190456114  1.0000
  H   H8        1.0  0.6458437416193237  0.1287470813078784  0.4577710745489372  1.0000
  H   H9        1.0  0.883262800712956  0.811700044512385  0.8666175002827645  1.0000
  H   H10       1.0  0.3832553277249531  0.6883022317496668  0.6333796675794333  1.0000
  H   H11       1.0  0.11674436004824432  0.1882981177173164  0.13338654890623053  1.0000
  H   H12       1.0  0.616745073168488  0.31169407744039285  0.3666169110293824  1.0000
  H   H13       1.0  0.048464532043716715  0.7525105333900868  0.7329087207531872  1.0000
  H   H14       1.0  0.5484569543637363  0.7474929532081163  0.7670861844552237  1.0000
  H   H15       1.0  0.9515385728102291  0.24748453693477052  0.26709441848429094  1.0000
  H   H16       1.0  0.4515312786571713  0.25251277878548717  0.23290827888151716  1.0000
  H   H17       1.0  0.15884731390689677  0.517225470854477  0.6876403353107181  1.0000
  H   H18       1.0  0.6588480560456917  0.9827778286649295  0.8123600025008176  1.0000
  H   H19       1.0  0.8411517349459104  0.48277782012587517  0.3123660379954672  1.0000
  H   H20       1.0  0.34112936116884657  0.017225664506099695  0.18763970874989166  1.0000
  H   H21       1.0  0.1943459879506122  0.03454385849055799  0.7258682176249212  1.0000
  H   H22       1.0  0.6943416546917689  0.46545334406516753  0.7741270468288735  1.0000
  H   H23       1.0  0.8056571168797859  0.9654544323593799  0.27413159206895443  1.0000
  H   H24       1.0  0.30565469023696323  0.5345472224346961  0.22586630367561616  1.0000
  H   H25       1.0  0.019399192583890106  0.9810607822975471  0.7888171567579436  1.0000
  H   H26       1.0  0.5194007774965713  0.5189407808328708  0.711181816564114  1.0000
  H   H27       1.0  0.9805985043011347  0.018941563781716297  0.21118608689953794  1.0000
  H   H28       1.0  0.4806009753582004  0.48105763862434275  0.2888137536331855  1.0000
  H   H29       1.0  0.9620296583152526  0.07321050199465158  0.7066147523774406  1.0000
  H   H30       1.0  0.4620262357869792  0.42679642794943373  0.7933862843963058  1.0000
  H   H31       1.0  0.037970742524386515  0.92679180732857  0.2933897025635234  1.0000
  H   H32       1.0  0.5379755170344396  0.5732061569404294  0.20660908590682686  1.0000
  H   H33       1.0  0.34016651024896305  0.1576423884263178  0.8478836976414785  1.0000
  H   H34       1.0  0.8401629770021872  0.3423470115457476  0.6521168566018148  1.0000
  H   H35       1.0  0.6598379466167617  0.8423485715740288  0.15211782456201925  1.0000
  H   H36       1.0  0.15983607192292482  0.6576483160001415  0.34787780364325044  1.0000
  H   H37       1.0  0.21549689070538855  0.28384327228167894  0.9155234175269841  1.0000
  H   H38       1.0  0.7154873706790071  0.21615043347168952  0.5844775761238239  1.0000
  H   H39       1.0  0.7845143260476989  0.7161476509431781  0.08447931595779323  1.0000
  H   H40       1.0  0.28450897423151394  0.7838521147010197  0.41551900546718923  1.0000
  H   H41       1.0  0.16399610129426634  0.10452906155308025  0.9116807407390868  1.0000
  H   H42       1.0  0.663995859709914  0.39546522985450133  0.5883172805010162  1.0000
  H   H43       1.0  0.8360042996224524  0.8954640087403545  0.08831977305581523  1.0000
  H   H44       1.0  0.33600724513925695  0.6045311160656794  0.4116780868213966  1.0000
  H   H45       1.0  0.41028160850927975  0.33400208169405937  0.4863458513654067  1.0000
  H   H46       1.0  0.910281106958749  0.1659926662830884  0.013651741252097305  1.0000
  H   H47       1.0  0.5897160884200334  0.6659952275311556  0.5136520399668998  1.0000
  H   H48       1.0  0.08971929390078513  0.8340077715965322  0.9863458487475044  1.0000
  H   H49       1.0  0.28181417200734427  0.4753420964294436  0.5400663586473302  1.0000
  H   H50       1.0  0.7818126101083396  0.02465735930501008  0.9599297209774138  1.0000
  H   H51       1.0  0.7181889328163251  0.5246573414150221  0.4599299186287881  1.0000
  H   H52       1.0  0.21818373479349165  0.9753462072614313  0.040067567693149925  1.0000
  H   H53       1.0  0.20751716526403646  0.37506145870317914  0.37705430413003443  1.0000
  H   H54       1.0  0.7075198738605908  0.12493317840747414  0.12294269968635523  1.0000
  H   H55       1.0  0.7924832356711777  0.6249296482889548  0.6229423729358743  1.0000
  H   H56       1.0  0.2924872868949962  0.8750662043029178  0.8770553945149832  1.0000
  H   H57       1.0  0.028371579630082504  0.4241407849107118  0.4468140419467873  1.0000
  H   H58       1.0  0.5283724719712455  0.0758607538617539  0.05318366317962391  1.0000
  H   H59       1.0  0.9716288212549531  0.5758565610446241  0.5531826380991094  1.0000
  H   H60       1.0  0.4716279288616649  0.9241427024559884  0.9468172593435756  1.0000
  H   H61       1.0  0.16707467797917994  0.1356408526947419  0.3815528104000664  1.0000
  H   H62       1.0  0.6670843580884239  0.3643560987436416  0.11844928525029991  1.0000
  H   H63       1.0  0.8329189630400864  0.8643531809102072  0.618450227405461  1.0000
  H   H64       1.0  0.3329268585887065  0.6356441369971578  0.8815549668106473  1.0000
  H   H65       1.0  0.942114324535851  0.1869103181306855  0.4083724060429291  1.0000
  H   H66       1.0  0.4421224791344188  0.3130933268477989  0.09163030450670114  1.0000
  H   H67       1.0  0.057879316467158014  0.8130858257478976  0.591629623351814  1.0000
  H   H68       1.0  0.5578860335536292  0.6869110375955357  0.908374958946496  1.0000
  H   H69       1.0  0.9927258776402541  0.140997428523427  0.5458505431590055  1.0000
  H   H70       1.0  0.49272872646692195  0.3590091519299675  0.9541522772760802  1.0000
  H   H71       1.0  0.0072704672416890005  0.8590080094866152  0.454153610452913  1.0000
  H   H72       1.0  0.5072730262914436  0.6410004147437078  0.045852887723690124  1.0000
  H   H73       1.0  0.2077250046281307  0.07250734918584809  0.5106612074144936  1.0000
  H   H74       1.0  0.7077277382022091  0.4274947067840458  0.9893412117904463  1.0000
  H   H75       1.0  0.7922686363319968  0.9274939234044981  0.4893431460930488  1.0000
  H   H76       1.0  0.29227671855365145  0.5725096944218181  0.010662840380000229  1.0000
  C   C1        1.0  0.0687021203681937  0.43119805276601403  0.7953349602282886  1.0000
  C   C2        1.0  0.5687002085145066  0.06881066711508048  0.7046632716711303  1.0000
  C   C3        1.0  0.9313009843929766  0.5688084036053453  0.2046699004595142  1.0000
  C   C4        1.0  0.43129748835004733  0.9311951015762364  0.29532998037554153  1.0000
  C   C5        1.0  0.9845962594867574  0.4704812041502322  0.8738278653384486  1.0000
  C   C6        1.0  0.48458459054307934  0.029513141745134388  0.626169507171582  1.0000
  C   C7        1.0  0.015417661128445606  0.5295210867366221  0.12617719523765913  1.0000
  C   C8        1.0  0.5154090505543821  0.9704717263162054  0.373827166917991  1.0000
  C   C9        1.0  0.9196448069685064  0.6048362621243797  0.8978973640377605  1.0000
  C   C10       1.0  0.41964892273468024  0.8951790329344644  0.6021047169311587  1.0000
  C   C11       1.0  0.08035694575622902  0.39517745161040096  0.10210820671031941  1.0000
  C   C12       1.0  0.5803582379202795  0.10483280933080148  0.3978939888726389  1.0000
  C   C13       1.0  0.9373819592695372  0.7079009924174926  0.8479922656973431  1.0000
  C   C14       1.0  0.4373754945038329  0.7921070038544116  0.6520048465003259  1.0000
  C   C15       1.0  0.06262925740759331  0.29209924332331383  0.15201198636360402  1.0000
  C   C16       1.0  0.5626181464770286  0.20789245240697343  0.3479908251384388  1.0000
  C   C17       1.0  0.028489667811314207  0.6738395310384391  0.7726993866716257  1.0000
  C   C18       1.0  0.5284835848395631  0.8261766066463991  0.7272961517833708  1.0000
  C   C19       1.0  0.9715229007102553  0.3261773847980222  0.22730346016946618  1.0000
  C   C20       1.0  0.4715046481294893  0.17383525408115463  0.27270194838820333  1.0000
  C   C21       1.0  0.09324101380163803  0.5413067234965965  0.7474839578256154  1.0000
  C   C22       1.0  0.5932354679208489  0.9586786536059221  0.7525109913586335  1.0000
  C   C23       1.0  0.9067674990318721  0.45868018128090426  0.2525141304150083  1.0000
  C   C24       1.0  0.4067541171751969  0.0413144167393682  0.24748952244213035  1.0000
  C   C25       1.0  0.06223859360925132  0.06394830607731448  0.7545540656598321  1.0000
  C   C26       1.0  0.5622280138322822  0.4360500897997711  0.7454437645199194  1.0000
  C   C27       1.0  0.9377672151928567  0.9360478928575587  0.24544614680090157  1.0000
  C   C28       1.0  0.4377656271325989  0.5639514951067922  0.25455029306559146  1.0000
  C   C29       1.0  0.20574184940588222  0.1843277940168804  0.8748511259680998  1.0000
  C   C30       1.0  0.7057414872977007  0.31566711548509835  0.6251475571155752  1.0000
  C   C31       1.0  0.7942599034800113  0.8156663130353436  0.12514948926314426  1.0000
  C   C32       1.0  0.29425756160161864  0.6843312856135384  0.3748486187256575  1.0000
  C   C33       1.0  0.2737680753224653  0.36965266985607315  0.5060574195737717  1.0000
  C   C34       1.0  0.7737688215468026  0.13034888143725712  0.9939406885701063  1.0000
  C   C35       1.0  0.7262323255454747  0.6303467312582782  0.49394006898875653  1.0000
  C   C36       1.0  0.22623022730122952  0.869655685138419  0.00605791282101365  1.0000
  C   C37       1.0  0.14360931935900823  0.35335696043574666  0.433827510974311  1.0000
  C   C38       1.0  0.6436144628998124  0.14664034463447  0.06617037060846093  1.0000
  C   C39       1.0  0.8563883775778722  0.646639256909566  0.5661720958483373  1.0000
  C   C40       1.0  0.3563886419048006  0.853361019768215  0.9338309546815896  1.0000
  C   C41       1.0  0.08395994778189221  0.20081387876668091  0.427128049985548  1.0000
  C   C42       1.0  0.5839666843875194  0.299189108613838  0.07287282598819902  1.0000
  C   C43       1.0  0.9160336932132724  0.7991833386202672  0.5728728695613301  1.0000
  C   C44       1.0  0.4160418283092185  0.7008142374357645  0.9271317303854405  1.0000
  C   C45       1.0  0.11658612014960572  0.16226951696476988  0.5131140170822875  1.0000
  C   C46       1.0  0.6165916528028533  0.33773450480222067  0.9868867853896506  1.0000
  C   C47       1.0  0.8834075208116448  0.8377318291117462  0.48688791385536945  1.0000
  C   C48       1.0  0.3834155079168583  0.6622688779969437  0.013116559699781795  1.0000
  N   N1        1.0  0.12317976636705202  0.3021075008165682  0.7625328756634391  1.0000
  N   N2        1.0  0.6231716761993841  0.19789234747124598  0.7374663026376925  1.0000
  N   N3        1.0  0.8768273943605113  0.6978948084742385  0.23747157927385845  1.0000
  N   N4        1.0  0.3768246687534572  0.8021050352466191  0.2625291661254608  1.0000
  N   N5        1.0  0.06978288251116284  0.1955440289975954  0.8109245156401175  1.0000
  N   N6        1.0  0.5697785546563665  0.30445423939271876  0.6890751232886105  1.0000
  N   N7        1.0  0.9302215743119648  0.804452078086058  0.18907872503370984  1.0000
  N   N8        1.0  0.43021914227377794  0.6955431249471217  0.31092095111628043  1.0000
  O   O1        1.0  0.2011229295406949  0.2819738182506697  0.5618207903605851  1.0000
  O   O2        1.0  0.7011264001951577  0.2180293745313406  0.9381805261501486  1.0000
  O   O3        1.0  0.7988747673283572  0.718030656473772  0.4381808392436357  1.0000
  O   O4        1.0  0.29887129666548873  0.7819761369583845  0.06182120489113882  1.0000
