data_image0
_chemical_formula_structural       Zn8H64C116O26
_chemical_formula_sum              "Zn8 H64 C116 O26"
_cell_length_a       21.654330954175183
_cell_length_b       21.654341607181983
_cell_length_c       34.51204240601124
_cell_angle_alpha    89.99990837391098
_cell_angle_beta     90.00001177676485
_cell_angle_gamma    90.00046079072894

_space_group_name_H-M_alt    "P 1"
_space_group_IT_number       1

loop_
  _space_group_symop_operation_xyz
  'x, y, z'

loop_
  _atom_site_type_symbol
  _atom_site_label
  _atom_site_symmetry_multiplicity
  _atom_site_fract_x
  _atom_site_fract_y
  _atom_site_fract_z
  _atom_site_occupancy
  Zn  Zn1       1.0  0.5525207983924788  0.5525200178345315  0.03257389561793639  1.0000
  Zn  Zn2       1.0  0.447479147732196  0.5525188646341661  0.9674261245271293  1.0000
  Zn  Zn3       1.0  0.44747810964047835  0.4474792279616083  0.032573362013493985  1.0000
  Zn  Zn4       1.0  0.5525209917112052  0.44747891953919355  0.9674256043995083  1.0000
  Zn  Zn5       1.0  0.44747956663685073  0.44747959681719607  0.46742592227193547  1.0000
  Zn  Zn6       1.0  0.447479537952603  0.5525212665922082  0.5325741437752853  1.0000
  Zn  Zn7       1.0  0.552519946385587  0.5525213102835168  0.4674261661218322  1.0000
  Zn  Zn8       1.0  0.5525199965181713  0.44747901248588556  0.5325736236487372  1.0000
  H   H1        1.0  0.2567189742520455  0.43034700849818813  0.044243777494564485  1.0000
  H   H2        1.0  0.14153693378390392  0.43006299925525576  0.04437734681059879  1.0000
  H   H3        1.0  0.2567192226850353  0.5696518589639298  0.9557559743245815  1.0000
  H   H4        1.0  0.14153764625852722  0.5699358654852135  0.9556232594921635  1.0000
  H   H5        1.0  0.057164864235794303  0.500097822074501  0.9376113153837974  1.0000
  H   H6        1.0  0.057163795754810606  0.49990174951993527  0.06238899033937169  1.0000
  H   H7        1.0  0.7432785522248653  0.5696535929193586  0.04424431840129728  1.0000
  H   H8        1.0  0.8584615163321914  0.5699357546216746  0.044377032950059486  1.0000
  H   H9        1.0  0.7432804511220682  0.4303478021872209  0.9557560753516223  1.0000
  H   H10       1.0  0.8584629511018351  0.4300624106066238  0.9556219268131084  1.0000
  H   H11       1.0  0.9428337366926982  0.5000978819993093  0.06238904705815428  1.0000
  H   H12       1.0  0.9428352654002911  0.4999023471752793  0.9376110825449328  1.0000
  H   H13       1.0  0.5700845806939016  0.570094703198791  0.15162740414631057  1.0000
  H   H14       1.0  0.6112100167912048  0.6112181817631422  0.21418294213454905  1.0000
  H   H15       1.0  0.4299143665398689  0.4299047006386658  0.15162746541157895  1.0000
  H   H16       1.0  0.38878987464201487  0.38878106247064875  0.21418303934218835  1.0000
  H   H17       1.0  0.4299042393398267  0.42991460923079944  0.3483724137379553  1.0000
  H   H18       1.0  0.3887811122457735  0.3887902070730504  0.2858171655042696  1.0000
  H   H19       1.0  0.570094772678651  0.5700856780248387  0.3483726422374146  1.0000
  H   H20       1.0  0.6112188027788436  0.6112102397933085  0.28581706830631487  1.0000
  H   H21       1.0  0.4299141213767968  0.5700955597039438  0.8483731778901243  1.0000
  H   H22       1.0  0.3887885542073307  0.6112188671338642  0.7858173089292887  1.0000
  H   H23       1.0  0.5700850552725854  0.42990437542795945  0.8483726776324327  1.0000
  H   H24       1.0  0.6112096782407052  0.3887807658009167  0.7858171449207274  1.0000
  H   H25       1.0  0.5700951825486771  0.4299134006839793  0.6516271497887016  1.0000
  H   H26       1.0  0.6112189025069839  0.38878870784353825  0.7141827289961851  1.0000
  H   H27       1.0  0.4299043911135812  0.5700847274300146  0.6516279398090103  1.0000
  H   H28       1.0  0.38878069175375174  0.6112097224646077  0.7141831827661418  1.0000
  H   H29       1.0  0.42946339605807543  0.2567307881850098  0.04369710991529269  1.0000
  H   H30       1.0  0.4292611256912978  0.14154280104238376  0.043877974083521586  1.0000
  H   H31       1.0  0.5705341712207713  0.2567292676113411  0.9563037862121812  1.0000
  H   H32       1.0  0.5707387478116034  0.1415408207659752  0.9561221682373922  1.0000
  H   H33       1.0  0.5994375245393542  0.057166576345544194  0.9999396712725993  1.0000
  H   H34       1.0  0.4005612085859767  0.05716659040726311  6.084537288589998e-05  1.0000
  H   H35       1.0  0.4294641173606736  0.7432699303354512  0.956303823082315  1.0000
  H   H36       1.0  0.4292609261123204  0.858457915848767  0.9561220896262835  1.0000
  H   H37       1.0  0.5705355156409625  0.743269352833103  0.043696585378462785  1.0000
  H   H38       1.0  0.5707387096700884  0.8584573395177556  0.043877623871779285  1.0000
  H   H39       1.0  0.40056216381717047  0.9428334338749804  0.9999392146550572  1.0000
  H   H40       1.0  0.5994381505471368  0.9428336619475958  6.0993779513299975e-05  1.0000
  H   H41       1.0  0.5696540046742842  0.7432785214387464  0.45575536273489775  1.0000
  H   H42       1.0  0.569936166669855  0.858461890829332  0.4556228874808068  1.0000
  H   H43       1.0  0.43034839921713103  0.7432810809936826  0.5442435969462165  1.0000
  H   H44       1.0  0.43006254554897083  0.858463062356286  0.5443779850280632  1.0000
  H   H45       1.0  0.49990203466447997  0.9428348533297493  0.5623884721507294  1.0000
  H   H46       1.0  0.5000978179038286  0.9428336278959151  0.4376105772673851  1.0000
  H   H47       1.0  0.43034781349773243  0.2567187210381121  0.4557561771495882  1.0000
  H   H48       1.0  0.43006334245883  0.14153719918257932  0.4556223685387905  1.0000
  H   H49       1.0  0.5696525245001853  0.2567191683145964  0.5442441394813071  1.0000
  H   H50       1.0  0.5699360692073085  0.1415376484026893  0.5443771942786241  1.0000
  H   H51       1.0  0.4999016852887694  0.05716412266917809  0.4376107313615874  1.0000
  H   H52       1.0  0.5000984332238119  0.0571648878802691  0.5623886262703406  1.0000
  H   H53       1.0  0.7432698493814486  0.5705351074195377  0.45630309537654046  1.0000
  H   H54       1.0  0.8584583547362146  0.5707383015463137  0.45612229621045214  1.0000
  H   H55       1.0  0.7432692964965072  0.4294639786028825  0.5436961393605342  1.0000
  H   H56       1.0  0.8584578002768524  0.4292607872490207  0.5438781123213869  1.0000
  H   H57       1.0  0.9428334084960639  0.40056208775384766  0.500060962961463  1.0000
  H   H58       1.0  0.9428328227867625  0.5994376796084424  0.4999391666416739  1.0000
  H   H59       1.0  0.2567297798294419  0.5705348866913978  0.5436966169572768  1.0000
  H   H60       1.0  0.14154127611453055  0.5707394629848181  0.5438782851808097  1.0000
  H   H61       1.0  0.25673058357406126  0.42946398085985754  0.45630313486329016  1.0000
  H   H62       1.0  0.14154253996485983  0.4292617107985707  0.4561223211213913  1.0000
  H   H63       1.0  0.057165653466427116  0.5994378124765233  0.5000608064762913  1.0000
  H   H64       1.0  0.05716623913380661  0.40056175913127845  0.4999392094931564  1.0000
  C   C1        1.0  0.4999987367972595  0.6674995619693149  0.9999994077987322  1.0000
  C   C2        1.0  0.33249300351266  0.49999945268834967  6.050493790000004e-08  1.0000
  C   C3        1.0  0.49999715686125523  0.4999981456012107  0.10459863303825044  1.0000
  C   C4        1.0  0.5000038549192212  0.3324993051558777  0.9999963883940023  1.0000
  C   C5        1.0  0.6675063555680438  0.49999294920838366  0.9999951561829614  1.0000
  C   C6        1.0  0.5000046758598418  0.4999943659766757  0.8954017295057353  1.0000
  C   C7        1.0  0.3325004746708445  0.5000043564676204  0.5000014744152208  1.0000
  C   C8        1.0  0.4999928157252712  0.6675067746953403  0.5000048782620536  1.0000
  C   C9        1.0  0.4999948957228285  0.4999963892036232  0.39540176436149455  1.0000
  C   C10       1.0  0.6675004344812905  0.49999646752441856  0.5000012061559997  1.0000
  C   C11       1.0  0.4999974719932825  0.3324935874520918  0.49999838181658146  1.0000
  C   C12       1.0  0.499995391991483  0.5000030493455654  0.60459830842435  1.0000
  C   C13       1.0  0.26363379917369667  0.4999996375978241  0.9999997663334876  1.0000
  C   C14       1.0  0.23093487574384144  0.4609606514828214  0.025124347273162987  1.0000
  C   C15       1.0  0.16672324165634933  0.4612365502463547  0.025221990090813093  1.0000
  C   C16       1.0  0.23093442246219817  0.5390375468116133  0.9748762704998907  1.0000
  C   C17       1.0  0.16672417152756225  0.538761593448058  0.9747783296898757  1.0000
  C   C18       1.0  0.13353511332521611  0.49999911445290474  3.374955852999998e-07  1.0000
  C   C19       1.0  0.0653995517546448  0.499999302272613  0.9999997536166273  1.0000
  C   C20       1.0  0.03212045717396711  0.500363683841222  0.9650408696482766  1.0000
  C   C21       1.0  0.0321193775206794  0.49963522453746384  0.0349600123698153  1.0000
  C   C22       1.0  0.7363650981475658  0.5000029239139961  2.1146897352999996e-06  1.0000
  C   C23       1.0  0.769064953425847  0.5390353807179977  0.02512231438969079  1.0000
  C   C24       1.0  0.8332738167562327  0.5387640997020497  0.02522286325925899  1.0000
  C   C25       1.0  0.7690647958217556  0.4609579093465258  0.9748734466127185  1.0000
  C   C26       1.0  0.8332764321492548  0.4612389427741873  0.9747787010552782  1.0000
  C   C27       1.0  0.8664637839694793  0.4999969818471611  0.9999980664836836  1.0000
  C   C28       1.0  0.9345988837500914  0.49999956483031843  3.8888482119999993e-07  1.0000
  C   C29       1.0  0.9678786076932514  0.5003635533660925  0.034959202773393386  1.0000
  C   C30       1.0  0.9678796814895494  0.49963549182221095  0.9650397710278608  1.0000
  C   C31       1.0  0.5396780725892896  0.5396821830084447  0.16805038056791227  1.0000
  C   C32       1.0  0.5404465198626626  0.54044918600664  0.20866489917407444  1.0000
  C   C33       1.0  0.5805070309475583  0.5805101081220344  0.23022836931141194  1.0000
  C   C34       1.0  0.4603204182486139  0.46031671712325556  0.16805070500559785  1.0000
  C   C35       1.0  0.4595529079560308  0.4595509959066959  0.20866493452743373  1.0000
  C   C36       1.0  0.41949194216562097  0.41948909517118693  0.23022670115548738  1.0000
  C   C37       1.0  0.4603158272318026  0.4603202024242209  0.3319494373201549  1.0000
  C   C38       1.0  0.4595510743676386  0.45955273763972576  0.2913349187144546  1.0000
  C   C39       1.0  0.41948871607564103  0.4194913537135321  0.2697731871008314  1.0000
  C   C40       1.0  0.5396813321681934  0.5396787413232643  0.33194940264037587  1.0000
  C   C41       1.0  0.5404493042733025  0.5404472333486154  0.2913351731171757  1.0000
  C   C42       1.0  0.5805098082545683  0.5805072868802269  0.26977137821249636  1.0000
  C   C43       1.0  0.49999947300623415  0.4999999375585418  0.1479124996123815  1.0000
  C   C44       1.0  0.49999948642285835  0.4999998335906995  0.22940955988235592  1.0000
  C   C45       1.0  0.4999999684259891  0.5000010624922028  0.3520878977845995  1.0000
  C   C46       1.0  0.49999949320045545  0.4999993192543002  0.27059025800765096  1.0000
  C   C47       1.0  0.4603217702906549  0.5396814787539556  0.8319496524444998  1.0000
  C   C48       1.0  0.45955194378584713  0.5404495027940895  0.791335712576817  1.0000
  C   C49       1.0  0.41949175488051094  0.5805092341504334  0.7697713330245646  1.0000
  C   C50       1.0  0.5396792481456529  0.46031572748191957  0.8319494075562799  1.0000
  C   C51       1.0  0.540445828679566  0.4595505778605329  0.7913351788015955  1.0000
  C   C52       1.0  0.5805073958778452  0.4194881307224564  0.7697714240510434  1.0000
  C   C53       1.0  0.5396815301908334  0.46032101639364237  0.6680506752371825  1.0000
  C   C54       1.0  0.5404495094844891  0.45955160694298053  0.7086643253515061  1.0000
  C   C55       1.0  0.580509236586579  0.41949141378361793  0.7302287049039575  1.0000
  C   C56       1.0  0.4603162016807402  0.5396789170144415  0.6680509201288272  1.0000
  C   C57       1.0  0.45955054475702894  0.5404459138441667  0.7086651488826516  1.0000
  C   C58       1.0  0.4194885157518372  0.5805069755765544  0.7302291933877993  1.0000
  C   C59       1.0  0.49999866533536164  0.5000004246241545  0.8520878629274404  1.0000
  C   C60       1.0  0.5000000373153669  0.4999986813936844  0.7705902231506128  1.0000
  C   C61       1.0  0.5000000171173867  0.49999837609598063  0.6479121750018634  1.0000
  C   C62       1.0  0.49999910693880895  0.500000119327943  0.729410104532654  1.0000
  C   C63       1.0  0.4999961892325118  0.2636475234722155  2.217977801399999e-06  1.0000
  C   C64       1.0  0.4599426423510096  0.23094811488053316  0.024484700554481292  1.0000
  C   C65       1.0  0.45979599308462593  0.1667378962779793  0.024322180768521696  1.0000
  C   C66       1.0  0.5400602591982492  0.23094860919746907  0.9755121648596867  1.0000
  C   C67       1.0  0.5401990032341146  0.16673654411575708  0.9756805440836869  1.0000
  C   C68       1.0  0.500002593093221  0.13354659265299057  0.9999988061321968  1.0000
  C   C69       1.0  0.4999981628530606  0.06540044315446639  8.685614573999996e-07  1.0000
  C   C70       1.0  0.5557223812059391  0.0321210768409728  0.9997765495560598  1.0000
  C   C71       1.0  0.444278921300537  0.0321205184622357  0.00022486145519449993  1.0000
  C   C72       1.0  0.500000399069073  0.7363518054203765  1.1118165516999996e-06  1.0000
  C   C73       1.0  0.45993988291336063  0.7690505397460751  0.9755133388151972  1.0000
  C   C74       1.0  0.45979929172715117  0.8332626043926863  0.9756802048907852  1.0000
  C   C75       1.0  0.5400585720238952  0.7690506897607177  0.024485884789072494  1.0000
  C   C76       1.0  0.5402024504354942  0.8332627559744593  0.02432098263039249  1.0000
  C   C77       1.0  0.49999861322324796  0.8664531980656136  0.9999995978453737  1.0000
  C   C78       1.0  0.5000007344588299  0.9345998093523064  4.329550548999998e-07  1.0000
  C   C79       1.0  0.4442768452973526  0.9678793955950696  0.99977607344352  1.0000
  C   C80       1.0  0.5557208996860086  0.9678792716756207  0.00022439964100579994  1.0000
  C   C81       1.0  0.5000041758506129  0.7363654834134221  0.4999973101514214  1.0000
  C   C82       1.0  0.539036217968132  0.7690653505111341  0.47487794836571595  1.0000
  C   C83       1.0  0.5387653987327499  0.8332737205663745  0.47477708180132777  1.0000
  C   C84       1.0  0.46095900447918586  0.7690654342496615  0.5251267805482484  1.0000
  C   C85       1.0  0.46124003794071916  0.8332765770821453  0.5252209184143337  1.0000
  C   C86       1.0  0.4999973101794738  0.8664641052231584  0.5000021707678142  1.0000
  C   C87       1.0  0.5000003549707301  0.9345991714898287  0.49999894932829364  1.0000
  C   C88       1.0  0.4996365950614108  0.9678792875794289  0.5349600625938463  1.0000
  C   C89       1.0  0.5003634589270121  0.9678789178993906  0.46504041049105627  1.0000
  C   C90       1.0  0.5000013513090309  0.2636339551996301  0.5000007343578756  1.0000
  C   C91       1.0  0.4609609884967656  0.23093461396854303  0.4748750257525528  1.0000
  C   C92       1.0  0.4612382729078421  0.16672347338445798  0.4747782801368955  1.0000
  C   C93       1.0  0.5390377567270548  0.23093394021997676  0.52512357819905  1.0000
  C   C94       1.0  0.5387631885240012  0.1667246443726711  0.5252218369435295  1.0000
  C   C95       1.0  0.4999994427525393  0.13353487154939359  0.49999906103440833  1.0000
  C   C96       1.0  0.5000000923720195  0.0653998053001601  0.5000002541966353  1.0000
  C   C97       1.0  0.4996355914972598  0.0321192244806028  0.4650394306385335  1.0000
  C   C98       1.0  0.5003647873985387  0.0321205236179694  0.5349590828342626  1.0000
  C   C99       1.0  0.7363522500142993  0.5000004387997095  0.49999831303163916  1.0000
  C   C100      1.0  0.7690516394437598  0.540057233848863  0.4755140877723674  1.0000
  C   C101      1.0  0.8332623516615102  0.5402015737996207  0.4756786720528152  1.0000
  C   C102      1.0  0.7690504017347239  0.4599392887053141  0.5244871785513536  1.0000
  C   C103      1.0  0.8332624981581491  0.4597991595720287  0.5243202844758625  1.0000
  C   C104      1.0  0.8664527830576533  0.4999981911414223  0.5000006394103664  1.0000
  C   C105      1.0  0.9345994278742398  0.5000012359758587  0.5000000642726901  1.0000
  C   C106      1.0  0.9678789205587821  0.4442772093456285  0.5002237843699431  1.0000
  C   C107      1.0  0.9678784450157779  0.5557204504347482  0.4997757689398127  1.0000
  C   C108      1.0  0.2636477355284513  0.4999989997932772  0.49999799295370895  1.0000
  C   C109      1.0  0.23094866827212712  0.5400610110034734  0.5244873936315669  1.0000
  C   C110      1.0  0.16673749539455682  0.5402006787658921  0.5243199116694368  1.0000
  C   C111      1.0  0.2309487998407533  0.45994272901700134  0.4755140934023102  1.0000
  C   C112      1.0  0.1667380876752844  0.4597979268455391  0.47567837983530115  1.0000
  C   C113      1.0  0.13354627888875834  0.5000026328446695  0.5000008821450094  1.0000
  C   C114      1.0  0.06540009586955621  0.4999986644119971  0.4999997187595893  1.0000
  C   C115      1.0  0.03212060325876111  0.5557226904707449  0.5002239582417187  1.0000
  C   C116      1.0  0.03212061685279371  0.44427945052346013  0.49977547500517955  1.0000
  O   O1        1.0  0.4999994486501367  0.4999987408517654  0.9999992019892897  1.0000
  O   O2        1.0  0.5373089521565717  0.6407226040367888  0.023277385273615888  1.0000
  O   O3        1.0  0.35926994350864316  0.5371950121831189  0.9766530507692789  1.0000
  O   O4        1.0  0.4627938232520066  0.46280178138817263  0.08786478019274567  1.0000
  O   O5        1.0  0.4626917033314514  0.6407229348598945  0.9767234157256152  1.0000
  O   O6        1.0  0.5372032557855421  0.5371987087336548  0.08786300915798508  1.0000
  O   O7        1.0  0.359270411027687  0.4628042182202562  0.023347293715161792  1.0000
  O   O8        1.0  0.46268718201656617  0.35927897447271556  0.023277521534353692  1.0000
  O   O9        1.0  0.6407315843920502  0.4628064428608169  0.9766542651216593  1.0000
  O   O10       1.0  0.5373052065598216  0.35927390197574033  0.9767235615627281  1.0000
  O   O11       1.0  0.6407261849717757  0.5371978219133523  0.02334785399585829  1.0000
  O   O12       1.0  0.4627937963162622  0.5371987433777292  0.9121381853588344  1.0000
  O   O13       1.0  0.5372044777284303  0.4628019526636535  0.9121344606158527  1.0000
  O   O14       1.0  0.500001378176762  0.4999999502002409  0.50000003639321  1.0000
  O   O15       1.0  0.35927787403262823  0.4626904985850261  0.4767220844016433  1.0000
  O   O16       1.0  0.4628075408776908  0.6407327497343899  0.5233457275597855  1.0000
  O   O17       1.0  0.5371982293881744  0.537206607448411  0.41213793523152004  1.0000
  O   O18       1.0  0.35927448734101125  0.5373091936718595  0.5232750727900777  1.0000
  O   O19       1.0  0.4628017272388122  0.4627962879269204  0.4121353599648358  1.0000
  O   O20       1.0  0.5371977326773064  0.64072618141995  0.4766507271240455  1.0000
  O   O21       1.0  0.6407216420469484  0.537309461194276  0.47672264456863894  1.0000
  O   O22       1.0  0.537196146786009  0.3592721709147568  0.5233476119118592  1.0000
  O   O23       1.0  0.6407245822649514  0.462690647327868  0.523275707749107  1.0000
  O   O24       1.0  0.4628059395712114  0.35926869874224815  0.4766537609458012  1.0000
  O   O25       1.0  0.4628025171768898  0.5372037751087363  0.5878644182947922  1.0000
  O   O26       1.0  0.5371984208856377  0.4627922066960153  0.5878624320818557  1.0000
