data_image0
_chemical_formula_structural       Zr6H30C46N2O32
_chemical_formula_sum              "Zr6 H30 C46 N2 O32"
_cell_length_a       7.846609342824396
_cell_length_b       18.250515188941073
_cell_length_c       23.80334180352837
_cell_angle_alpha    90.72901376524551
_cell_angle_beta     101.53242036455518
_cell_angle_gamma    89.73494767291548

_space_group_name_H-M_alt    "P 1"
_space_group_IT_number       1

loop_
  _space_group_symop_operation_xyz
  'x, y, z'

loop_
  _atom_site_type_symbol
  _atom_site_label
  _atom_site_symmetry_multiplicity
  _atom_site_fract_x
  _atom_site_fract_y
  _atom_site_fract_z
  _atom_site_occupancy
  Zr  Zr1       1.0  0.057551749266274016  0.8990662576943076  0.07238878299254028  1.0000
  Zr  Zr2       1.0  0.9697548128706831  0.10862006691356642  0.9321863894346477  1.0000
  Zr  Zr3       1.0  0.8214379372441912  0.06572216782326018  0.05974883257725591  1.0000
  Zr  Zr4       1.0  0.19562148061114476  0.9403467137325517  0.9435560246836943  1.0000
  Zr  Zr5       1.0  0.7463026806756973  0.9387720709053156  0.9414543632316068  1.0000
  Zr  Zr6       1.0  0.27703998980938854  0.07181833570934508  0.061896758293151805  1.0000
  H   H1        1.0  0.9824404207953708  0.8221579168927561  0.9530867712545258  1.0000
  H   H2        1.0  0.6250212634569015  0.09080224325990828  0.9475729115953727  1.0000
  H   H3        1.0  0.33444182582272236  0.08485476217994396  0.9456552567143816  1.0000
  H   H4        1.0  0.11053703632750711  0.03189329576715489  0.1490420487252564  1.0000
  H   H5        1.0  0.5310807197429172  0.8131909284419264  0.8658156832202478  1.0000
  H   H6        1.0  0.7230607680797262  0.16809467259407998  0.14117784705509706  1.0000
  H   H7        1.0  0.19871937469903148  0.18745753886854288  0.12075066530432818  1.0000
  H   H8        1.0  0.8009870268903828  0.8367224476287942  0.8608794185686719  1.0000
  H   H9        1.0  0.2661926267174266  0.8237056801556334  0.869245783342599  1.0000
  H   H10       1.0  0.49657913944469817  0.895265219191401  0.9829064635809034  1.0000
  H   H11       1.0  0.46790451921686593  0.19138867272744864  0.1397799769882582  1.0000
  H   H12       1.0  0.5935622041803017  0.9661221778165439  0.8333712964928565  1.0000
  H   H13       1.0  0.807232151377349  0.11725964509619757  0.8259530705960643  1.0000
  H   H14       1.0  0.2291394138762471  0.8905884144622505  0.18014662941303067  1.0000
  H   H15       1.0  0.5444905451054041  0.00563433455536  0.1413515878061915  1.0000
  H   H16       1.0  0.14433096130460402  0.8873442949702761  0.8357396137139117  1.0000
  H   H17       1.0  0.6606081078076331  0.048907220102940074  0.8585007680149275  1.0000
  H   H18       1.0  0.5204537493703469  0.0124139282295914  0.018623600237781097  1.0000
  H   H19       1.0  0.4608926376154728  0.7711229164543809  0.91220862529358  1.0000
  H   H20       1.0  0.5626246166176545  0.23375181984805235  0.0986230510149682  1.0000
  H   H21       1.0  0.8130103469680281  0.09295636610380598  0.1708951685995856  1.0000
  H   H22       1.0  0.36324725671968144  0.9621434891603611  0.1438574525766541  1.0000
  H   H23       1.0  0.1928160652585973  0.5020951331056692  0.9913525399436836  1.0000
  H   H24       1.0  0.8409004994885907  0.5037670469823466  0.017491884141314494  1.0000
  H   H25       1.0  0.34552604043063445  0.7882776190745486  0.2140461375482445  1.0000
  H   H26       1.0  0.10987019307766843  0.8164892091140812  0.2813974951484681  1.0000
  H   H27       1.0  0.6281979652477078  0.1916289361506216  0.7806848370248359  1.0000
  H   H28       1.0  0.8642532142775824  0.16936017650663618  0.7121503790073618  1.0000
  H   H29       1.0  0.3067829644537882  0.9848791017761654  0.5031725769067421  1.0000
  H   H30       1.0  0.6717185871901564  0.0030406795152444037  0.4884934457750703  1.0000
  C   C1        1.0  0.7648152262413036  0.7814472774291161  0.018762716879663813  1.0000
  C   C2        1.0  0.2699967316444259  0.7800664834195741  0.012678981013294798  1.0000
  C   C3        1.0  0.816453754219772  0.9291385702819778  0.16601067591231097  1.0000
  C   C4        1.0  0.7759943657593809  0.22703629931203295  0.0006616110467944973  1.0000
  C   C5        1.0  0.2560617136995377  0.2260671967786934  0.9857045239577998  1.0000
  C   C6        1.0  0.17829725524153167  0.054704235693264984  0.8337976821731132  1.0000
  C   C7        1.0  0.4227954660750442  0.5693770931049326  0.0025046770679821944  1.0000
  C   C8        1.0  0.6089324620039565  0.569875338421987  0.009324501773100702  1.0000
  C   C9        1.0  0.6996582387767419  0.5034457883178192  0.011652785072946908  1.0000
  C   C10       1.0  0.6109115366562251  0.4366154411198194  0.006601240525490901  1.0000
  C   C11       1.0  0.42472587954043933  0.4361785165977493  0.9987039773837553  1.0000
  C   C12       1.0  0.33400043546335934  0.5025812598474173  0.9970084957149012  1.0000
  C   C13       1.0  0.5111296045913676  0.8645624954294389  0.2726348623896442  1.0000
  C   C14       1.0  0.3635632258448994  0.822235082424079  0.2524778660455027  1.0000
  C   C15       1.0  0.24150225786777216  0.8373732547609476  0.2870865135979841  1.0000
  C   C16       1.0  0.3146311681354916  0.886902710354306  0.3303442697864014  1.0000
  C   C17       1.0  0.4685421578634817  0.11429600787388947  0.7216437137327175  1.0000
  C   C18       1.0  0.6126897406801391  0.15845195359690217  0.7418956956402524  1.0000
  C   C19       1.0  0.7345921444204464  0.1464119322614224  0.7066837607556237  1.0000
  C   C20       1.0  0.6642744453711131  0.09714465702015929  0.6628504781210437  1.0000
  C   C21       1.0  0.05810756975146351  0.9676045483109728  0.44793769933991706  1.0000
  C   C22       1.0  0.8735112708983624  0.9724815517173866  0.4438327015091872  1.0000
  C   C23       1.0  0.8118317445672789  0.9987832568931337  0.4917694672035964  1.0000
  C   C24       1.0  0.9204181495626288  0.0201457938324694  0.5437542463763805  1.0000
  C   C25       1.0  0.10494994010562662  0.014838075927457301  0.5479449349166003  1.0000
  C   C26       1.0  0.16666751225049137  0.9890907931831875  0.4998787048594693  1.0000
  C   C27       1.0  0.2335476060493988  0.03493938353872039  0.5963176329187263  1.0000
  C   C28       1.0  0.36349239080591655  0.0511619023663243  0.631681274482446  1.0000
  C   C29       1.0  0.8372258514591594  0.045975977064180995  0.5876277782949799  1.0000
  C   C30       1.0  0.7443993714331185  0.06822727275677208  0.6200780758709428  1.0000
  C   C31       1.0  0.7453330985318516  0.950682528932219  0.39584016731721045  1.0000
  C   C32       1.0  0.6165894677852465  0.9319018973107305  0.36091466339735934  1.0000
  C   C33       1.0  0.23489533213057  0.9180032021046285  0.3723927364062902  1.0000
  C   C34       1.0  0.14146993938445723  0.9412957479302122  0.40428762873749235  1.0000
  C   C35       1.0  0.34075641541726054  0.6382949369816657  0.003337870222061697  1.0000
  C   C36       1.0  0.3024806670453088  0.7027905690577184  0.006478094308910396  1.0000
  C   C37       1.0  0.7410568478477444  0.30414794313831073  0.007036808611886192  1.0000
  C   C38       1.0  0.6949178729653555  0.3679101379495577  0.0078112673990205035  1.0000
  C   C39       1.0  0.29719734005323784  0.3031699704273763  0.9888628021833625  1.0000
  C   C40       1.0  0.3419163690522496  0.3671914473678867  0.9927196723570757  1.0000
  C   C41       1.0  0.6905611828188897  0.6390990273690701  0.013935264098194008  1.0000
  C   C42       1.0  0.7290801134423932  0.7038472930873353  0.01612370229372571  1.0000
  C   C43       1.0  0.24907477201470848  0.07415287166984538  0.7844483484603231  1.0000
  C   C44       1.0  0.3391493181604092  0.09380297713432378  0.7510504942830281  1.0000
  C   C45       1.0  0.7389842738357688  0.9016686574066313  0.21187465749077458  1.0000
  C   C46       1.0  0.6435415711747794  0.8826351672135855  0.243730990100758  1.0000
  N   N1        1.0  0.48532739543617975  0.9022089542339768  0.3224601390527724  1.0000
  N   N2        1.0  0.4953663950628454  0.07888693006190547  0.6710227220087503  1.0000
  O   O1        1.0  0.26126919566547013  0.8957257382044328  0.14300808581099028  1.0000
  O   O2        1.0  0.8806627580046752  0.8038298689370363  0.06046504743963511  1.0000
  O   O3        1.0  0.9322968232760761  0.8904390942660638  0.1496436093858264  1.0000
  O   O4        1.0  0.3056015811248543  0.8221698680552051  0.9741593589885368  1.0000
  O   O5        1.0  0.7595389172177819  0.9905101819842268  0.14437397450042508  1.0000
  O   O6        1.0  0.20753951120619266  0.7995553874432414  0.05558115579913188  1.0000
  O   O7        1.0  0.678920828045179  0.8205426828455485  0.9788230078438787  1.0000
  O   O8        1.0  0.8374489694629903  0.9589168559176429  0.0311916647821491  1.0000
  O   O9        1.0  0.9880535714571582  0.8722572619468633  0.9674626673994382  1.0000
  O   O10       1.0  0.07112060090473452  0.021405932072390492  0.10839341650998338  1.0000
  O   O11       1.0  0.21583614789518898  0.9590216664848652  0.030626405779408086  1.0000
  O   O12       1.0  0.48247733358778094  0.9407112227955563  0.9604367447282128  1.0000
  O   O13       1.0  0.4304177628992961  0.7816783594275875  0.8711694964737403  1.0000
  O   O14       1.0  0.9599497309329268  0.9944626599692153  0.9222401407638968  1.0000
  O   O15       1.0  0.7287013283794581  0.062843838641804  0.9631864288172165  1.0000
  O   O16       1.0  0.023708983489847003  0.10168535578743838  0.021978664197313  1.0000
  O   O17       1.0  0.24707821510641287  0.0597071423213649  0.9617323551698719  1.0000
  O   O18       1.0  0.5405269423672368  0.05428779529417227  0.046189044498120814  1.0000
  O   O19       1.0  0.7501474716757244  0.18516443590688428  0.04062918966204879  1.0000
  O   O20       1.0  0.824564270123453  0.20798643333898778  0.9549706158555722  1.0000
  O   O21       1.0  0.4181582728692491  0.013349012081150097  0.1393431007261654  1.0000
  O   O22       1.0  0.14592596858478402  0.20389474655867443  0.9419852479488142  1.0000
  O   O23       1.0  0.8230181540579552  0.1280990175372096  0.14112310236028952  1.0000
  O   O24       1.0  0.2801356312332289  0.14672601894257298  0.1283403851829874  1.0000
  O   O25       1.0  0.5797889528304054  0.2185700345583256  0.13863216205285767  1.0000
  O   O26       1.0  0.3345940812152153  0.18692213124681697  0.026680331744508106  1.0000
  O   O27       1.0  0.7625651084609688  0.11556063296804805  0.8612175911981197  1.0000
  O   O28       1.0  0.15450909561053552  0.8562904398700935  0.8694463089106036  1.0000
  O   O29       1.0  0.0923976308306749  0.10474040091333589  0.8537419695207403  1.0000
  O   O30       1.0  0.21326100644555626  0.9912063971159953  0.8550231306946401  1.0000
  O   O31       1.0  0.7086858877351008  0.8673007495704038  0.870235918870584  1.0000
  O   O32       1.0  0.5960922450808185  0.0002056781486743009  0.8654146193655023  1.0000
