data_image0
_chemical_formula_structural       Cu2H16C24N12O14
_chemical_formula_sum              "Cu2 H16 C24 N12 O14"
_cell_length_a       8.35779635873356
_cell_length_b       8.357698440335284
_cell_length_c       12.250938926953408
_cell_angle_alpha    72.6669046116983
_cell_angle_beta     72.66530426579004
_cell_angle_gamma    66.55809471980126

_space_group_name_H-M_alt    "P 1"
_space_group_IT_number       1

loop_
  _space_group_symop_operation_xyz
  'x, y, z'

loop_
  _atom_site_type_symbol
  _atom_site_label
  _atom_site_symmetry_multiplicity
  _atom_site_fract_x
  _atom_site_fract_y
  _atom_site_fract_z
  _atom_site_occupancy
  Cu  Cu1       1.0  0.9999978747846896  7.640188001993544e-07  1.3960713686901677e-06  1.0000
  Cu  Cu2       1.0  1.7508085220921487e-06  0.9999989918224942  0.5000007662270249  1.0000
  H   H1        1.0  0.615346355454626  0.6078800039248906  0.8311394824002036  1.0000
  H   H2        1.0  0.6079246748868453  0.6153152031374348  0.33113831736016414  1.0000
  H   H3        1.0  0.38465097863227965  0.39212280056644755  0.16886017590747568  1.0000
  H   H4        1.0  0.39208241384702797  0.3846808898259015  0.6688590838740325  1.0000
  H   H5        1.0  0.7628947568606104  0.6146530656784109  0.9811057173840255  1.0000
  H   H6        1.0  0.6146674557799653  0.7628923094716669  0.4811095929573809  1.0000
  H   H7        1.0  0.23710427531296566  0.38534839629238604  0.018893051676215574  1.0000
  H   H8        1.0  0.3853362228973224  0.23710645449999398  0.5188855111531508  1.0000
  H   H9        1.0  0.5759523371682674  0.7855350682786125  0.13807955823288848  1.0000
  H   H10       1.0  0.7855601861447424  0.5759299166707806  0.6381022475170042  1.0000
  H   H11       1.0  0.4240454446749097  0.21446640665024577  0.8619210972821705  1.0000
  H   H12       1.0  0.21444002285737437  0.42407552771721413  0.36189546287744884  1.0000
  H   H13       1.0  0.2510134895096954  0.9415656507416728  0.1426364657936219  1.0000
  H   H14       1.0  0.9415392298567156  0.25103560572722483  0.6426515506963001  1.0000
  H   H15       1.0  0.7489838501305142  0.05843715936276792  0.8573648227614825  1.0000
  H   H16       1.0  0.0584576648038747  0.7489685367462474  0.3573495557751442  1.0000
  C   C1        1.0  0.3578825565199463  0.7758319792029557  0.9077642522274658  1.0000
  C   C2        1.0  0.7758438588020053  0.35787773020432934  0.407777168431565  1.0000
  C   C3        1.0  0.6421132403672655  0.22416419109116964  0.09223871536814703  1.0000
  C   C4        1.0  0.22415902563110987  0.6421197255825604  0.5922232647122881  1.0000
  C   C5        1.0  0.5395924560710696  0.6803354497429268  0.9010971393590809  1.0000
  C   C6        1.0  0.6803552763132499  0.5395885105357865  0.4011062053462808  1.0000
  C   C7        1.0  0.46040281400471605  0.319666039875834  0.09890402857076451  1.0000
  C   C8        1.0  0.3196476025665687  0.46040893963800045  0.5988925975501544  1.0000
  C   C9        1.0  0.6207709192066843  0.683073696826533  0.9843254552039014  1.0000
  C   C10       1.0  0.6831042588389165  0.6207762500095697  0.48432877491893583  1.0000
  C   C11       1.0  0.3792277553723764  0.31692511617080044  0.015676379602190583  1.0000
  C   C12       1.0  0.31690104997648655  0.3792251724299121  0.5156678979806061  1.0000
  C   C13       1.0  0.5177429030778452  0.7781223221197495  0.07214700656819423  1.0000
  C   C14       1.0  0.7781235914998843  0.5177529014205647  0.57216006719797  1.0000
  C   C15       1.0  0.48225548740856544  0.22186984652886824  0.9278570661947185  1.0000
  C   C16       1.0  0.22187839464404385  0.48224721068473303  0.42783755640742527  1.0000
  C   C17       1.0  0.3364588312560456  0.8675171822957212  0.07472852708111324  1.0000
  C   C18       1.0  0.8674969782782324  0.3364613017977974  0.5747447472697046  1.0000
  C   C19       1.0  0.6635376974800875  0.1324843027846399  0.9252731997650443  1.0000
  C   C20       1.0  0.13250582432307556  0.66354014094469  0.4252540682920554  1.0000
  C   C21       1.0  0.26444839268863507  0.7914420502529965  0.8203048697205803  1.0000
  C   C22       1.0  0.7914579379654111  0.2644434658021241  0.3203125943968743  1.0000
  C   C23       1.0  0.735549913189317  0.20855410254467444  0.1796967703365268  1.0000
  C   C24       1.0  0.20854501996956282  0.7355499946094994  0.6796870109579416  1.0000
  N   N1        1.0  0.2584407257513986  0.8667118335183518  0.9938713535085668  1.0000
  N   N2        1.0  0.8667100167000256  0.25844139370551034  0.4938823575256706  1.0000
  N   N3        1.0  0.7415566929439733  0.1332869868239328  0.006130737504918204  1.0000
  N   N4        1.0  0.133293230880902  0.7415587166679389  0.5061166401197496  1.0000
  N   N5        1.0  0.11718431815895496  0.9182997195425032  0.7959487490504172  1.0000
  N   N6        1.0  0.9183142774600196  0.11718886757613943  0.2959454448763736  1.0000
  N   N7        1.0  0.8828169361360593  0.08169507777655843  0.20405011530442613  1.0000
  N   N8        1.0  0.08168778773906377  0.8828072547670089  0.7040529811874023  1.0000
  N   N9        1.0  0.9826215727288313  0.6426093853354332  0.12732641782159962  1.0000
  N   N10       1.0  0.6426076763290992  0.9826156435614591  0.6273209804381068  1.0000
  N   N11       1.0  0.01737827312547314  0.3573934044659951  0.8726727280712864  1.0000
  N   N12       1.0  0.3573913641744255  0.017385826828991906  0.3726802339932648  1.0000
  O   O1        1.0  0.3295833132037415  0.6704091573525233  0.7499929926238309  1.0000
  O   O2        1.0  0.6704183916241884  0.32958431321061  0.2500076840620978  1.0000
  O   O3        1.0  0.9322341353773846  0.7781460411225969  0.04238432818986838  1.0000
  O   O4        1.0  0.7781609590107976  0.9322432622216115  0.5423778183925946  1.0000
  O   O5        1.0  0.06776276205986415  0.22185810415743396  0.9576175934052813  1.0000
  O   O6        1.0  0.22183934570637825  0.06775820924354291  0.4576255852025213  1.0000
  O   O7        1.0  0.9296011693649645  0.5158417936458124  0.14234017103000698  1.0000
  O   O8        1.0  0.5158427500345578  0.9295959980528468  0.6423274453314461  1.0000
  O   O9        1.0  0.0703974233822961  0.48416100630712583  0.8576600461939918  1.0000
  O   O10       1.0  0.48415503736192267  0.07040548248911453  0.3576748404310308  1.0000
  O   O11       1.0  0.0785433555399208  0.6444420650711679  0.1874917635126039  1.0000
  O   O12       1.0  0.6444248342473884  0.07851139538347243  0.6875124467510076  1.0000
  O   O13       1.0  0.921458999305123  0.35556070723380645  0.8125060548417764  1.0000
  O   O14       1.0  0.35557124950912544  0.9214914220659198  0.3124890980114898  1.0000
