data_image0
_chemical_formula_structural       Zn6H132C192N24O36
_chemical_formula_sum              "Zn6 H132 C192 N24 O36"
_cell_length_a       16.538531121986267
_cell_length_b       16.541015925038238
_cell_length_c       25.860742546008787
_cell_angle_alpha    90.00007718588998
_cell_angle_beta     89.99991343240333
_cell_angle_gamma    119.99497422509808

_space_group_name_H-M_alt    "P 1"
_space_group_IT_number       1

loop_
  _space_group_symop_operation_xyz
  'x, y, z'

loop_
  _atom_site_type_symbol
  _atom_site_label
  _atom_site_symmetry_multiplicity
  _atom_site_fract_x
  _atom_site_fract_y
  _atom_site_fract_z
  _atom_site_occupancy
  Zn  Zn1       1.0  0.7154908454648989  0.28453938717397154  0.16664889617450737  1.0000
  Zn  Zn2       1.0  0.7154663082887466  0.43093659690169517  0.49999978995054306  1.0000
  Zn  Zn3       1.0  0.5690476782428533  0.2845366148072229  0.833351787994374  1.0000
  Zn  Zn4       1.0  0.2845080693826884  0.7154604009599692  0.16664929237052206  1.0000
  Zn  Zn5       1.0  0.2845329814273611  0.569063855182584  0.5000000592035931  1.0000
  Zn  Zn6       1.0  0.43095121996474023  0.715461640574894  0.8333516552004951  1.0000
  H   H1        1.0  0.6704758927328026  0.3409471427725207  1.7554595643999997e-06  1.0000
  H   H2        1.0  0.659127486484536  0.32956895136617  0.3333614801352453  1.0000
  H   H3        1.0  0.6704415171243879  0.32957142872638195  0.6666388345088166  1.0000
  H   H4        1.0  0.3295252189241467  0.6590529521770707  8.989494090999999e-07  1.0000
  H   H5        1.0  0.34087234804996314  0.6704322500908048  0.3333613958357872  1.0000
  H   H6        1.0  0.3295580878176521  0.6704298320646201  0.6666399212611792  1.0000
  H   H7        1.0  0.8218994691204813  0.6004055492066203  0.08227785414879919  1.0000
  H   H8        1.0  0.3995924340224164  0.2215503013424751  0.41568634170416624  1.0000
  H   H9        1.0  0.7784814290138444  0.1780786318866205  0.7488749474302238  1.0000
  H   H10       1.0  0.17810019682117678  0.3995947400762034  0.08227807990598988  1.0000
  H   H11       1.0  0.6004082112762744  0.7784512564875782  0.415685325476943  1.0000
  H   H12       1.0  0.22151647482361606  0.8219218696375847  0.7488774305664803  1.0000
  H   H13       1.0  0.600405051213947  0.8219252683908492  0.2511227842023942  1.0000
  H   H14       1.0  0.22149556414854027  0.3995947536023223  0.9177227472935171  1.0000
  H   H15       1.0  0.17804730918944506  0.7784533231397361  0.5843133259773551  1.0000
  H   H16       1.0  0.3995973700273225  0.1780733891316615  0.2511233760480777  1.0000
  H   H17       1.0  0.7785048395277271  0.6004031626119968  0.9177225637040748  1.0000
  H   H18       1.0  0.8219541588014249  0.22155095293435068  0.5843116116582435  1.0000
  H   H19       1.0  0.8444864975300206  0.6889770393698457  2.7502921539999983e-07  1.0000
  H   H20       1.0  0.31104071192178395  0.1555230391559377  0.3333716276650449  1.0000
  H   H21       1.0  0.8444880280832548  0.155531259998888  0.6666259138479305  1.0000
  H   H22       1.0  0.15551366041196243  0.3110228000757829  4.4594761309999993e-07  1.0000
  H   H23       1.0  0.6889601699828984  0.844477115240437  0.3333709693164764  1.0000
  H   H24       1.0  0.155512947843512  0.8444734659573995  0.6666277073004565  1.0000
  H   H25       1.0  0.5330890330470055  0.8218327543591925  0.137842233576265  1.0000
  H   H26       1.0  0.1782262479585057  0.7112971641091477  0.4710914898347625  1.0000
  H   H27       1.0  0.2887038455294045  0.4669476280952835  0.8044696152832245  1.0000
  H   H28       1.0  0.46691183925620544  0.17816750948349386  0.13784160003022808  1.0000
  H   H29       1.0  0.8217741393438159  0.28870220548103026  0.47109060728204344  1.0000
  H   H30       1.0  0.7112937999840054  0.5330506854202569  0.8044705986723314  1.0000
  H   H31       1.0  0.8217578137213833  0.5330548247818925  0.19553250032024747  1.0000
  H   H32       1.0  0.7112559532251979  0.1781663458062113  0.8621578835431477  1.0000
  H   H33       1.0  0.4669268695600124  0.2887008389728507  0.5289108518469802  1.0000
  H   H34       1.0  0.17824044638405917  0.4669443942151971  0.19553239764329788  1.0000
  H   H35       1.0  0.2887425458313189  0.8218322938967048  0.8621595279033655  1.0000
  H   H36       1.0  0.5330734173404537  0.7112986014630137  0.528911389580557  1.0000
  H   H37       1.0  0.6768678008336835  0.178051095722445  0.07066825277186692  1.0000
  H   H38       1.0  0.8219299167324223  0.49879322911837687  0.4039592152213203  1.0000
  H   H39       1.0  0.5011775779614496  0.32313621961008465  0.7373043249297595  1.0000
  H   H40       1.0  0.3231322343970787  0.8219488303108237  0.0706679303828608  1.0000
  H   H41       1.0  0.1780708426000431  0.5012070117675692  0.40395875572746576  1.0000
  H   H42       1.0  0.49882441629359425  0.6768662432987468  0.7373060261524101  1.0000
  H   H43       1.0  0.17804031136506637  0.6768689300272398  0.26269645345798415  1.0000
  H   H44       1.0  0.4988148120069482  0.8219489577921095  0.9293342178280567  1.0000
  H   H45       1.0  0.3231352282300007  0.5012049129974372  0.5960417235079375  1.0000
  H   H46       1.0  0.8219575766555143  0.32312941771270004  0.2626956005729468  1.0000
  H   H47       1.0  0.5011835704023397  0.17804976421957255  0.9293343242490764  1.0000
  H   H48       1.0  0.676864243843262  0.49879530774044406  0.5960415505965527  1.0000
  H   H49       1.0  0.6192035666672383  0.01669618618280585  0.04141305706773579  1.0000
  H   H50       1.0  0.983275195459221  0.6025743149641869  0.3746928141281884  1.0000
  H   H51       1.0  0.3974546459314325  0.3807978800563845  0.7080422861855808  1.0000
  H   H52       1.0  0.38079807766827384  0.9833045640343056  0.04141243184380271  1.0000
  H   H53       1.0  0.01672491643505225  0.39742658811052667  0.37469203476148033  1.0000
  H   H54       1.0  0.6025465390902338  0.6192029889197384  0.708043449939545  1.0000
  H   H55       1.0  0.01665558655084712  0.6192093843510377  0.291959007697848  1.0000
  H   H56       1.0  0.6025063079385901  0.9833072552074142  0.9585882311108235  1.0000
  H   H57       1.0  0.38069979101236834  0.3974244119629163  0.6253091782987497  1.0000
  H   H58       1.0  0.9833412032694608  0.3807900463162853  0.29195804797731745  1.0000
  H   H59       1.0  0.3974935819760361  0.016692362678810507  0.9585890717762452  1.0000
  H   H60       1.0  0.6192999793683072  0.6025754956116103  0.6253091512976782  1.0000
  H   H61       1.0  0.5774199343396232  0.9320784389609215  0.2018879846172652  1.0000
  H   H62       1.0  0.06791712395157393  0.6453143397646528  0.5351828686270963  1.0000
  H   H63       1.0  0.3546663269374619  0.422608576435124  0.8685450636657706  1.0000
  H   H64       1.0  0.4225807330805366  0.06792320593105933  0.20188729857255078  1.0000
  H   H65       1.0  0.9320826411428769  0.3546832012523425  0.5351811627126323  1.0000
  H   H66       1.0  0.6453343239199184  0.5773915356505485  0.8685465362790764  1.0000
  H   H67       1.0  0.9320570763148269  0.5773931006943587  0.13145657961029397  1.0000
  H   H68       1.0  0.6453443511076813  0.06792026211630296  0.7981125296739364  1.0000
  H   H69       1.0  0.42260141003839635  0.35468312298024773  0.46481877481396333  1.0000
  H   H70       1.0  0.06794329616035807  0.4226052482213163  0.13145538561587236  1.0000
  H   H71       1.0  0.35465460829033907  0.9320779500885408  0.7981134321895594  1.0000
  H   H72       1.0  0.5773982898968558  0.645316936973373  0.4648192122717133  1.0000
  H   H73       1.0  0.6403134308290959  0.09997793129319632  0.22504238093173262  1.0000
  H   H74       1.0  0.900036104779886  0.5403222893121652  0.5583209655475442  1.0000
  H   H75       1.0  0.45965471870523794  0.35967785204007197  0.8916711581428984  1.0000
  H   H76       1.0  0.3596868472550838  0.9000240909938313  0.2250420907076744  1.0000
  H   H77       1.0  0.09996136357281672  0.4596751180748981  0.5583205459495558  1.0000
  H   H78       1.0  0.5403452874080799  0.6403216838538838  0.8916716272763876  1.0000
  H   H79       1.0  0.09997641978817741  0.6403255381803774  0.1083300650343801  1.0000
  H   H80       1.0  0.5403383714135686  0.9000195131077859  0.7749597005661782  1.0000
  H   H81       1.0  0.3597130467466769  0.4596754517404094  0.44168030414633813  1.0000
  H   H82       1.0  0.9000242483026355  0.35967373595077134  0.10832994134467099  1.0000
  H   H83       1.0  0.4596594190138675  0.0999774616738876  0.7749597796536064  1.0000
  H   H84       1.0  0.6402866933672442  0.5403245798622863  0.4416809761560003  1.0000
  H   H85       1.0  0.5924154042819437  0.7492051747268675  0.9805225395127906  1.0000
  H   H86       1.0  0.25076056886035025  0.8432527095259913  0.31374722855014164  1.0000
  H   H87       1.0  0.1567309143853848  0.4075117069934251  0.6471377443673134  1.0000
  H   H88       1.0  0.4075862613082677  0.25079628361540074  0.9805224132679484  1.0000
  H   H89       1.0  0.7492379287708671  0.15674500271709485  0.31374668876984657  1.0000
  H   H90       1.0  0.8432670979985205  0.592485111171044  0.6471382643533373  1.0000
  H   H91       1.0  0.7492195868750429  0.5924845226520006  0.35286369722662403  1.0000
  H   H92       1.0  0.8432103258007332  0.2507948175141197  0.019477097982637293  1.0000
  H   H93       1.0  0.40750985370748777  0.15674643337098368  0.6862543333857687  1.0000
  H   H94       1.0  0.2507797028793347  0.4075147955971302  0.3528619257920483  1.0000
  H   H95       1.0  0.1567870308393394  0.7492029767136754  0.019479580976465596  1.0000
  H   H96       1.0  0.5924913691484331  0.8432544089084784  0.6862549277794372  1.0000
  H   H97       1.0  0.5654984033172566  0.5860384008789622  0.9738815279261387  1.0000
  H   H98       1.0  0.4140199729326282  0.9795832906365263  0.30713873605289166  1.0000
  H   H99       1.0  0.020423935098143914  0.4344503099747854  0.6405386304780832  1.0000
  H   H100      1.0  0.43450518123797366  0.4139635603318439  0.973881516981784  1.0000
  H   H101      1.0  0.5859785361732222  0.020414413509818964  0.30713901009983857  1.0000
  H   H102      1.0  0.979574693332502  0.5655471046308379  0.6405389946542427  1.0000
  H   H103      1.0  0.585976158997809  0.5655476104436515  0.3594641167191098  1.0000
  H   H104      1.0  0.9794572594927543  0.4139629186230422  0.026119216509051996  1.0000
  H   H105      1.0  0.4344387020562692  0.020414823239377704  0.6928619601025047  1.0000
  H   H106      1.0  0.41402277016525346  0.4344520649176786  0.3594633700666634  1.0000
  H   H107      1.0  0.020539038228640987  0.5860359308142121  0.026118983636621396  1.0000
  H   H108      1.0  0.5655644167593366  0.9795865381416746  0.6928623121697511  1.0000
  H   H109      1.0  0.44587537615327466  0.5283792164744907  0.1262276330581145  1.0000
  H   H110      1.0  0.4716117922141761  0.91758887356913  0.4594997355250782  1.0000
  H   H111      1.0  0.0824649302562507  0.554032610157698  0.7928923594541286  1.0000
  H   H112      1.0  0.5541258654464298  0.4716206841134252  0.1262279425453414  1.0000
  H   H113      1.0  0.528387218699514  0.08241187791536932  0.45949973259718746  1.0000
  H   H114      1.0  0.9175321307742192  0.44596508464460544  0.7928919068740683  1.0000
  H   H115      1.0  0.5284326209412454  0.4459664346952721  0.2071103855583729  1.0000
  H   H116      1.0  0.917494085143005  0.47162280512939947  0.8737728129184602  1.0000
  H   H117      1.0  0.5540267497298217  0.08241545110120549  0.5405004878598517  1.0000
  H   H118      1.0  0.4715669219060102  0.5540327049661328  0.20710968665888876  1.0000
  H   H119      1.0  0.08250697388446328  0.5283805230385141  0.8737724698450576  1.0000
  H   H120      1.0  0.44597965659239247  0.9175887462294555  0.5405005156975874  1.0000
  H   H121      1.0  0.47526892804572185  0.6887885016418664  0.13406698370697967  1.0000
  H   H122      1.0  0.31122497470694543  0.7865384033208827  0.46729380972175244  1.0000
  H   H123      1.0  0.21356312693591656  0.5247103348694183  0.8006751222147271  1.0000
  H   H124      1.0  0.524729787920549  0.31121029301881015  0.13406718269092718  1.0000
  H   H125      1.0  0.6887737672149612  0.2134614041617979  0.46729299118014467  1.0000
  H   H126      1.0  0.7864348742970081  0.47528762497157123  0.8006744357625876  1.0000
  H   H127      1.0  0.6888512214287416  0.4752860655241518  0.19932516103790476  1.0000
  H   H128      1.0  0.7864793251075568  0.31121152231354904  0.865933898330084  1.0000
  H   H129      1.0  0.5246867180201065  0.21346266241926778  0.5327080525906495  1.0000
  H   H130      1.0  0.3111487777364913  0.5247114129988261  0.19932497929097076  1.0000
  H   H131      1.0  0.21352184119977108  0.6887904936759597  0.8659366605040971  1.0000
  H   H132      1.0  0.4753132131574912  0.7865371316935279  0.5327087116801151  1.0000
  C   C1        1.0  0.7390055059346351  0.4176212655253266  0.0964104333622799  1.0000
  C   C2        1.0  0.5824170069820056  0.3213928974358496  0.42979532644795876  1.0000
  C   C3        1.0  0.678526036885394  0.2610039798343068  0.763051732372901  1.0000
  C   C4        1.0  0.26099413546606337  0.5823790410741267  0.09641112371939188  1.0000
  C   C5        1.0  0.41758335835822896  0.6786077241306998  0.42979478800684484  1.0000
  C   C6        1.0  0.321472540594435  0.7389958410109045  0.7630524997393452  1.0000
  C   C7        1.0  0.4175221221812534  0.7389983718182691  0.23694845680113724  1.0000
  C   C8        1.0  0.3213849013568862  0.5823791120707187  0.9035913198819969  1.0000
  C   C9        1.0  0.2610259508403417  0.6786059820239815  0.5702057588312712  1.0000
  C   C10       1.0  0.5824767642646763  0.2610001998770387  0.23694932951333667  1.0000
  C   C11       1.0  0.6786144794700276  0.4176198339017817  0.9035918482681706  1.0000
  C   C12       1.0  0.7389735660970586  0.3213942070568122  0.570204211708031  1.0000
  C   C13       1.0  0.7467428963293725  0.46592267199829973  0.0460642550402284  1.0000
  C   C14       1.0  0.534116351822071  0.28088172284675744  0.37944178981163657  1.0000
  C   C15       1.0  0.7191050243173223  0.25325367949268  0.7126873395315484  1.0000
  C   C16       1.0  0.2532571816252442  0.5340772238881186  0.04606375098125431  1.0000
  C   C17       1.0  0.4658827981099805  0.7191189305434306  0.37944007949700875  1.0000
  C   C18       1.0  0.2808916395129089  0.7467468712127642  0.712689313110218  1.0000
  C   C19       1.0  0.46585397698593317  0.7467501234928096  0.28731164638437423  1.0000
  C   C20       1.0  0.28082298004142103  0.5340771005746136  0.953938674211784  1.0000
  C   C21       1.0  0.25323552610011285  0.7191150327901211  0.6205604827792327  1.0000
  C   C22       1.0  0.5341480322843494  0.2532489273964984  0.2873141060870168  1.0000
  C   C23       1.0  0.7191746613851393  0.46592234963284807  0.9539388183722365  1.0000
  C   C24       1.0  0.7467675309236841  0.2808888451514593  0.62055927965271  1.0000
  C   C25       1.0  0.7084622658147237  0.4169261996138685  1.7699381303e-06  1.0000
  C   C26       1.0  0.583137806190706  0.2915805770188696  0.33337928816840184  1.0000
  C   C27       1.0  0.708442031303157  0.29158353842637996  0.6666213986861679  1.0000
  C   C28       1.0  0.29153693840859046  0.5830733843304045  1.2711580481999998e-06  1.0000
  C   C29       1.0  0.4168633311596677  0.7084205309377437  0.3333780029003819  1.0000
  C   C30       1.0  0.29155773545689806  0.7084199784699762  0.66662255529981  1.0000
  C   C31       1.0  0.7945526575475269  0.5638713922833033  0.04580790112027701  1.0000
  C   C32       1.0  0.43614314640507257  0.23074571988571083  0.3792094170953249  1.0000
  C   C33       1.0  0.7692621167392913  0.2054436854340622  0.7124112002768043  1.0000
  C   C34       1.0  0.20544742085227338  0.43612850328898395  0.04580735860335489  1.0000
  C   C35       1.0  0.563857843247021  0.7692518855228982  0.37920726835265123  1.0000
  C   C36       1.0  0.23073696592125267  0.7945592830406342  0.7124124906710847  1.0000
  C   C37       1.0  0.5638217616845936  0.794564349617268  0.28758655361178853  1.0000
  C   C38       1.0  0.23068539136482258  0.4361283125784539  0.9541942558897317  1.0000
  C   C39       1.0  0.20539586036828442  0.7692505988021736  0.6207906062226911  1.0000
  C   C40       1.0  0.4361790379338402  0.20543349255443394  0.2875882936884295  1.0000
  C   C41       1.0  0.7693148553094105  0.5638709508992933  0.9541944362447907  1.0000
  C   C42       1.0  0.7946055442811328  0.23075372196699112  0.6207893131442076  1.0000
  C   C43       1.0  0.806423282331039  0.6128499400353817  1.0338968153e-06  1.0000
  C   C44       1.0  0.38718642695261  0.1936080926122585  0.33339403499389425  1.0000
  C   C45       1.0  0.8064269101756665  0.19361842168706309  0.6666046810931474  1.0000
  C   C46       1.0  0.1935771310683875  0.38715085296218626  8.471398089999999e-07  1.0000
  C   C47       1.0  0.6128142931259929  0.8063898056844464  0.3333926442476312  1.0000
  C   C48       1.0  0.1935746703755825  0.8063869087701718  0.6666064045403033  1.0000
  C   C49       1.0  0.6548986502436661  0.12193712356222627  0.09880084199318159  1.0000
  C   C50       1.0  0.8780526390590707  0.5329740972673279  0.43208020504564354  1.0000
  C   C51       1.0  0.46702274926134635  0.3451128713145054  0.7654357938626218  1.0000
  C   C52       1.0  0.3450996841612977  0.8780632794869944  0.0988005469049114  1.0000
  C   C53       1.0  0.1219474668550333  0.4670255735476729  0.43207977045558715  1.0000
  C   C54       1.0  0.5329789406869806  0.6548886725114683  0.7654366694696222  1.0000
  C   C55       1.0  0.12190814373735752  0.6548908020100512  0.2345658017653633  1.0000
  C   C56       1.0  0.5329613198908162  0.8780631853429525  0.9012004626307258  1.0000
  C   C57       1.0  0.34507587263157546  0.46702437579197204  0.567920695754985  1.0000
  C   C58       1.0  0.8780903977180258  0.34510811578922324  0.2345653000746637  1.0000
  C   C59       1.0  0.467038065087749  0.12193575770005081  0.9012009402711952  1.0000
  C   C60       1.0  0.654925555706136  0.5329763214951772  0.5679201871098911  1.0000
  C   C61       1.0  0.6214404522536512  0.031099715120035478  0.08231443998338508  1.0000
  C   C62       1.0  0.9688834778398743  0.5903796814705302  0.41558761992306603  1.0000
  C   C63       1.0  0.4096446674955699  0.3785803708492494  0.7489424970009821  1.0000
  C   C64       1.0  0.3785602610125309  0.9688995271344111  0.08231380444577499  1.0000
  C   C65       1.0  0.031117005841899407  0.4096196201122594  0.4155872238290782  1.0000
  C   C66       1.0  0.5903586093965387  0.6214220127978081  0.7489436745226284  1.0000
  C   C67       1.0  0.0310639840814487  0.6214257354929983  0.25105878395853404  1.0000
  C   C68       1.0  0.590337770672008  0.9689010104613303  0.917687239705998  1.0000
  C   C69       1.0  0.3785028182920271  0.40961861061884974  0.5844136071906546  1.0000
  C   C70       1.0  0.968934179605263  0.3785735515391978  0.25105860969006955  1.0000
  C   C71       1.0  0.40966158567805877  0.031097952782545304  0.9176876943497091  1.0000
  C   C72       1.0  0.6214967676434496  0.5903802932959793  0.5844135674825707  1.0000
  C   C73       1.0  0.593176629334721  0.9596860871418899  0.11927241838976949  1.0000
  C   C74       1.0  0.040341601013729134  0.6335175348527001  0.4525344380202085  1.0000
  C   C75       1.0  0.3665102943607295  0.40687905063160923  0.785909372855805  1.0000
  C   C76       1.0  0.4068248798013769  0.040314758474806964  0.11927211040778467  1.0000
  C   C77       1.0  0.9596570047497789  0.3664799984186402  0.4525331022237252  1.0000
  C   C78       1.0  0.6334907554484275  0.5931219137533433  0.7859104839288164  1.0000
  C   C79       1.0  0.9596324910064169  0.5931250905540467  0.21409031783607446  1.0000
  C   C80       1.0  0.6334914073192265  0.040314888779583696  0.8807288673786857  1.0000
  C   C81       1.0  0.40682113484259474  0.36647882960181016  0.54746567973973  1.0000
  C   C82       1.0  0.04036824889468703  0.40687526671437974  0.2140906837457024  1.0000
  C   C83       1.0  0.36650871146546393  0.9596833311315933  0.8807293956217491  1.0000
  C   C84       1.0  0.593177816992302  0.6335207270904919  0.5474664783234501  1.0000
  C   C85       1.0  0.5996796937903568  0.9852507000898001  0.17188267126430648  1.0000
  C   C86       1.0  0.014784990879931544  0.6144302324942644  0.5051497140405984  1.0000
  C   C87       1.0  0.3855727888979388  0.40037461957631143  0.8385238592784104  1.0000
  C   C88       1.0  0.4003210257326373  0.01475090803730697  0.17188196075257167  1.0000
  C   C89       1.0  0.9852144772356012  0.3855676207486808  0.5051491433301364  1.0000
  C   C90       1.0  0.6144273095026023  0.5996248511978095  0.8385249945141096  1.0000
  C   C91       1.0  0.9851990749872  0.5996283105184048  0.16147696978843842  1.0000
  C   C92       1.0  0.6144297542154502  0.014747905534967761  0.828118233918488  1.0000
  C   C93       1.0  0.4003569250316232  0.3855684156604439  0.49485119265133176  1.0000
  C   C94       1.0  0.014800547099746042  0.4003707732297882  0.16147696821773386  1.0000
  C   C95       1.0  0.38556889762026714  0.9852493898842383  0.8281195391771518  1.0000
  C   C96       1.0  0.5996424672956663  0.6144307275397479  0.49485119503037106  1.0000
  C   C97       1.0  0.6342278141949649  0.07801206800719744  0.18477245566105444  1.0000
  C   C98       1.0  0.9220056516268044  0.5561929086218242  0.518039829138381  1.0000
  C   C99       1.0  0.44378039646817047  0.3657985808327736  0.8513942894461477  1.0000
  C   C100      1.0  0.36577227835793735  0.9219889513865097  0.18477179187983242  1.0000
  C   C101      1.0  0.07799353864773192  0.4438040068634946  0.5180386437560428  1.0000
  C   C102      1.0  0.5562194241252739  0.634199952159797  0.8513951245336527  1.0000
  C   C103      1.0  0.07798236780381251  0.6342040732437936  0.14860617875698517  1.0000
  C   C104      1.0  0.556214472576606  0.9219865628615195  0.8152292343939463  1.0000
  C   C105      1.0  0.36581433889379156  0.4438078038888164  0.48196181360446383  1.0000
  C   C106      1.0  0.9220177875493434  0.36579690183671704  0.14860642568920207  1.0000
  C   C107      1.0  0.4437832479243368  0.07801046126178329  0.8152296965510641  1.0000
  C   C108      1.0  0.6341850758157078  0.5561913235180141  0.48196134523976036  1.0000
  C   C109      1.0  0.5641740293796287  0.8311995494518244  0.05919753565378729  1.0000
  C   C110      1.0  0.16882560454870799  0.7329789713883342  0.39243057608840093  1.0000
  C   C111      1.0  0.26700878094182195  0.43581187084556217  0.7258287923132016  1.0000
  C   C112      1.0  0.43582672402761347  0.16879966447823594  0.059197310879930895  1.0000
  C   C113      1.0  0.8311742210861013  0.26702099986900424  0.3924300522906278  1.0000
  C   C114      1.0  0.7329923731948965  0.5641890199236387  0.7258293949263646  1.0000
  C   C115      1.0  0.8311957494037402  0.5641866579172543  0.27417255587096884  1.0000
  C   C116      1.0  0.7329729987981467  0.16879900906796771  0.9408029424968872  1.0000
  C   C117      1.0  0.4358466948715004  0.26701986845266384  0.607570238516189  1.0000
  C   C118      1.0  0.16880090951271137  0.4358104948310242  0.2741732087483655  1.0000
  C   C119      1.0  0.26702882943271766  0.8312010980321528  0.9408042293940325  1.0000
  C   C120      1.0  0.5641521525958877  0.7329797618835769  0.6075696047854463  1.0000
  C   C121      1.0  0.5382767315920203  0.7308051420430954  0.05767705340345229  1.0000
  C   C122      1.0  0.2692080419167836  0.8075181813738297  0.39088768049482775  1.0000
  C   C123      1.0  0.1925003729423835  0.4616842862117423  0.7242774534952687  1.0000
  C   C124      1.0  0.4617248845010876  0.26919562810245873  0.0576772771878709  1.0000
  C   C125      1.0  0.7307912754799234  0.19247988089082937  0.3908875763070725  1.0000
  C   C126      1.0  0.8074995747131412  0.5383153936025737  0.7242779612753407  1.0000
  C   C127      1.0  0.7308171028603354  0.538312880672656  0.27572359297445803  1.0000
  C   C128      1.0  0.8074711041968712  0.2691954319418104  0.9423226277613492  1.0000
  C   C129      1.0  0.4616883425232743  0.19247928360703537  0.6091122994074708  1.0000
  C   C130      1.0  0.2691829254304068  0.4616869475863369  0.2757233973674147  1.0000
  C   C131      1.0  0.19253037226469863  0.7308050260455089  0.9423254467590495  1.0000
  C   C132      1.0  0.5383124096976033  0.8075208596256901  0.6091140755295114  1.0000
  C   C133      1.0  0.5602984867065928  0.699498155054677  0.012119559237959298  1.0000
  C   C134      1.0  0.30049666240454076  0.8608606505067012  0.3453333120122933  1.0000
  C   C135      1.0  0.13911152806827673  0.43960155563203057  0.6787393342930911  1.0000
  C   C136      1.0  0.43970320849526695  0.3005025592700576  0.0121194448769373  1.0000
  C   C137      1.0  0.6995023849661095  0.13913770496539277  0.34533319198398255  1.0000
  C   C138      1.0  0.86088703402887  0.5603959057799202  0.6787394226507784  1.0000
  C   C139      1.0  0.699508576321648  0.5603926682176663  0.3212633000733974  1.0000
  C   C140      1.0  0.8607997484581772  0.3005008478224909  0.9878804720020397  1.0000
  C   C141      1.0  0.4396380043916679  0.13913876381660367  0.6546678234617289  1.0000
  C   C142      1.0  0.3004910237624614  0.43960756486434593  0.321263054900804  1.0000
  C   C143      1.0  0.13920043971987167  0.6994984569314082  0.9878825423083483  1.0000
  C   C144      1.0  0.5603645761588038  0.860861946238934  0.6546680776534828  1.0000
  C   C145      1.0  0.5444485848957326  0.6088338865111707  0.008402310322097198  1.0000
  C   C146      1.0  0.3911574290295759  0.9357034417384184  0.34163889759263805  1.0000
  C   C147      1.0  0.06426713101727433  0.45541182742212527  0.6750550285475185  1.0000
  C   C148      1.0  0.4555534658896647  0.39116647423494305  0.008402645846707898  1.0000
  C   C149      1.0  0.6088413692977851  0.06429395565577783  0.34163880077797865  1.0000
  C   C150      1.0  0.9357292745861512  0.5445841649184545  0.6750546437828574  1.0000
  C   C151      1.0  0.6088537218831434  0.5445809979281864  0.3249472995432541  1.0000
  C   C152      1.0  0.9356134791939397  0.3911641519805968  0.9915984656416298  1.0000
  C   C153      1.0  0.4554572681049009  0.06429810014140004  0.6583617994601881  1.0000
  C   C154      1.0  0.39114466262883946  0.45541803061369984  0.3249469799854338  1.0000
  C   C155      1.0  0.06438600427113533  0.6088358553763767  0.9915989833016708  1.0000
  C   C156      1.0  0.5445476307106462  0.9357063351238041  0.6583621339078861  1.0000
  C   C157      1.0  0.505909346649858  0.5471301159029166  0.05028934394533739  1.0000
  C   C158      1.0  0.4528438606951752  0.9588385484785817  0.38353481308413245  1.0000
  C   C159      1.0  0.04114361181856902  0.4939652546210026  0.7169552454807188  1.0000
  C   C160      1.0  0.49409349144664816  0.4528718542447123  0.050289695514173595  1.0000
  C   C161      1.0  0.5471538174945466  0.041159947322469796  0.3835347561568554  1.0000
  C   C162      1.0  0.9588530701555626  0.506030440035218  0.716955578194728  1.0000
  C   C163      1.0  0.5471771321975251  0.5060294107370067  0.28304673712631967  1.0000
  C   C164      1.0  0.9587776320369343  0.4528704339086574  0.9497118261762906  1.0000
  C   C165      1.0  0.49401016819185634  0.04116343305273074  0.6164642885194381  1.0000
  C   C166      1.0  0.4528238370930352  0.4939706819980357  0.28304716442923444  1.0000
  C   C167      1.0  0.041220714987254374  0.5471283130715037  0.9497123128496128  1.0000
  C   C168      1.0  0.505996455351223  0.9588405083309582  0.6164650671727329  1.0000
  C   C169      1.0  0.4802591175610758  0.5776663891429195  0.0947540634931769  1.0000
  C   C170      1.0  0.4223142424811357  0.902673656809874  0.4280083912093744  1.0000
  C   C171      1.0  0.09733592895415895  0.5195946711635029  0.7614210831960831  1.0000
  C   C172      1.0  0.5197427832782323  0.4223340774083439  0.0947547503494235  1.0000
  C   C173      1.0  0.5776842185286241  0.09732645156169888  0.4280079666211805  1.0000
  C   C174      1.0  0.9026621404406612  0.48040324058100503  0.7614214482954295  1.0000
  C   C175      1.0  0.5777398224876791  0.48040231424370455  0.2385812439466619  1.0000
  C   C176      1.0  0.9025913002337729  0.4223364375452546  0.9052475330779969  1.0000
  C   C177      1.0  0.5196455319155007  0.09732976634225576  0.5719922595188008  1.0000
  C   C178      1.0  0.4222599211696689  0.5195978175299772  0.2385813364802232  1.0000
  C   C179      1.0  0.09740909955139898  0.5776663246612017  0.9052476049383671  1.0000
  C   C180      1.0  0.4803592614185631  0.9026736095447773  0.5719922410172628  1.0000
  C   C181      1.0  0.4964397631703434  0.6682417997398461  0.09881855668604089  1.0000
  C   C182      1.0  0.3317480291273894  0.8282598085859972  0.4320477301262429  1.0000
  C   C183      1.0  0.17179009411908916  0.5034793775094145  0.7654433529992773  1.0000
  C   C184      1.0  0.5035615260240007  0.33175806726428203  0.09881879405480018  1.0000
  C   C185      1.0  0.668251727714015  0.1717402112134252  0.43204728204345594  1.0000
  C   C186      1.0  0.8282088283378428  0.49652009724130153  0.7654430310473898  1.0000
  C   C187      1.0  0.6683105963754342  0.49651806570941653  0.2345577339032374  1.0000
  C   C188      1.0  0.8281971711066657  0.33175899188128705  0.901181908109038  1.0000
  C   C189      1.0  0.5034899987517605  0.17174134399127888  0.5679533591405103  1.0000
  C   C190      1.0  0.33168924793947235  0.5034807585587017  0.23455751378964607  1.0000
  C   C191      1.0  0.17180091105736764  0.6682400446611324  0.9011835329491403  1.0000
  C   C192      1.0  0.4965116849873254  0.8282603068873725  0.5679532604295047  1.0000
  N   N1        1.0  0.6619883309587067  0.14645469360686295  0.1490832414040639  1.0000
  N   N2        1.0  0.8535443082652633  0.5154948567330564  0.4823606681720207  1.0000
  N   N3        1.0  0.4844501584691229  0.33801859840814785  0.8157123742502534  1.0000
  N   N4        1.0  0.33801026526165856  0.8535454220285246  0.14908370532235438  1.0000
  N   N5        1.0  0.1464551057519613  0.4845042711622582  0.48235983823341394  1.0000
  N   N6        1.0  0.5155511887167918  0.6619820534701262  0.8157144330018866  1.0000
  N   N7        1.0  0.14643139239286274  0.6619836934433394  0.1842868808755043  1.0000
  N   N8        1.0  0.515533814729025  0.8535451666430234  0.8509188416154955  1.0000
  N   N9        1.0  0.3380477951088706  0.48450158028852996  0.5176414080098722  1.0000
  N   N10       1.0  0.8535684455432602  0.33801637180522465  0.18428794361177836  1.0000
  N   N11       1.0  0.48446444838611313  0.14645250573699553  0.8509193235768251  1.0000
  N   N12       1.0  0.6619514639740841  0.5154988934111486  0.5176408773843589  1.0000
  N   N13       1.0  0.560799196386327  0.8668687910817283  0.10715943930178899  1.0000
  N   N14       1.0  0.1331708858132998  0.6939399260829687  0.44040561037703435  1.0000
  N   N15       1.0  0.30608473534624636  0.439282738862346  0.7737895013188592  1.0000
  N   N16       1.0  0.43920198465424687  0.1331323887174564  0.10715918032561687  1.0000
  N   N17       1.0  0.8668283455982007  0.3060581968546786  0.44040508577646875  1.0000
  N   N18       1.0  0.6939163355089093  0.5607182106720926  0.7737901388948173  1.0000
  N   N19       1.0  0.8668040400366976  0.560722513504878  0.22621103720826596  1.0000
  N   N20       1.0  0.6939295375082393  0.13313199674256265  0.8928414461461925  1.0000
  N   N21       1.0  0.4392281311416183  0.30605729035787727  0.5595956065940227  1.0000
  N   N22       1.0  0.13319528230066888  0.43927925471190593  0.22621172769173367  1.0000
  N   N23       1.0  0.3060692573971122  0.8668663315318098  0.8928427260253854  1.0000
  N   N24       1.0  0.5607720088059267  0.6939434902505469  0.5595957156784975  1.0000
  O   O1        1.0  0.706660355879812  0.32855444451757876  0.09577624461100949  1.0000
  O   O2        1.0  0.671484904121982  0.3781164272527491  0.42915456823160264  1.0000
  O   O3        1.0  0.6217788269370033  0.2933269965065719  0.7624253418274093  1.0000
  O   O4        1.0  0.29333954208120605  0.6714468148555993  0.09577620738080839  1.0000
  O   O5        1.0  0.3285166715046301  0.621885402583672  0.4291556139110142  1.0000
  O   O6        1.0  0.3782197516312634  0.7066728235706066  0.7624252526546584  1.0000
  O   O7        1.0  0.3284507386782137  0.7066733851822491  0.23757569156789057  1.0000
  O   O8        1.0  0.378106122447015  0.67144685461993  0.9042247234170303  1.0000
  O   O9        1.0  0.29337433186179845  0.621887976208086  0.5708445246248032  1.0000
  O   O10       1.0  0.6715478656676553  0.29332909500721643  0.2375753456920933  1.0000
  O   O11       1.0  0.6218938618679246  0.3285526966554145  0.9042248430177509  1.0000
  O   O12       1.0  0.7066226719451549  0.3781110981231068  0.5708434447948533  1.0000
  O   O13       1.0  0.7654536566118608  0.4652281918955979  0.13738876952055526  1.0000
  O   O14       1.0  0.5347902312580146  0.3001179391590228  0.47077598885751826  1.0000
  O   O15       1.0  0.6998168723900378  0.23467827902667446  0.8040393194649624  1.0000
  O   O16       1.0  0.23454626276198806  0.5347718158887815  0.13738828424583724  1.0000
  O   O17       1.0  0.4652134349880938  0.6998854062310187  0.4707754225793365  1.0000
  O   O18       1.0  0.30018328589022736  0.7653211494950438  0.8040416770887829  1.0000
  O   O19       1.0  0.4651340989951366  0.7653184945389526  0.1959585161097479  1.0000
  O   O20       1.0  0.3002219610318234  0.5347728088628115  0.862613367842556  1.0000
  O   O21       1.0  0.23467517733094212  0.6998834214790365  0.5292239723068731  1.0000
  O   O22       1.0  0.5348652758734644  0.2346832366106711  0.19596018564442366  1.0000
  O   O23       1.0  0.6997787001261314  0.46522729595454837  0.8626143036225002  1.0000
  O   O24       1.0  0.7653240616403494  0.30011706641186453  0.5292223811312197  1.0000
  O   O25       1.0  0.5909754901023802  0.879657389672431  0.019675476620491798  1.0000
  O   O26       1.0  0.12035601784857156  0.7112905101406923  0.35291703032343946  1.0000
  O   O27       1.0  0.28865264761385134  0.4089531344600559  0.6863260374628908  1.0000
  O   O28       1.0  0.4090236799578976  0.12034221837800634  0.019675622567632393  1.0000
  O   O29       1.0  0.879643271812469  0.2887088081742917  0.35291609154199216  1.0000
  O   O30       1.0  0.7113482259877415  0.5910480569320031  0.6863274577668148  1.0000
  O   O31       1.0  0.8796982398855415  0.5910454726578249  0.3136745032661921  1.0000
  O   O32       1.0  0.7113183487566274  0.12034233175167952  0.9803242256570001  1.0000
  O   O33       1.0  0.40906194365240367  0.28870332924502407  0.6470834341564284  1.0000
  O   O34       1.0  0.12029869956737124  0.4089513794666432  0.31367440661701107  1.0000
  O   O35       1.0  0.28868140974374523  0.8796586153426917  0.9803251468358312  1.0000
  O   O36       1.0  0.590937533459737  0.7112956514578741  0.6470835289716986  1.0000
