data_image0
_chemical_formula_structural       Zn2H14C24N2O8F2
_chemical_formula_sum              "Zn2 H14 C24 N2 O8 F2"
_cell_length_a       9.80150924886305
_cell_length_b       11.071549491352696
_cell_length_c       11.296225345664284
_cell_angle_alpha    92.77478857883436
_cell_angle_beta     94.17055143113184
_cell_angle_gamma    108.05126456370519

_space_group_name_H-M_alt    "P 1"
_space_group_IT_number       1

loop_
  _space_group_symop_operation_xyz
  'x, y, z'

loop_
  _atom_site_type_symbol
  _atom_site_label
  _atom_site_symmetry_multiplicity
  _atom_site_fract_x
  _atom_site_fract_y
  _atom_site_fract_z
  _atom_site_occupancy
  Zn  Zn1       1.0  0.3527946578453225  0.4529613105734073  0.5130131218285212  1.0000
  Zn  Zn2       1.0  0.6484623515403314  0.5380616119011706  0.4872508666720704  1.0000
  H   H1        1.0  0.5826227414853591  0.10647394765847913  0.1003442650028745  1.0000
  H   H2        1.0  0.4161461036488632  0.8867470880700951  0.899942508530458  1.0000
  H   H3        1.0  0.4373749554203457  0.2179787141568781  0.7093691260769858  1.0000
  H   H4        1.0  0.559852544110541  0.7734109749161745  0.2884116787564109  1.0000
  H   H5        1.0  0.4595686002889466  0.7731633220267045  0.7190264015093177  1.0000
  H   H6        1.0  0.5403246495516215  0.2192320446499068  0.28260467681682394  1.0000
  H   H7        1.0  0.6258726383818499  0.5192313577100621  0.10220367605793969  1.0000
  H   H8        1.0  0.37486971011659886  0.4552419464031345  0.8976075265600797  1.0000
  H   H9        1.0  0.2953171395608294  0.44067757319042766  0.1050724779671697  1.0000
  H   H10       1.0  0.7057192765737669  0.5459314434060188  0.8947892757048874  1.0000
  H   H11       1.0  0.14283155834807099  0.5842395104458262  0.4509644901346589  1.0000
  H   H12       1.0  0.8592406122049355  0.4066816674160094  0.549371264175164  1.0000
  H   H13       1.0  0.07304998123039752  0.34870932073713584  0.5737207531932852  1.0000
  H   H14       1.0  0.9280493154129206  0.6422426017008079  0.4266016372165565  1.0000
  C   C1        1.0  0.5604392321798386  0.5092870466806474  0.7308864956979376  1.0000
  C   C2        1.0  0.4400604216220075  0.4773235926734146  0.269274025842634  1.0000
  C   C3        1.0  0.5920064643521882  0.5147055508366591  0.8615123864258577  1.0000
  C   C4        1.0  0.4088225772670526  0.46763001644702473  0.13839778392026858  1.0000
  C   C5        1.0  0.4868687666262447  0.48513362883348776  0.9362623299544524  1.0000
  C   C6        1.0  0.5139873049631946  0.4919319519528713  0.063558498371215  1.0000
  C   C7        1.0  0.9249508597411307  0.4888677098273392  0.5061282821817769  1.0000
  C   C8        1.0  0.0768849035164223  0.5021928630228132  0.4941810138954991  1.0000
  C   C9        1.0  0.4918094520674857  0.2558139378454101  0.4951388759102854  1.0000
  C   C10       1.0  0.5089163891129189  0.7352567723370457  0.5049959281136862  1.0000
  C   C11       1.0  0.4438493164105638  0.12144798508785473  0.7089455228948934  1.0000
  C   C12       1.0  0.5537861165081068  0.8700001962297464  0.2898655980470294  1.0000
  C   C13       1.0  0.4251661454590447  0.057642223451154  0.810068508478544  1.0000
  C   C14       1.0  0.5720528253839207  0.9344838595185364  0.18910369912302366  1.0000
  C   C15       1.0  0.43055694499430786  0.9318873258937971  0.816157577729484  1.0000
  C   C16       1.0  0.5679946823048853  0.0607341282666454  0.1838402040461062  1.0000
  C   C17       1.0  0.4554898508104231  0.8701868750303916  0.7156322489208832  1.0000
  C   C18       1.0  0.5438633582192196  0.1218778494606241  0.2850195356626982  1.0000
  C   C19       1.0  0.47632393535213424  0.9305851119422215  0.6062530457857845  1.0000
  C   C20       1.0  0.5226533872311947  0.06027019096669051  0.39369022300159157  1.0000
  C   C21       1.0  0.4706553044429926  0.059346854313695005  0.6033231041596067  1.0000
  C   C22       1.0  0.5282839768481011  0.9314413573280689  0.3963819728741881  1.0000
  C   C23       1.0  0.505259939850788  0.8696367075275475  0.5028917819494509  1.0000
  C   C24       1.0  0.4942496578278294  0.12107179154060793  0.497026062736097  1.0000
  N   N1        1.0  0.8631831567824905  0.5674664986304451  0.4673833123039656  1.0000
  N   N2        1.0  0.1382397649366709  0.4233568349687573  0.5330412908737117  1.0000
  O   O1        1.0  0.42846652146415926  0.4669266072314856  0.6882219537054651  1.0000
  O   O2        1.0  0.5715534729026218  0.504125214153035  0.31149802263596627  1.0000
  O   O3        1.0  0.6688569486099284  0.5476346091145958  0.6703315367970146  1.0000
  O   O4        1.0  0.33185072931454584  0.45828362294484043  0.3306531590844841  1.0000
  O   O5        1.0  0.3696729395335084  0.27337813588741966  0.49450340237981993  1.0000
  O   O6        1.0  0.6281071726918769  0.7164507336360942  0.48921061949035755  1.0000
  O   O7        1.0  0.6132325693529168  0.3416236511101758  0.4953585615232398  1.0000
  O   O8        1.0  0.3914430242615481  0.650337995109318  0.521369688331923  1.0000
  F   F1        1.0  0.4003955113058169  0.11691143890870141  0.9118667314929919  1.0000
  F   F2        1.0  0.5952837056892902  0.8753021957332688  0.0866398313314249  1.0000
