data_image0
_chemical_formula_structural       Al4H40C54O28
_chemical_formula_sum              "Al4 H40 C54 O28"
_cell_length_a       6.643249685060352
_cell_length_b       17.271162612781197
_cell_length_c       19.60534705340385
_cell_angle_alpha    107.65522943543922
_cell_angle_beta     90.00028091042243
_cell_angle_gamma    90.00041346403127

_space_group_name_H-M_alt    "P 1"
_space_group_IT_number       1

loop_
  _space_group_symop_operation_xyz
  'x, y, z'

loop_
  _atom_site_type_symbol
  _atom_site_label
  _atom_site_symmetry_multiplicity
  _atom_site_fract_x
  _atom_site_fract_y
  _atom_site_fract_z
  _atom_site_occupancy
  Al  Al1       1.0  0.8915101200647797  0.502855550664009  0.5019991048343826  1.0000
  Al  Al2       1.0  0.39150623531416073  0.49715101265460504  0.4980049212024084  1.0000
  Al  Al3       1.0  0.3879005436613454  0.0015302001275046004  0.0008619783804774998  1.0000
  Al  Al4       1.0  0.8878919374693695  0.9984726918465655  0.9991414848219476  1.0000
  H   H1        1.0  0.38120510538651337  0.3324806345427334  0.2928517330583205  1.0000
  H   H2        1.0  0.8812008550087712  0.6675230685995787  0.7071575954926387  1.0000
  H   H3        1.0  0.4354653623936926  0.3272396402122127  0.609359572869181  1.0000
  H   H4        1.0  0.935479345188959  0.6727491066635595  0.39063431239421226  1.0000
  H   H5        1.0  0.5847135458469879  0.21678769309024656  0.6498201127703566  1.0000
  H   H6        1.0  0.08472960424235512  0.7831923934229436  0.35017073700534945  1.0000
  H   H7        1.0  0.40088600751968073  0.0875434714218598  0.8253025081417745  1.0000
  H   H8        1.0  0.9009027867344557  0.9124507242735548  0.17469399397233332  1.0000
  H   H9        1.0  0.6748213768980663  0.37584097507131276  0.7761096909295729  1.0000
  H   H10       1.0  0.17480768496617569  0.6241554545208602  0.22388787713941838  1.0000
  H   H11       1.0  0.5666201921606913  0.22670680470785246  0.2351214706175782  1.0000
  H   H12       1.0  0.06662380719090069  0.7732983374758717  0.7648956505342352  1.0000
  H   H13       1.0  0.8104661053689668  0.28527356406154786  0.9707847442871297  1.0000
  H   H14       1.0  0.6891189729773473  0.19145830330339209  0.9346719212672168  1.0000
  H   H15       1.0  0.9002736569896611  0.19872284716600314  0.992164452162406  1.0000
  H   H16       1.0  0.3104609032863976  0.7147206729877099  0.029207264118689093  1.0000
  H   H17       1.0  0.18911958105501722  0.808534829242838  0.0653278009568155  1.0000
  H   H18       1.0  0.4002657487909643  0.8012761682161766  0.007832608682704698  1.0000
  H   H19       1.0  0.5336028174592045  0.3277645962476329  0.855896400207449  1.0000
  H   H20       1.0  0.0336012130736592  0.6722286148097112  0.144097601881036  1.0000
  H   H21       1.0  0.8490981383131955  0.16837760436619223  0.1553400455734604  1.0000
  H   H22       1.0  0.3490982830142642  0.8316303314150773  0.8446580076435309  1.0000
  H   H23       1.0  0.9417076222057545  0.24656869541919954  0.40214442687861407  1.0000
  H   H24       1.0  0.8126530029300271  0.26349544658988583  0.32907242269810405  1.0000
  H   H25       1.0  0.9869686909247335  0.18202458426621604  0.3129363602074449  1.0000
  H   H26       1.0  0.44174000270383834  0.7534371778328931  0.597853840140708  1.0000
  H   H27       1.0  0.3126709504544608  0.7365170656889148  0.6709239638089385  1.0000
  H   H28       1.0  0.4870054124822403  0.8179795311924778  0.6870598700766803  1.0000
  H   H29       1.0  0.8176488230753733  0.4382894738124108  0.6339478345201996  1.0000
  H   H30       1.0  0.31764916444423363  0.5617091995990648  0.3660538325126694  1.0000
  H   H31       1.0  0.692406034548604  0.11912572386707147  0.7777636946951887  1.0000
  H   H32       1.0  0.5610939353037594  0.04775738694649327  0.7079514678926984  1.0000
  H   H33       1.0  0.7366984340056888  0.11545445407160317  0.6875888325730486  1.0000
  H   H34       1.0  0.1924106254414326  0.8808714782885334  0.2222360574299742  1.0000
  H   H35       1.0  0.0610922225351018  0.9522303123195003  0.292050051381608  1.0000
  H   H36       1.0  0.23671041014983976  0.8845374698482615  0.3124104643926274  1.0000
  H   H37       1.0  0.6507408330851944  0.3957341916484935  0.46349190809922886  1.0000
  H   H38       1.0  0.1507446222540096  0.6042698494629735  0.5365163283853036  1.0000
  H   H39       1.0  0.6401993542856843  0.09563660996547436  0.9884459980424508  1.0000
  H   H40       1.0  0.1401970246713091  0.9043658051525868  0.0115643412578876  1.0000
  C   C1        1.0  0.6429573366613753  0.576762440492516  0.41275403281029804  1.0000
  C   C2        1.0  0.1429649522663254  0.42323995084768745  0.5872493672504575  1.0000
  C   C3        1.0  0.6378848990740807  0.6214938444640269  0.6024282651692656  1.0000
  C   C4        1.0  0.13788723701519956  0.37851197578778784  0.39757674391473324  1.0000
  C   C5        1.0  0.2797543703743131  0.21949594140517803  0.22030158604788141  1.0000
  C   C6        1.0  0.7797508916944765  0.7805079906903245  0.7797021544603453  1.0000
  C   C7        1.0  0.12193475686379433  0.1810471623775669  0.17809617775670009  1.0000
  C   C8        1.0  0.6219313076222548  0.8189598856925926  0.8219039905577857  1.0000
  C   C9        1.0  0.2618728388257523  0.2868096134032072  0.2855951800984542  1.0000
  C   C10       1.0  0.7618743212524635  0.7131963709438196  0.714409596635832  1.0000
  C   C11       1.0  0.1237015455389283  0.3003791086464105  0.33883513350963307  1.0000
  C   C12       1.0  0.6237124813200836  0.699625368478202  0.6611676967372233  1.0000
  C   C13       1.0  0.9658243737075835  0.3763557672106757  0.6807990628502052  1.0000
  C   C14       1.0  0.4658270690883414  0.6236296584498078  0.3191916724677951  1.0000
  C   C15       1.0  0.13848499208065593  0.37540104460900636  0.6380088006276096  1.0000
  C   C16       1.0  0.6384928789285595  0.6245882169383066  0.3619849005802962  1.0000
  C   C17       1.0  0.30424216231550366  0.3267286959599289  0.6425614237756464  1.0000
  C   C18       1.0  0.8042511723732062  0.6732574028758196  0.35743052571053374  1.0000
  C   C19       1.0  0.3014330069730349  0.2771893174820903  0.6871774741347635  1.0000
  C   C20       1.0  0.8014591531911749  0.7227897813108158  0.31280748503557015  1.0000
  C   C21       1.0  0.13395814330465328  0.2826692236682788  0.734473622295404  1.0000
  C   C22       1.0  0.6339714450557778  0.717313213942468  0.2655136196538166  1.0000
  C   C23       1.0  0.9684313779454996  0.333878360454861  0.7324027089240203  1.0000
  C   C24       1.0  0.4684434120511298  0.6661036294395546  0.2675864113523048  1.0000
  C   C25       1.0  0.4588853724372441  0.22052281943102509  0.6865380486610206  1.0000
  C   C26       1.0  0.9589023734821324  0.7794637470722066  0.3134526759688256  1.0000
  C   C27       1.0  0.455409366860991  0.17126573611243856  0.7295463252065132  1.0000
  C   C28       1.0  0.9554194354792002  0.8287231036114805  0.2704460060975578  1.0000
  C   C29       1.0  0.291947654164801  0.17930808588566544  0.7801705019056939  1.0000
  C   C30       1.0  0.7919583161888114  0.820673737383082  0.21982086041177953  1.0000
  C   C31       1.0  0.1319468565637365  0.2360575472127096  0.7834145194047081  1.0000
  C   C32       1.0  0.6319470563039149  0.7639258640119949  0.216572188593922  1.0000
  C   C33       1.0  0.9725449736155057  0.245256468278825  0.8351879292543529  1.0000
  C   C34       1.0  0.47253814860575016  0.7547309345258455  0.16480176442986758  1.0000
  C   C35       1.0  0.8068345063458581  0.2976311140464176  0.8297704523427072  1.0000
  C   C36       1.0  0.3068370170357824  0.7023590150919932  0.1702231280149675  1.0000
  C   C37       1.0  0.8053670082040157  0.33919409891655056  0.7802461639164733  1.0000
  C   C38       1.0  0.3053646888830883  0.6607962817520344  0.21974474275712907  1.0000
  C   C39       1.0  0.2851209399731616  0.13272664547389462  0.8272084011952002  1.0000
  C   C40       1.0  0.7851335791512426  0.8672637477053726  0.17278779934218136  1.0000
  C   C41       1.0  0.1324100165549496  0.14271785901953385  0.8782486146169929  1.0000
  C   C42       1.0  0.6324111535299012  0.8572721780479429  0.12175255612222458  1.0000
  C   C43       1.0  0.9787992651116327  0.20126004989721485  0.8860043994155902  1.0000
  C   C44       1.0  0.4788003218178929  0.7987298714846389  0.11398585732096929  1.0000
  C   C45       1.0  0.6393548070020428  0.8866793787403537  0.8893850747767401  1.0000
  C   C46       1.0  0.1393631765091641  0.113328079622022  0.11061620664779777  1.0000
  C   C47       1.0  0.6370207181867471  0.9137483837828954  0.07727270707894009  1.0000
  C   C48       1.0  0.1370188319204786  0.08624540212213815  0.9227258235701611  1.0000
  C   C49       1.0  0.8376777416266064  0.21987879850099284  0.9493600764456074  1.0000
  C   C50       1.0  0.3376729327371919  0.7801150777433038  0.05063413326725909  1.0000
  C   C51       1.0  0.9579402193812497  0.24460058536828203  0.3458203421473698  1.0000
  C   C52       1.0  0.4579659175995304  0.7554060940094445  0.6541785029139077  1.0000
  C   C53       1.0  0.6198431797549517  0.11036091243779106  0.7255404737670617  1.0000
  C   C54       1.0  0.11985474372987431  0.889629925362357  0.2744579993131707  1.0000
  O   O1        1.0  0.47137997223011036  0.5910258220384961  0.5740270957761452  1.0000
  O   O2        1.0  0.9713865130655889  0.40898306553408764  0.4259782053132851  1.0000
  O   O3        1.0  0.8101616816140691  0.5641143007197941  0.43910214930684077  1.0000
  O   O4        1.0  0.3101632123533592  0.43589391999208255  0.560903825310717  1.0000
  O   O5        1.0  0.8110391006996381  0.5906277034142065  0.5831959844088316  1.0000
  O   O6        1.0  0.3110349372239298  0.409378486555795  0.4168142557478162  1.0000
  O   O7        1.0  0.9713323346076804  0.4489862634486598  0.5715968924909943  1.0000
  O   O8        1.0  0.4713257698756976  0.5510149769394772  0.4284046272296819  1.0000
  O   O9        1.0  0.6436804288106046  0.4510688831872187  0.4951588043110462  1.0000
  O   O10       1.0  0.1436929571674028  0.5489347076616299  0.5048430010891565  1.0000
  O   O11       1.0  0.8088087576648633  0.9345045428652343  0.05931540273401481  1.0000
  O   O12       1.0  0.3088171558398543  0.06549497900449087  0.9406819730615296  1.0000
  O   O13       1.0  0.4665618734065262  0.9125621589026238  0.9170863275731878  1.0000
  O   O14       1.0  0.9665737830525174  0.08744200592320078  0.0829135934529504  1.0000
  O   O15       1.0  0.4690052550915667  0.9392522113364096  0.0615258183077785  1.0000
  O   O16       1.0  0.9689939848805623  0.06074630314533628  0.9384762153715726  1.0000
  O   O17       1.0  0.30969949303401023  0.0873181764900863  0.0848259698090246  1.0000
  O   O18       1.0  0.8096876068803953  0.9126894628517165  0.9151800005393156  1.0000
  O   O19       1.0  0.6391306088415618  0.0486627136956344  0.005790094470370401  1.0000
  O   O20       1.0  0.13912675667698693  0.9513384694908924  0.9942148926603238  1.0000
  O   O21       1.0  0.4735009952212934  0.19832201272878794  0.19731093883905967  1.0000
  O   O22       1.0  0.9734923370681088  0.8016826708306227  0.8027007562700489  1.0000
  O   O23       1.0  0.6427494913787726  0.3007026340763018  0.87294544984762  1.0000
  O   O24       1.0  0.1427422853043581  0.6992975111216425  0.127054731831727  1.0000
  O   O25       1.0  0.9274551102790554  0.2065547392081939  0.19442735839715647  1.0000
  O   O26       1.0  0.4274462445400217  0.7934550112431681  0.8055687576679985  1.0000
  O   O27       1.0  0.7963746378501427  0.41742486737668844  0.6758378975950663  1.0000
  O   O28       1.0  0.2963764013597299  0.5825657753622124  0.3241572630109246  1.0000
