data_image0
_chemical_formula_structural       Gd4H24C24S4N4O32
_chemical_formula_sum              "Gd4 H24 C24 S4 N4 O32"
_cell_length_a       6.388214047604602
_cell_length_b       7.697921068804832
_cell_length_c       20.335015719073116
_cell_angle_alpha    90.00027678654128
_cell_angle_beta     89.99979721975346
_cell_angle_gamma    106.10638391659326

_space_group_name_H-M_alt    "P 1"
_space_group_IT_number       1

loop_
  _space_group_symop_operation_xyz
  'x, y, z'

loop_
  _atom_site_type_symbol
  _atom_site_label
  _atom_site_symmetry_multiplicity
  _atom_site_fract_x
  _atom_site_fract_y
  _atom_site_fract_z
  _atom_site_occupancy
  Gd  Gd1       1.0  0.6920676333730782  0.1492779321858322  0.4292480094690418  1.0000
  Gd  Gd2       1.0  0.8079335877802906  0.8507266007743083  0.9292477081791688  1.0000
  Gd  Gd3       1.0  0.3079343037293896  0.8507250747279116  0.5707525636819355  1.0000
  Gd  Gd4       1.0  0.19205914811486477  0.14927240126536387  0.07075434026099  1.0000
  H   H1        1.0  0.438216413598866  0.5165284516493074  0.3327292577349112  1.0000
  H   H2        1.0  0.061791864415098985  0.48347992677886253  0.8327285566605411  1.0000
  H   H3        1.0  0.5617972144023753  0.4834812540411448  0.667270823653162  1.0000
  H   H4        1.0  0.9382074595245129  0.5165109010803945  0.16727152471816  1.0000
  H   H5        1.0  0.3609601725353997  0.3079979770952477  0.23477983709551611  1.0000
  H   H6        1.0  0.13904602849289194  0.6920147628078793  0.7347784483817605  1.0000
  H   H7        1.0  0.6390483058600581  0.6920104073376124  0.7652207360567687  1.0000
  H   H8        1.0  0.8609535891239871  0.3079814836799102  0.2652231082894971  1.0000
  H   H9        1.0  0.5848285944813156  0.9655828700803469  0.1962094075034457  1.0000
  H   H10       1.0  0.9151664387782149  0.03442321677890451  0.6962099554042851  1.0000
  H   H11       1.0  0.4151657033295849  0.0344161216650605  0.8037891985977126  1.0000
  H   H12       1.0  0.08483317884622471  0.9655730296980638  0.3037896342166135  1.0000
  H   H13       1.0  0.49617883387535494  0.7377150260188683  0.10359707486590251  1.0000
  H   H14       1.0  0.003825422211924889  0.26229222457814666  0.6035994758675329  1.0000
  H   H15       1.0  0.5038224691324587  0.26229069532110577  0.8963995641871848  1.0000
  H   H16       1.0  0.9961777831044502  0.7377053534479786  0.39640257256555606  1.0000
  H   H17       1.0  0.6087229909587747  0.31114528078667547  0.5562119605373185  1.0000
  H   H18       1.0  0.8912737528517596  0.6888565512974766  0.05621253643193571  1.0000
  H   H19       1.0  0.3912798739383092  0.6888604302969057  0.4437881208530285  1.0000
  H   H20       1.0  0.10872569455358415  0.3111437617217588  0.9437885284805391  1.0000
  H   H21       1.0  0.7468439631287113  0.48550182625553606  0.5145297548257304  1.0000
  H   H22       1.0  0.7531562249784755  0.5144995266723598  0.014531147864936098  1.0000
  H   H23       1.0  0.25315843787390685  0.5145025327390725  0.48546983480104444  1.0000
  H   H24       1.0  0.24684322242497805  0.4855007863495757  0.9854704088101371  1.0000
  C   C1        1.0  0.5686275239373374  0.8936171462471949  0.3267157656624775  1.0000
  C   C2        1.0  0.931374021677641  0.10638490653047232  0.8267188860061481  1.0000
  C   C3        1.0  0.4313769028679317  0.10638855455295018  0.6732828404392279  1.0000
  C   C4        1.0  0.0686201526561874  0.8936046000711998  0.1732816871367717  1.0000
  C   C5        1.0  0.5187023662275364  0.7597147940720747  0.2719465958923308  1.0000
  C   C6        1.0  0.9812996005223626  0.24028665608506838  0.771945971777086  1.0000
  C   C7        1.0  0.4812984728744638  0.24028957519515612  0.7280525019727264  1.0000
  C   C8        1.0  0.01869596550433524  0.7597069067700133  0.2280536178435923  1.0000
  C   C9        1.0  0.4546812205327201  0.573208281245087  0.2832412639501882  1.0000
  C   C10       1.0  0.045332587593314586  0.4268008739574399  0.7832419527434737  1.0000
  C   C11       1.0  0.5453263300775717  0.42679739900440683  0.7167573421497764  1.0000
  C   C12       1.0  0.95466546812672  0.5731953827975644  0.2167581286408833  1.0000
  C   C13       1.0  0.41187343120947173  0.4546711030932969  0.23055373533970416  1.0000
  C   C14       1.0  0.08814280782766554  0.5453388142272216  0.7305550853061149  1.0000
  C   C15       1.0  0.5881403670165355  0.545334536046781  0.7694433954690112  1.0000
  C   C16       1.0  0.911860567704025  0.4546546972620432  0.269446471360574  1.0000
  C   C17       1.0  0.5370743645332041  0.8216656754202133  0.20695677374406776  1.0000
  C   C18       1.0  0.9629249781078713  0.1783350802502355  0.7069590072581065  1.0000
  C   C19       1.0  0.462927108682358  0.17833597939372942  0.7930413405929784  1.0000
  C   C20       1.0  0.03707527362068666  0.8216584517869806  0.2930420576477317  1.0000
  C   C21       1.0  0.4908930886469705  0.7009567276401469  0.155319158137992  1.0000
  C   C22       1.0  0.009105790358148557  0.29904570423700244  0.6553216204750072  1.0000
  C   C23       1.0  0.5091004048558504  0.29904904506563657  0.8446755138690847  1.0000
  C   C24       1.0  0.9908928994622244  0.7009478380836499  0.3446809197194725  1.0000
  S   S1        1.0  0.21380232315308942  0.16766426520440095  0.4428106102253082  1.0000
  S   S2        1.0  0.28618936594280325  0.8323359420071127  0.9428117745791483  1.0000
  S   S3        1.0  0.7861991500568025  0.8323373896176633  0.5571889793995126  1.0000
  S   S4        1.0  0.7138002461548966  0.1676630805723889  0.0571883068123853  1.0000
  N   N1        1.0  0.4297358488042065  0.5198180544392058  0.1677916009251561  1.0000
  N   N2        1.0  0.07026744979331308  0.48018855037610564  0.6677943268353773  1.0000
  N   N3        1.0  0.570265918090513  0.4801890190005693  0.8322074969418551  1.0000
  N   N4        1.0  0.9297352916323691  0.5198076755556258  0.3322062463089637  1.0000
  O   O1        1.0  0.544148171694296  0.8392748614549036  0.3865130769372058  1.0000
  O   O2        1.0  0.9558526204574209  0.1607224306223003  0.8865157778304464  1.0000
  O   O3        1.0  0.4558553273106867  0.16072813518351842  0.6134874962129048  1.0000
  O   O4        1.0  0.044141383662981974  0.8392711425135105  0.1134847953162819  1.0000
  O   O5        1.0  0.6379437906108266  0.0614247126979706  0.3133100107835034  1.0000
  O   O6        1.0  0.8620558322968748  0.9385758507504391  0.8133093186084538  1.0000
  O   O7        1.0  0.36205236278363634  0.9385796873952402  0.6866890870841615  1.0000
  O   O8        1.0  0.1379363162305154  0.06141231405110399  0.1866932215847186  1.0000
  O   O9        1.0  0.3912890598369927  0.4093057859903482  0.117602231201019  1.0000
  O   O10       1.0  0.10871542899708687  0.5906934856225022  0.6176031496075751  1.0000
  O   O11       1.0  0.6087195887737736  0.5906985319056588  0.8823978501848657  1.0000
  O   O12       1.0  0.8912871422132796  0.40930680684608234  0.3823979153031658  1.0000
  O   O13       1.0  0.15190250829536467  0.2880285746909195  0.49054713243337034  1.0000
  O   O14       1.0  0.34809147366574683  0.711970785102338  0.9905475169016995  1.0000
  O   O15       1.0  0.8480960113191501  0.7119690341530646  0.5094534407145588  1.0000
  O   O16       1.0  0.6519053138347248  0.2880309005484066  0.0094525644883205  1.0000
  O   O17       1.0  0.0144043955873485  0.06282788835598302  0.40776270450746216  1.0000
  O   O18       1.0  0.4855825836150061  0.9371665454260454  0.9077603983612262  1.0000
  O   O19       1.0  0.9856003716466618  0.9371696793731701  0.5922354098240348  1.0000
  O   O20       1.0  0.514400316991413  0.06283116614684299  0.0922357489320902  1.0000
  O   O21       1.0  0.3854254454270389  0.26352624583194034  0.39554828423812444  1.0000
  O   O22       1.0  0.11456458126460224  0.7364720995712374  0.895550937831814  1.0000
  O   O23       1.0  0.6145780535779438  0.7364767508064819  0.604452288911979  1.0000
  O   O24       1.0  0.8854200514312822  0.2635215352300619  0.10445209413308021  1.0000
  O   O25       1.0  0.31691818885781237  0.03567997223730399  0.4767558209130841  1.0000
  O   O26       1.0  0.18307931662838678  0.9643246338925168  0.9767573400330747  1.0000
  O   O27       1.0  0.6830837482446627  0.9643230346764399  0.5232447522378934  1.0000
  O   O28       1.0  0.8169123212606239  0.035675730508756893  0.0232447084089387  1.0000
  O   O29       1.0  0.6933218971079003  0.35115456509178244  0.51559236053685  1.0000
  O   O30       1.0  0.8066740610226901  0.6488481824326372  0.0155924647841275  1.0000
  O   O31       1.0  0.3066847257039953  0.6488484109932813  0.4844077208489281  1.0000
  O   O32       1.0  0.19332272647399415  0.3511535032235217  0.9844086001310686  1.0000
