data_image0
_chemical_formula_structural       Zn2H40C70N2Cl24O8
_chemical_formula_sum              "Zn2 H40 C70 N2 Cl24 O8"
_cell_length_a       15.11933490902425
_cell_length_b       18.859263627328147
_cell_length_c       19.04051502359378
_cell_angle_alpha    91.11480779538081
_cell_angle_beta     92.82900472116368
_cell_angle_gamma    92.27095263921335

_space_group_name_H-M_alt    "P 1"
_space_group_IT_number       1

loop_
  _space_group_symop_operation_xyz
  'x, y, z'

loop_
  _atom_site_type_symbol
  _atom_site_label
  _atom_site_symmetry_multiplicity
  _atom_site_fract_x
  _atom_site_fract_y
  _atom_site_fract_z
  _atom_site_occupancy
  Zn  Zn1       1.0  0.5001928926610546  0.4164435544937817  0.5018832898941525  1.0000
  Zn  Zn2       1.0  0.5005675936829875  0.5850367194783388  0.4978303938390454  1.0000
  H   H1        1.0  0.05907051096418311  0.42751843801921996  0.7219742404007262  1.0000
  H   H2        1.0  0.16513363269580592  0.4365129399651549  0.6861383835313077  1.0000
  H   H3        1.0  0.1515134596000465  0.46272271773209167  0.7747081983293496  1.0000
  H   H4        1.0  0.15617889861490405  0.57259416727549  0.706104438223285  1.0000
  H   H5        1.0  0.05025429623970721  0.5560267500263336  0.7369569342703883  1.0000
  H   H6        1.0  0.9620291542731751  0.42665305773130763  0.2287233819506795  1.0000
  H   H7        1.0  0.8658446886071974  0.3914198126481878  0.2670662624309159  1.0000
  H   H8        1.0  0.855449029747767  0.4514465637481351  0.19653447799790763  1.0000
  H   H9        1.0  0.8306580953880174  0.5165994729470781  0.30692305721728985  1.0000
  H   H10       1.0  0.9280692296540352  0.549085555032967  0.2728668504450411  1.0000
  H   H11       1.0  0.9347795249817497  0.6966650912510345  0.6040729781245417  1.0000
  H   H12       1.0  0.8292409858798779  0.651999737641816  0.599896229284056  1.0000
  H   H13       1.0  0.8626485078084656  0.70597111910417  0.6744969199895152  1.0000
  H   H14       1.0  0.8807958421517487  0.580045593555063  0.7067855849371156  1.0000
  H   H15       1.0  0.9832884245965233  0.6270868373328041  0.7062301900130592  1.0000
  H   H16       1.0  0.12309241104203751  0.6192571108641971  0.3349263955456365  1.0000
  H   H17       1.0  0.21125884005817855  0.5620993992802285  0.3537310233028421  1.0000
  H   H18       1.0  0.1868089071324235  0.586926981049217  0.2659049421370767  1.0000
  H   H19       1.0  0.1265080234746705  0.46336313544699703  0.2835515790744125  1.0000
  H   H20       1.0  0.0439181978110454  0.5218217510357873  0.2607693285236934  1.0000
  H   H21       1.0  0.5206645180758045  0.3169653240848477  0.3359309926330241  1.0000
  H   H22       1.0  0.462184357613424  0.2340162685995466  0.317671099592836  1.0000
  H   H23       1.0  0.41651365183700056  0.314554924496889  0.2886823812716557  1.0000
  H   H24       1.0  0.339602787591204  0.27574879583671225  0.39474899893886567  1.0000
  H   H25       1.0  0.4010941071705291  0.35535467163191475  0.4128234506640567  1.0000
  H   H26       1.0  0.6488068794599402  0.7538791703143701  0.6720343701035743  1.0000
  H   H27       1.0  0.5769406052782743  0.6767672154307078  0.6655535649877962  1.0000
  H   H28       1.0  0.6934892654933623  0.6681217216994496  0.674305552085336  1.0000
  H   H29       1.0  0.6445555421272645  0.6417444039421625  0.5511933568605158  1.0000
  H   H30       1.0  0.7097609458081992  0.7211179114688662  0.555736343841012  1.0000
  H   H31       1.0  0.5423571196367125  0.2889829194481734  0.6996104132721541  1.0000
  H   H32       1.0  0.6453381364478477  0.24691740917071303  0.6984463467761515  1.0000
  H   H33       1.0  0.6423914591660778  0.33867259386867943  0.7194812361233999  1.0000
  H   H34       1.0  0.6884362121711334  0.3167754452293678  0.5944460366398516  1.0000
  H   H35       1.0  0.5987568439745562  0.3714968010330395  0.6036649444840521  1.0000
  H   H36       1.0  0.3708313700934412  0.7499680680277763  0.3238599365532195  1.0000
  H   H37       1.0  0.436474689389975  0.6733074450832747  0.3284483019869811  1.0000
  H   H38       1.0  0.31941100365470027  0.6636798567236752  0.31615153055043516  1.0000
  H   H39       1.0  0.36224690083751926  0.6373429227184103  0.4394933426921596  1.0000
  H   H40       1.0  0.3015280685270199  0.7149259147257607  0.4363485488258831  1.0000
  C   C1        1.0  0.4860415100794598  0.5214446469199031  0.6311780258184356  1.0000
  C   C2        1.0  0.5103380669717695  0.5159267131706003  0.36478900454098806  1.0000
  C   C3        1.0  0.9648818937992804  0.5537069877364402  0.6194585355454832  1.0000
  C   C4        1.0  0.0409642204439109  0.49022271405847556  0.3679112677783394  1.0000
  C   C5        1.0  0.6137593098757181  0.5510838487082381  0.2692017127129631  1.0000
  C   C6        1.0  0.45936154664993734  0.4560714815529252  0.7447541844659539  1.0000
  C   C7        1.0  0.45631312696766474  0.5823168739169731  0.7497379954928646  1.0000
  C   C8        1.0  0.47181370897389746  0.4935459013141567  0.23516664146203675  1.0000
  C   C9        1.0  0.6363397204789721  0.5508138097969136  0.19841987801492417  1.0000
  C   C10       1.0  0.4796931646774213  0.45495327741107877  0.8171152811880376  1.0000
  C   C11       1.0  0.4702123813336813  0.5801935221068532  0.8231103089949201  1.0000
  C   C12       1.0  0.49216606760309406  0.49724344101444024  0.16427404666181633  1.0000
  C   C13       1.0  0.5753625778032047  0.5247596329879086  0.14535713433597408  1.0000
  C   C14       1.0  0.5092158637748625  0.5194304111150316  0.8548700409997778  1.0000
  C   C15       1.0  0.5330475375938165  0.5192192997603441  0.2881050256798828  1.0000
  C   C16       1.0  0.4663631139253681  0.5206796504848723  0.7078710553029237  1.0000
  C   C17       1.0  0.6080839416408993  0.46553008832104575  0.030689404815085187  1.0000
  C   C18       1.0  0.5830051651813195  0.5891975236089307  0.9584214493462967  1.0000
  C   C19       1.0  0.5968281216118501  0.463651968788632  0.9572884621459322  1.0000
  C   C20       1.0  0.5887697753605039  0.5909457562487361  0.032252504175204394  1.0000
  C   C21       1.0  0.5605382239720954  0.5233161185521098  0.9212728527386246  1.0000
  C   C22       1.0  0.5922285083213698  0.5276266242292776  0.06957713373662949  1.0000
  C   C23       1.0  0.4562339015483303  0.2634541909697745  0.45992906207685275  1.0000
  C   C24       1.0  0.5736249067888795  0.7360292477472611  0.5323820679835762  1.0000
  C   C25       1.0  0.5647336137139121  0.271375019135661  0.5547006453562202  1.0000
  C   C26       1.0  0.43801113775484185  0.7339021952807839  0.4638627978766579  1.0000
  C   C27       1.0  0.4534037646790809  0.1890485702980769  0.4632062838598685  1.0000
  C   C28       1.0  0.5766544002714369  0.8105926134620769  0.5331452596574664  1.0000
  C   C29       1.0  0.57226622767341  0.1972843257941221  0.5507144169951488  1.0000
  C   C30       1.0  0.4385480263922191  0.808496794069427  0.4667353931933818  1.0000
  C   C31       1.0  0.5134950721507536  0.15470412209604942  0.5075029087996228  1.0000
  C   C32       1.0  0.5084498639781927  0.8480933768459167  0.5010173234779172  1.0000
  C   C33       1.0  0.6687367906051592  0.4867032989450307  0.4979999221359534  1.0000
  C   C34       1.0  0.33083318863999284  0.4780421402663109  0.4995840448604553  1.0000
  C   C35       1.0  0.47005152531014727  0.0377118935970628  0.5578441149653911  1.0000
  C   C36       1.0  0.5557207100005499  0.9651830135865183  0.4525640405591815  1.0000
  C   C37       1.0  0.5584064273831048  0.039665962184621206  0.4548862398738648  1.0000
  C   C38       1.0  0.46826907512066646  0.9632110805553324  0.5560103446132914  1.0000
  C   C39       1.0  0.5106589262233713  0.9268075684548692  0.5031350764837939  1.0000
  C   C40       1.0  0.5149624249629811  0.0760977330666393  0.5071987302713197  1.0000
  C   C41       1.0  0.1777893537905229  0.4630797832486592  0.4418972309981157  1.0000
  C   C42       1.0  0.8177701454474829  0.5180818471802766  0.5567666792579685  1.0000
  C   C43       1.0  0.23090638841923558  0.48054908558311366  0.5021968460351189  1.0000
  C   C44       1.0  0.7686372093737006  0.4925862427142321  0.49687918165044204  1.0000
  C   C45       1.0  0.19219329124286588  0.5087890249528824  0.5611848177232588  1.0000
  C   C46       1.0  0.8122184157591196  0.4744041334816557  0.4364200539943113  1.0000
  C   C47       1.0  0.09888786860180693  0.5147455409411493  0.5643143781240383  1.0000
  C   C48       1.0  0.9043269712745501  0.4882669603158049  0.43152534331878906  1.0000
  C   C49       1.0  0.04840644945277011  0.5036980457992256  0.4983913946006879  1.0000
  C   C50       1.0  0.95399757249065  0.5079197231427272  0.4959027967045699  1.0000
  C   C51       1.0  0.08935434310657088  0.4837520349618173  0.4349227415233372  1.0000
  C   C52       1.0  0.9111930723622662  0.5281624004971661  0.5584336742494926  1.0000
  C   C53       1.0  0.053685000332109205  0.5373061783566229  0.6259602481261908  1.0000
  C   C54       1.0  0.949565154879693  0.48994549771262524  0.36598714980897995  1.0000
  C   C55       1.0  0.09720978920610429  0.5370812888856519  0.6996152162752836  1.0000
  C   C56       1.0  0.11980062692563823  0.4614738367997333  0.7214603362417336  1.0000
  C   C57       1.0  0.8980987891078986  0.5019167437457027  0.2970512489779935  1.0000
  C   C58       1.0  0.895373605131873  0.4392728912127595  0.24429632882780788  1.0000
  C   C59       1.0  0.9280491777727495  0.6051784564041326  0.6721043064996834  1.0000
  C   C60       1.0  0.8859871304337406  0.6683784139682202  0.6353442776729139  1.0000
  C   C61       1.0  0.09142030345429934  0.5088711510275062  0.3033109882905478  1.0000
  C   C62       1.0  0.15697955291688714  0.5727728398429833  0.31549462268993267  1.0000
  C   C63       1.0  0.407420332575235  0.29895407467048324  0.4007993382990094  1.0000
  C   C64       1.0  0.45480032068005743  0.2901582654376895  0.3316367360651427  1.0000
  C   C65       1.0  0.6457961899016527  0.6969903667134572  0.5700044459321205  1.0000
  C   C66       1.0  0.640719372174971  0.6995126684094115  0.6504725646027437  1.0000
  C   C67       1.0  0.6185777447079204  0.3166930273740078  0.6084906701803517  1.0000
  C   C68       1.0  0.6116136152351647  0.2956607928998736  0.6857106344929206  1.0000
  C   C69       1.0  0.3648964086711431  0.6926087658589282  0.42305180519011276  1.0000
  C   C70       1.0  0.37385285105021643  0.6955430270122206  0.34292307184969667  1.0000
  N   N1        1.0  0.5082120110894127  0.3022914361044897  0.5076587353810922  1.0000
  N   N2        1.0  0.5048236845539479  0.6998664936607212  0.49751038027766725  1.0000
  Cl  Cl1       1.0  0.22482292463644882  0.413224086561236  0.37704847934747926  1.0000
  Cl  Cl2       1.0  0.7572406110937352  0.5225187843584038  0.6323333927479666  1.0000
  Cl  Cl3       1.0  0.41644521054441713  0.08266440214868712  0.6213047943387551  1.0000
  Cl  Cl4       1.0  0.6069426784806853  0.9200695253453903  0.3878530335400825  1.0000
  Cl  Cl5       1.0  0.6143296287424322  0.0870558805050692  0.3937776336663461  1.0000
  Cl  Cl6       1.0  0.41390106118572595  0.9157691218550211  0.6179841509963708  1.0000
  Cl  Cl7       1.0  0.26805544939646353  0.5396872500359607  0.6272170415055811  1.0000
  Cl  Cl8       1.0  0.749988017059117  0.426216221662436  0.3714743001969865  1.0000
  Cl  Cl9       1.0  0.6841101349936027  0.5929351283594144  0.33180575588687583  1.0000
  Cl  Cl10      1.0  0.4133352059429073  0.3812609375963234  0.7024992896339839  1.0000
  Cl  Cl11      1.0  0.41905439427361574  0.6595948367151436  0.71448937373642  1.0000
  Cl  Cl12      1.0  0.3687574188316063  0.4626564465764814  0.2576198665687812  1.0000
  Cl  Cl13      1.0  0.7388928669135241  0.5827728756650075  0.1758083826908958  1.0000
  Cl  Cl14      1.0  0.4502897687511835  0.38003362726107076  0.8618014317382219  1.0000
  Cl  Cl15      1.0  0.42484274079852485  0.6447055169488466  0.8733656653659381  1.0000
  Cl  Cl16      1.0  0.41423388287100243  0.46963929222397394  0.0995148205328036  1.0000
  Cl  Cl17      1.0  0.640518502106396  0.3917910550874666  0.0753375023589129  1.0000
  Cl  Cl18      1.0  0.6146294326921905  0.6644313899959896  0.9154457665732422  1.0000
  Cl  Cl19      1.0  0.6401140324222822  0.3948721860771869  0.9117508035553142  1.0000
  Cl  Cl20      1.0  0.5876995419686326  0.6711587113889479  0.0765339779204908  1.0000
  Cl  Cl21      1.0  0.3780344625936607  0.13864903762162578  0.4103700578207067  1.0000
  Cl  Cl22      1.0  0.6657706639616524  0.8580970875521883  0.5734150073683039  1.0000
  Cl  Cl23      1.0  0.6560674493519656  0.15605796379966821  0.5968981018681774  1.0000
  Cl  Cl24      1.0  0.3521348759230279  0.8533444135219241  0.42807668476207533  1.0000
  O   O1        1.0  0.5062866951400694  0.46328600136277476  0.6031751740757157  1.0000
  O   O2        1.0  0.5006916991026175  0.5765516952404044  0.39305577011597137  1.0000
  O   O3        1.0  0.504551390480991  0.4558694035889559  0.3924630910058369  1.0000
  O   O4        1.0  0.4872810584679997  0.5814344825368636  0.6014437788853897  1.0000
  O   O5        1.0  0.6329208657986669  0.4248923214794829  0.4988996275493065  1.0000
  O   O6        1.0  0.3696739353683186  0.5368400617090003  0.4881672969177941  1.0000
  O   O7        1.0  0.36663312443509716  0.41860174137494965  0.5075860564447723  1.0000
  O   O8        1.0  0.6300546037214405  0.5450179131930567  0.49721540553158416  1.0000
