data_image0
_chemical_formula_structural       Cu12H36C48S12N24
_chemical_formula_sum              "Cu12 H36 C48 S12 N24"
_cell_length_a       7.7287620900180904
_cell_length_b       11.77989864701464
_cell_length_c       17.310176260026278
_cell_angle_alpha    89.99994302441634
_cell_angle_beta     90.00018987197589
_cell_angle_gamma    90.00016633181275

_space_group_name_H-M_alt    "P 1"
_space_group_IT_number       1

loop_
  _space_group_symop_operation_xyz
  'x, y, z'

loop_
  _atom_site_type_symbol
  _atom_site_label
  _atom_site_symmetry_multiplicity
  _atom_site_fract_x
  _atom_site_fract_y
  _atom_site_fract_z
  _atom_site_occupancy
  Cu  Cu1       1.0  0.9447497729579197  0.11609429993454509  0.14460518736047592  1.0000
  Cu  Cu2       1.0  0.0552462887237368  0.3839061202975529  0.6446062842185897  1.0000
  Cu  Cu3       1.0  0.5552500593974017  0.6160917921087902  0.8553929851640804  1.0000
  Cu  Cu4       1.0  0.44475503227052116  0.8839075934317934  0.3553944365099397  1.0000
  Cu  Cu5       1.0  0.17775732777111838  0.9412958533045456  0.2606233778844356  1.0000
  Cu  Cu6       1.0  0.822248347328937  0.5587011206976201  0.7606252458768382  1.0000
  Cu  Cu7       1.0  0.3222468419990818  0.44129558819330583  0.739375569997563  1.0000
  Cu  Cu8       1.0  0.6777512239792499  0.05870384796465091  0.2393746994973114  1.0000
  Cu  Cu9       1.0  0.9498445206801874  0.15926262623882081  0.3287413716393247  1.0000
  Cu  Cu10      1.0  0.050159390701182395  0.3407375313623292  0.8287419132563941  1.0000
  Cu  Cu11      1.0  0.5501568019092031  0.6592595227162549  0.6712585040603473  1.0000
  Cu  Cu12      1.0  0.44984302780226665  0.8407392765522843  0.17125941507867995  1.0000
  H   H1        1.0  0.4717942598635503  0.5311050220569485  0.21589108858506736  1.0000
  H   H2        1.0  0.528209786028448  0.9688962602687142  0.7158881977885088  1.0000
  H   H3        1.0  0.028206750196360996  0.031101602079381497  0.7841104542911737  1.0000
  H   H4        1.0  0.9717916511626754  0.46889437465019784  0.2841195510978025  1.0000
  H   H5        1.0  0.2349603978981065  0.3824184631641998  0.21725894808793816  1.0000
  H   H6        1.0  0.7650375022873063  0.11758440015513832  0.717256647621902  1.0000
  H   H7        1.0  0.2650409163241462  0.8824139006340561  0.7827440844529294  1.0000
  H   H8        1.0  0.7349662184681663  0.6175847396266506  0.28274441234638203  1.0000
  H   H9        1.0  0.329548202904796  0.17702968061612986  0.22595224090255075  1.0000
  H   H10       1.0  0.6704510563249855  0.32297317030352707  0.7259519703532149  1.0000
  H   H11       1.0  0.17044958931932544  0.6770275020860056  0.7740480454718368  1.0000
  H   H12       1.0  0.8295523047983122  0.8229694527674313  0.2740460588306206  1.0000
  H   H13       1.0  0.9462073394643012  0.8323197714936871  0.9245750455804399  1.0000
  H   H14       1.0  0.0537879198723488  0.6676820620742349  0.4245743409798167  1.0000
  H   H15       1.0  0.553787007128207  0.33232250311620964  0.07542759867735781  1.0000
  H   H16       1.0  0.44620853596633475  0.16768480701885843  0.5754236410892588  1.0000
  H   H17       1.0  0.12674588429155878  0.6537520990276491  0.9421768699155353  1.0000
  H   H18       1.0  0.8732365682919294  0.8462463138100207  0.4421726203701938  1.0000
  H   H19       1.0  0.3732505081984455  0.15375374936614616  0.057825743364709616  1.0000
  H   H20       1.0  0.6267500784172525  0.3462518880716133  0.557822504198171  1.0000
  H   H21       1.0  0.34423921240853866  0.6543683912416824  0.0508221537899871  1.0000
  H   H22       1.0  0.6557506573796914  0.8456322776085586  0.5508206906236384  1.0000
  H   H23       1.0  0.1557584767311866  0.15436327415287823  0.9491787259819308  1.0000
  H   H24       1.0  0.8442463374946313  0.34563840947479474  0.44917732285190953  1.0000
  H   H25       1.0  0.5553363451571157  0.9636490928575016  0.8820679253759709  1.0000
  H   H26       1.0  0.4446637709909708  0.5363460101132207  0.38206846202155736  1.0000
  H   H27       1.0  0.9446624804235597  0.46365503418245185  0.11793347249785312  1.0000
  H   H28       1.0  0.05533596904164279  0.03634881971296271  0.6179296110509682  1.0000
  H   H29       1.0  0.7088972053515832  0.15315585381113553  0.868316292287318  1.0000
  H   H30       1.0  0.29110441494863437  0.3468357583027669  0.3683181219465936  1.0000
  H   H31       1.0  0.7911027956131419  0.653164152807058  0.13168243224900783  1.0000
  H   H32       1.0  0.20889414968740277  0.8468414941393406  0.631680313684548  1.0000
  H   H33       1.0  0.8556263742694697  0.23220327414189515  0.9873654201085604  1.0000
  H   H34       1.0  0.14436966914589536  0.26779326158546013  0.487368244993391  1.0000
  H   H35       1.0  0.644373986235557  0.7322046800749008  0.012630938879993904  1.0000
  H   H36       1.0  0.3556246543409499  0.7677951943511305  0.512631978488102  1.0000
  C   C1        1.0  0.7095485261152844  0.30187491207902184  0.22242044953691226  1.0000
  C   C2        1.0  0.29045070663118366  0.19812539716722455  0.722419708866447  1.0000
  C   C3        1.0  0.790454739042154  0.8018721017680263  0.7775781719601157  1.0000
  C   C4        1.0  0.20955494477078665  0.6981265458614417  0.2775811405904563  1.0000
  C   C5        1.0  0.5016293687481265  0.4405024013143759  0.2176554219537579  1.0000
  C   C6        1.0  0.49837370987754065  0.059497914732880006  0.7176533488153468  1.0000
  C   C7        1.0  0.998374526996102  0.9405016669326971  0.7823442588795333  1.0000
  C   C8        1.0  0.0016313109528027995  0.559496973892884  0.2823504851693742  1.0000
  C   C9        1.0  0.37095884492082826  0.3591823946884105  0.21898809648512704  1.0000
  C   C10       1.0  0.6290429498333764  0.1408196172637872  0.7189867361010513  1.0000
  C   C11       1.0  0.12904624520430727  0.8591792806651598  0.7810120636836403  1.0000
  C   C12       1.0  0.870963464345621  0.6408193620674113  0.2810137300751593  1.0000
  C   C13       1.0  0.42253478324487054  0.246448022553139  0.22376975374294267  1.0000
  C   C14       1.0  0.5774644596191935  0.2535556803844798  0.7237676620007465  1.0000
  C   C15       1.0  0.07746850021556638  0.7464414242497881  0.776232795317384  1.0000
  C   C16       1.0  0.9225411734882055  0.7535546785908097  0.276230992977169  1.0000
  C   C17       1.0  0.16845881897824458  0.9061742819078734  0.07611977380256722  1.0000
  C   C18       1.0  0.8315428852822675  0.5938271997715745  0.5761222087705633  1.0000
  C   C19       1.0  0.3315387216882256  0.40617122413041795  0.9238797761057074  1.0000
  C   C20       1.0  0.6684581396720404  0.09383049557538208  0.4238771345711784  1.0000
  C   C21       1.0  0.04165901584024569  0.8249368343650758  0.9707478034083722  1.0000
  C   C22       1.0  0.9583378835036668  0.6750657822492556  0.4707489963732031  1.0000
  C   C23       1.0  0.45834074304623573  0.32493528736457483  0.0292535358739912  1.0000
  C   C24       1.0  0.5416583355063834  0.17506784411391865  0.5292502906762737  1.0000
  C   C25       1.0  0.13938211081768512  0.7265871752967072  0.9804329635256508  1.0000
  C   C26       1.0  0.8606083917716632  0.7734120318843271  0.48043163441717956  1.0000
  C   C27       1.0  0.36061461297301617  0.22658631009675645  0.019569599289219804  1.0000
  C   C28       1.0  0.6393882745877446  0.27341683519809123  0.5195658514042094  1.0000
  C   C29       1.0  0.2586965311882423  0.7265242883107208  0.04046457484128042  1.0000
  C   C30       1.0  0.7412958486927436  0.7734755464108717  0.5404638646710043  1.0000
  C   C31       1.0  0.24130019230442198  0.2265210126194717  0.9595362549333899  1.0000
  C   C32       1.0  0.758699524087774  0.2734815051352726  0.4595330434101542  1.0000
  C   C33       1.0  0.6923255178183039  0.99625195484726  0.058819320351617  1.0000
  C   C34       1.0  0.3076682935345687  0.5037487025981805  0.558820472671357  1.0000
  C   C35       1.0  0.8076747499127847  0.4962513749227782  0.9411808995456781  1.0000
  C   C36       1.0  0.19232612274452518  0.0037486223022185003  0.44117820067940283  1.0000
  C   C37       1.0  0.618880099628761  0.0044176038520689  0.9311544595253881  1.0000
  C   C38       1.0  0.3811181101289449  0.49557646534285743  0.4311551625900877  1.0000
  C   C39       1.0  0.8811179309004658  0.5044227635050333  0.06884667884888532  1.0000
  C   C40       1.0  0.11888242494692489  0.9955804263595172  0.568842014592839  1.0000
  C   C41       1.0  0.7049380705428943  0.10788547256881034  0.9230211206535517  1.0000
  C   C42       1.0  0.2950652537216172  0.39210691042257656  0.4230240801356332  1.0000
  C   C43       1.0  0.7950617244956106  0.607893008017726  0.07697705755528973  1.0000
  C   C44       1.0  0.20493481070698039  0.8921110191486575  0.5769749018242365  1.0000
  C   C45       1.0  0.7864702282085219  0.1512254330358047  0.9881753257185296  1.0000
  C   C46       1.0  0.21352970288319276  0.34877110153992424  0.4881781957978363  1.0000
  C   C47       1.0  0.7135297639594069  0.651228665958307  0.011822244767373003  1.0000
  C   C48       1.0  0.28646757668547446  0.8487729074283978  0.5118219715773621  1.0000
  S   S1        1.0  0.9296613109603198  0.26491639384579463  0.22230623996791377  1.0000
  S   S2        1.0  0.070340508671471  0.23508476446890825  0.7223063066588082  1.0000
  S   S3        1.0  0.5703417860843841  0.7649131758788813  0.777692984832079  1.0000
  S   S4        1.0  0.4296627231127274  0.7350863204868006  0.27769451718750565  1.0000
  S   S5        1.0  0.1891460010570967  0.0175256909814081  0.14271733896783456  1.0000
  S   S6        1.0  0.8108500464677063  0.48247473194427243  0.6427171635602917  1.0000
  S   S7        1.0  0.31084847789148273  0.5175245025570946  0.857282480227184  1.0000
  S   S8        1.0  0.6891501585958293  0.9824765780913938  0.3572819104924392  1.0000
  S   S9        1.0  0.6989722935545684  0.9255611362037828  0.1482574915722239  1.0000
  S   S10       1.0  0.3010247759981866  0.574437695868653  0.6482591628728613  1.0000
  S   S11       1.0  0.801028946490092  0.42556067154364996  0.8517421996116427  1.0000
  S   S12       1.0  0.19897384343460794  0.07443860434792532  0.3517400391960025  1.0000
  N   N1        1.0  0.5905266961091085  0.21626710201072546  0.22577506612538664  1.0000
  N   N2        1.0  0.4094738556534097  0.2837340513560278  0.7257738627877189  1.0000
  N   N3        1.0  0.9094735919106327  0.7162645168247295  0.7742247700756766  1.0000
  N   N4        1.0  0.09053218514563349  0.7837324377785109  0.2742251942686806  1.0000
  N   N5        1.0  0.669766198344888  0.41245817187697764  0.2192944751554009  1.0000
  N   N6        1.0  0.3302355987006963  0.0875421418310367  0.7192927139920828  1.0000
  N   N7        1.0  0.8302323943585107  0.9124554307504129  0.780705802801059  1.0000
  N   N8        1.0  0.16976954969957347  0.5875432124092016  0.280711100560552  1.0000
  N   N9        1.0  0.056902591059277086  0.915102141168234  0.017361188530351505  1.0000
  N   N10       1.0  0.9430960849801194  0.5849002732226938  0.5173614823102426  1.0000
  N   N11       1.0  0.44309499023010085  0.41510175281462847  0.9826400882756307  1.0000
  N   N12       1.0  0.5569036054931331  0.08490158088887513  0.4826372895216906  1.0000
  N   N13       1.0  0.2743850673146753  0.8155445589376669  0.08873904949094683  1.0000
  N   N14       1.0  0.7256115560563076  0.6844560558367409  0.5887378003290352  1.0000
  N   N15       1.0  0.22561723658621693  0.3155404741574658  0.9112640293865584  1.0000
  N   N16       1.0  0.7743859995390351  0.18445956574088038  0.41126148021451314  1.0000
  N   N17       1.0  0.7829459914902017  0.09533427244036122  0.05598263933966761  1.0000
  N   N18       1.0  0.21704940583764903  0.40466372748416296  0.5559845365193326  1.0000
  N   N19       1.0  0.7170537464397456  0.5953344844665054  0.9440155475682279  1.0000
  N   N20       1.0  0.28294942183726585  0.9046656235726046  0.4440150144348111  1.0000
  N   N21       1.0  0.6103494397312871  0.9488187122479276  0.998761178873423  1.0000
  N   N22       1.0  0.3896476696021054  0.5511796198917622  0.49876220235142926  1.0000
  N   N23       1.0  0.8896493183762927  0.44882047365264555  0.0012390738878381004  1.0000
  N   N24       1.0  0.11035084403123818  0.05117930216928102  0.501236438138136  1.0000
