data_image0
_chemical_formula_structural       Ga4P6H22C24N4O24
_chemical_formula_sum              "Ga4 P6 H22 C24 N4 O24"
_cell_length_a       7.695742283443734
_cell_length_b       11.848895518778523
_cell_length_c       12.064026509662428
_cell_angle_alpha    113.92828474733464
_cell_angle_beta     102.06605452440026
_cell_angle_gamma    103.3307214450339

_space_group_name_H-M_alt    "P 1"
_space_group_IT_number       1

loop_
  _space_group_symop_operation_xyz
  'x, y, z'

loop_
  _atom_site_type_symbol
  _atom_site_label
  _atom_site_symmetry_multiplicity
  _atom_site_fract_x
  _atom_site_fract_y
  _atom_site_fract_z
  _atom_site_occupancy
  Ga  Ga1       1.0  0.8038018113183301  0.8258170327484606  0.47883886397476505  1.0000
  Ga  Ga2       1.0  0.19619800189384054  0.1741832173390989  0.5211601636245149  1.0000
  Ga  Ga3       1.0  0.6372312646044096  0.3806546619901497  0.36393407846433223  1.0000
  Ga  Ga4       1.0  0.36276538548293064  0.6193445912344658  0.6360657841360293  1.0000
  P   P1        1.0  0.9600234974330918  0.6787910111358287  0.6072295973460768  1.0000
  P   P2        1.0  0.03997448090616025  0.3212082475861139  0.39277127552458063  1.0000
  P   P3        1.0  0.18383594795153624  0.8888224373309088  0.4195258879518633  1.0000
  P   P4        1.0  0.8161638589007013  0.1111778131991485  0.580474796791762  1.0000
  P   P5        1.0  0.4352345251791476  0.5962244861532184  0.37605257296156924  1.0000
  P   P6        1.0  0.5647626188093255  0.40377575382468933  0.6239477483858095  1.0000
  H   H1        1.0  0.8043506947999008  0.6325170336119542  0.7215238388168288  1.0000
  H   H2        1.0  0.1956459584674023  0.36748221939141257  0.27847519521134956  1.0000
  H   H3        1.0  0.23817063229633836  0.8147808840956831  0.5639773705810924  1.0000
  H   H4        1.0  0.7618286870146991  0.18521837923858442  0.4360211982711632  1.0000
  H   H5        1.0  0.23818529781145512  0.678960106623201  0.29804204710891463  1.0000
  H   H6        1.0  0.7618159939241594  0.32104310394549174  0.7019591853036075  1.0000
  H   H7        1.0  0.9047315171172557  0.5813578270989553  0.30647573004578976  1.0000
  H   H8        1.0  0.09527094623881285  0.4186424344257561  0.6935269752384412  1.0000
  H   H9        1.0  0.9115716725057867  0.5994450893964469  0.10856549011202786  1.0000
  H   H10       1.0  0.0884316315609865  0.4005541904298013  0.8914361095511293  1.0000
  H   H11       1.0  0.6882432998995827  0.4131645854341031  0.8918630635599668  1.0000
  H   H12       1.0  0.3117609951494416  0.5868366676774813  0.1081386250250631  1.0000
  H   H13       1.0  0.43361568494973585  0.1823604610687823  0.766393705905166  1.0000
  H   H14       1.0  0.5663886164592215  0.8176407916002975  0.23360632553550428  1.0000
  H   H15       1.0  0.21857792930801173  0.9924490372539625  0.7678775744532302  1.0000
  H   H16       1.0  0.7814242063182848  0.007553191395011503  0.23212172376604198  1.0000
  H   H17       1.0  0.1115357116544119  0.8804545079689209  0.8979750484254793  1.0000
  H   H18       1.0  0.8884667644215227  0.11954575267078843  0.10202434257004707  1.0000
  H   H19       1.0  0.15329294634797486  0.8941006301300977  0.11584273928438901  1.0000
  H   H20       1.0  0.84670953290793  0.10589963028836281  0.8841558231389612  1.0000
  H   H21       1.0  0.37570171071304514  0.10075678537386068  0.3125553932713245  1.0000
  H   H22       1.0  0.6242962771661029  0.8992424726843352  0.687442993882804  1.0000
  C   C1        1.0  0.8086631353489937  0.5036789734239022  0.21189380531979643  1.0000
  C   C2        1.0  0.19133465281215228  0.49632520829110416  0.7881081693175459  1.0000
  C   C3        1.0  0.8114031968673105  0.5117087186785059  0.09917024878321709  1.0000
  C   C4        1.0  0.18859744751566865  0.48829055037433733  0.9008301589115105  1.0000
  C   C5        1.0  0.6884332232303408  0.4091364025805364  0.9805698465234087  1.0000
  C   C6        1.0  0.3115692433056907  0.5908638587229262  0.019432030188646397  1.0000
  C   C7        1.0  0.5621574414196645  0.2970525848139901  0.9744356114531028  1.0000
  C   C8        1.0  0.4378458658270787  0.7029466947910096  0.02556515963787824  1.0000
  C   C9        1.0  0.4328033411803176  0.18368557465993263  0.85701221566552  1.0000
  C   C10       1.0  0.5672017977593814  0.8163146965319259  0.14298753872625974  1.0000
  C   C11       1.0  0.3155900094271687  0.07814615364826241  0.8580764391354379  1.0000
  C   C12       1.0  0.6844129637298695  0.9218550935234906  0.1419225820349369  1.0000
  C   C13       1.0  0.319722061570026  0.07681435305916301  0.9768289959610428  1.0000
  C   C14       1.0  0.6802772577410112  0.9231849102751042  0.023169572891212898  1.0000
  C   C15       1.0  0.209831341861893  0.9689765922466621  0.9855524708631618  1.0000
  C   C16       1.0  0.7901679774491372  0.0310226710876051  0.014446097989093746  1.0000
  C   C17       1.0  0.23114232094663836  0.9762581103163869  0.10530952475036767  1.0000
  C   C18       1.0  0.7688591705069926  0.023740176595488504  0.894688120178941  1.0000
  C   C19       1.0  0.3558679086215477  0.09221920693687481  0.21720166200651644  1.0000
  C   C20       1.0  0.6441290914553265  0.9077780776147364  0.7827958076535636  1.0000
  C   C21       1.0  0.5674313385508256  0.2986147869099299  0.09295784825520306  1.0000
  C   C22       1.0  0.4325667964198915  0.7013874263533212  0.907042562014041  1.0000
  C   C23       1.0  0.4443124925464021  0.18856994320010764  0.09416798657650108  1.0000
  C   C24       1.0  0.5556846578020045  0.8114302963353031  0.9058306776265326  1.0000
  N   N1        1.0  0.6890080292017162  0.4006081253218526  0.2084073689363848  1.0000
  N   N2        1.0  0.31099094011977263  0.599393106685426  0.7915935928561381  1.0000
  N   N3        1.0  0.4563059926023243  0.19585487851175293  0.21088743615210595  1.0000
  N   N4        1.0  0.5436924891779642  0.8041453662997357  0.7891114097490473  1.0000
  O   O1        1.0  0.9646437420827286  0.8512532680734926  0.39100223412975776  1.0000
  O   O2        1.0  0.035355076967235305  0.1487450089499873  0.608997533119826  1.0000
  O   O3        1.0  0.9174620417353554  0.8036616310162831  0.6151992945482404  1.0000
  O   O4        1.0  0.08253495516155605  0.19633565375657724  0.384799003684023  1.0000
  O   O5        1.0  0.2699167793075291  0.03308791155627941  0.44620612638136936  1.0000
  O   O6        1.0  0.7300848496977611  0.9669133312244046  0.5537960273795832  1.0000
  O   O7        1.0  0.6014883691564208  0.6780214733411327  0.3536059767397857  1.0000
  O   O8        1.0  0.3985117813254251  0.3219768089584251  0.6463939722079174  1.0000
  O   O9        1.0  0.8229306066779432  0.5557837531723209  0.48514109458247395  1.0000
  O   O10       1.0  0.1770682091920578  0.44421452407240747  0.514859501239286  1.0000
  O   O11       1.0  0.1691667943576293  0.7052927309959643  0.6164560448593689  1.0000
  O   O12       1.0  0.8308306869005194  0.2947055411939346  0.38354519783644037  1.0000
  O   O13       1.0  0.4589852168577338  0.6671285527409624  0.5196858290135181  1.0000
  O   O14       1.0  0.5410132585626215  0.3328716925130238  0.48031467403198747  1.0000
  O   O15       1.0  0.4252117569673786  0.45158922043756883  0.32803092698140546  1.0000
  O   O16       1.0  0.5747817331750937  0.5484090357028606  0.6719689420478544  1.0000
  O   O17       1.0  0.9420498754998481  0.6731924619786798  0.7329268843520396  1.0000
  O   O18       1.0  0.057944949254469705  0.3268057992165652  0.267072337803171  1.0000
  O   O19       1.0  0.2810327361362114  0.8942522324388448  0.5517859840042475  1.0000
  O   O20       1.0  0.7189665799948558  0.10574703111667823  0.44821341342018417  1.0000
  O   O21       1.0  0.24652272847011159  0.5860925972862746  0.28738009478109205  1.0000
  O   O22       1.0  0.7534784193539111  0.4139076578561147  0.7126182859441315  1.0000
  O   O23       1.0  0.22342121467547563  0.796278986295661  0.30612468846662455  1.0000
  O   O24       1.0  0.7765767700237093  0.20372027198378356  0.6938745272596804  1.0000
