data_image0
_chemical_formula_structural       Cu2H30C36S4N6O10
_chemical_formula_sum              "Cu2 H30 C36 S4 N6 O10"
_cell_length_a       9.88944144292929
_cell_length_b       10.292551450178742
_cell_length_c       12.478059637384408
_cell_angle_alpha    73.40380906869933
_cell_angle_beta     68.75534194475898
_cell_angle_gamma    69.63453558443526

_space_group_name_H-M_alt    "P 1"
_space_group_IT_number       1

loop_
  _space_group_symop_operation_xyz
  'x, y, z'

loop_
  _atom_site_type_symbol
  _atom_site_label
  _atom_site_symmetry_multiplicity
  _atom_site_fract_x
  _atom_site_fract_y
  _atom_site_fract_z
  _atom_site_occupancy
  Cu  Cu1       1.0  0.9434063334599259  0.5017977633280211  0.3774752348572222  1.0000
  Cu  Cu2       1.0  0.05659334928663643  0.49819838226566304  0.6225197452754259  1.0000
  H   H1        1.0  0.28307288928670715  0.4158292989468038  0.32989892582227043  1.0000
  H   H2        1.0  0.7169284924178284  0.5841766523117472  0.670106707093872  1.0000
  H   H3        1.0  0.491238188724097  0.1911175363004816  0.2926131883954071  1.0000
  H   H4        1.0  0.5087675471765963  0.8088955763559086  0.7073821411978259  1.0000
  H   H5        1.0  0.4207138527453438  0.976412252385792  0.30272531030087896  1.0000
  H   H6        1.0  0.5792969899650515  0.02359464138928761  0.6972748941643873  1.0000
  H   H7        1.0  0.15245603024618487  0.9908831151459911  0.3408237432298264  1.0000
  H   H8        1.0  0.8475517171242045  0.009119747344655605  0.6591848025406578  1.0000
  H   H9        1.0  0.6173407660952677  0.5124588993974372  0.4182327959372855  1.0000
  H   H10       1.0  0.3826522253328974  0.4875341442716776  0.5817657387337791  1.0000
  H   H11       1.0  0.48115660141399985  0.3291827399116373  0.4538132306172856  1.0000
  H   H12       1.0  0.5188495409160226  0.6707988221355379  0.5461907412804268  1.0000
  H   H13       1.0  0.6355471571108922  0.08199227131020591  0.4315757727822103  1.0000
  H   H14       1.0  0.36446637684086625  0.9179978325270993  0.5684302801948748  1.0000
  H   H15       1.0  0.9158855328581625  0.0248624320007167  0.3794329861403867  1.0000
  H   H16       1.0  0.08412213475505581  0.9751329435041569  0.620572662565209  1.0000
  H   H17       1.0  0.19007507737795493  0.5378095512400947  0.1105406875255071  1.0000
  H   H18       1.0  0.8099271100858232  0.4621856504290136  0.8894586027866682  1.0000
  H   H19       1.0  0.857820762375745  0.6988756574292339  0.01456761217823314  1.0000
  H   H20       1.0  0.14217200568958788  0.3011259270894371  0.9854336429183875  1.0000
  H   H21       1.0  0.9654406254074456  0.6595141569520921  0.8710951654931453  1.0000
  H   H22       1.0  0.034562844756088396  0.340484275842698  0.12890613825840802  1.0000
  H   H23       1.0  0.9489484172896641  0.8223845322007864  0.9050682701640017  1.0000
  H   H24       1.0  0.05105258630641881  0.1776150061382467  0.0949350841393368  1.0000
  H   H25       1.0  0.3247423025116732  0.5978774427328304  0.9384325275276527  1.0000
  H   H26       1.0  0.6752527419935958  0.4021126761366389  0.061575759654239434  1.0000
  H   H27       1.0  0.23864588135950268  0.75374964422754  0.8520201948704058  1.0000
  H   H28       1.0  0.761353681479271  0.24624358784203082  0.14798517478134698  1.0000
  H   H29       1.0  0.2575461875687069  0.5841526518844377  0.8278558947270159  1.0000
  H   H30       1.0  0.7424466791829545  0.41583745805809974  0.17215223437175106  1.0000
  C   C1        1.0  0.8676800367795962  0.8357386747284893  0.26235513962580387  1.0000
  C   C2        1.0  0.1323111298487447  0.1642678154648962  0.7376309206287035  1.0000
  C   C3        1.0  0.015724272894217954  0.8059517091062675  0.25314177185450853  1.0000
  C   C4        1.0  0.984256989314524  0.19405904164440813  0.7468461298758344  1.0000
  C   C5        1.0  0.9859519091582527  0.968367403697691  0.05725503124307351  1.0000
  C   C6        1.0  0.014036921658927807  0.0316360024249889  0.9427348997161006  1.0000
  C   C7        1.0  0.742566082723357  0.7889278719522538  0.3618155422249956  1.0000
  C   C8        1.0  0.25742895093340923  0.21106935005627753  0.6381805352849027  1.0000
  C   C9        1.0  0.10111521030201226  0.7157173951146377  0.338326302865788  1.0000
  C   C10       1.0  0.898867498743826  0.2842925385639818  0.6616709980967174  1.0000
  C   C11       1.0  0.2608938773510872  0.320144559420129  0.327739853237894  1.0000
  C   C12       1.0  0.7391127679096242  0.6798653916448815  0.6722560062733295  1.0000
  C   C13       1.0  0.3742669758478243  0.19552925370327054  0.30837390745684706  1.0000
  C   C14       1.0  0.625746467643978  0.8044795086590641  0.6916162422117652  1.0000
  C   C15       1.0  0.3345937578958029  0.0762465714072533  0.31304273539220173  1.0000
  C   C16       1.0  0.6654195370758912  0.9237591562162207  0.6869530332470362  1.0000
  C   C17       1.0  0.18329604776268843  0.0848835225215936  0.3357184973566235  1.0000
  C   C18       1.0  0.8167132138966622  0.9151212141940661  0.6642803121213492  1.0000
  C   C19       1.0  0.07526171881714559  0.213545184795187  0.3530590090076445  1.0000
  C   C20       1.0  0.9247544813670314  0.7864542140077617  0.6469375009634248  1.0000
  C   C21       1.0  0.6774055406887243  0.4024497201794119  0.4125652690062224  1.0000
  C   C22       1.0  0.32259044524654  0.5975445220598701  0.5874384942443954  1.0000
  C   C23       1.0  0.6038190836232716  0.30164672507903834  0.42940320556505174  1.0000
  C   C24       1.0  0.3961795234793468  0.6983423230133498  0.5706043027437319  1.0000
  C   C25       1.0  0.6897226992840189  0.1636417154041823  0.4182601217491637  1.0000
  C   C26       1.0  0.3102843014068953  0.836348361652334  0.5817454569785384  1.0000
  C   C27       1.0  0.8460620239389839  0.13134130836431984  0.3901577357119805  1.0000
  C   C28       1.0  0.1539461239266656  0.86865616923037  0.6098472412108082  1.0000
  C   C29       1.0  0.9122307107610654  0.23668048948513132  0.3777454461018835  1.0000
  C   C30       1.0  0.08776918249896672  0.7633189534793702  0.6222542512485278  1.0000
  C   C31       1.0  0.07928994759439693  0.5813649580052456  0.09250378755011468  1.0000
  C   C32       1.0  0.9207051671306064  0.41863260744508324  0.9075058065138252  1.0000
  C   C33       1.0  0.9573542747970476  0.7101012930445522  0.9402989917887866  1.0000
  C   C34       1.0  0.042642681180524306  0.2898971937792894  0.05970501807905041  1.0000
  C   C35       1.0  0.2359315105083938  0.6449052425975309  0.8947085576498921  1.0000
  C   C36       1.0  0.7640661776967691  0.3550869266813167  0.10529683055806764  1.0000
  S   S1        1.0  0.8046373047524751  0.9593665492692697  0.14904334978493233  1.0000
  S   S2        1.0  0.19535468816678764  0.0406411709722718  0.850949371148829  1.0000
  S   S3        1.0  0.1267743684811151  0.8930969409988169  0.12882860350226363  1.0000
  S   S4        1.0  0.873211796249372  0.10691621252995283  0.8711700738913281  1.0000
  N   N1        1.0  0.115507791162436  0.32858414671947866  0.3488745830070812  1.0000
  N   N2        1.0  0.8844980052748211  0.6714173297411039  0.6511212598569786  1.0000
  N   N3        1.0  0.8272869327307574  0.3701647832438654  0.38894009643406247  1.0000
  N   N4        1.0  0.1727141682405744  0.6298304240630017  0.6110595123822621  1.0000
  N   N5        1.0  0.09053190581310837  0.6435301803863213  0.9805007049173116  1.0000
  N   N6        1.0  0.9094655256481801  0.35647038832487965  0.01950183807630873  1.0000
  O   O1        1.0  0.7645585079686937  0.6597106741449396  0.4159807999930651  1.0000
  O   O2        1.0  0.23544424281661938  0.3402822379744563  0.5840116877750391  1.0000
  O   O3        1.0  0.6196540025772349  0.8812377809165143  0.38542299502497473  1.0000
  O   O4        1.0  0.38034711270025673  0.11875748699773683  0.6145789990655929  1.0000
  O   O5        1.0  0.07275222979338027  0.5972185481629283  0.39587505782299104  1.0000
  O   O6        1.0  0.9272583341846642  0.40277286657914874  0.6040994752271374  1.0000
  O   O7        1.0  0.19935051764546324  0.7594976260539072  0.34648175740858284  1.0000
  O   O8        1.0  0.8006035483269897  0.24052975813276592  0.6535380115183572  1.0000
  O   O9        1.0  0.9594566146192207  0.5708747524325872  0.17018713663283358  1.0000
  O   O10       1.0  0.04055037191125877  0.4291343063882991  0.8298152602490279  1.0000
