data_image0
_chemical_formula_structural       Zn4H24C28Br8N16
_chemical_formula_sum              "Zn4 H24 C28 Br8 N16"
_cell_length_a       6.6119603772036655
_cell_length_b       8.641385202647077
_cell_length_c       18.563740452046375
_cell_angle_alpha    90.00018532614445
_cell_angle_beta     89.99978312936885
_cell_angle_gamma    102.40480429951721

_space_group_name_H-M_alt    "P 1"
_space_group_IT_number       1

loop_
  _space_group_symop_operation_xyz
  'x, y, z'

loop_
  _atom_site_type_symbol
  _atom_site_label
  _atom_site_symmetry_multiplicity
  _atom_site_fract_x
  _atom_site_fract_y
  _atom_site_fract_z
  _atom_site_occupancy
  Zn  Zn1       1.0  0.5991560421312839  0.3183288912486758  0.36025587314022545  1.0000
  Zn  Zn2       1.0  0.40085478388701284  0.1816723871762136  0.8602585934329952  1.0000
  Zn  Zn3       1.0  0.400846552336162  0.6816737778014212  0.6397452104777273  1.0000
  Zn  Zn4       1.0  0.5991420036653564  0.8183255000874751  0.1397441062391565  1.0000
  H   H1        1.0  0.2622131477837612  0.8919409399995357  0.4144083313209849  1.0000
  H   H2        1.0  0.7377894696366026  0.608064793093213  0.9144077779284955  1.0000
  H   H3        1.0  0.7377943100759405  0.10806295643446619  0.5855889815026742  1.0000
  H   H4        1.0  0.2621982201966019  0.39193300897090916  0.08559222832726482  1.0000
  H   H5        1.0  0.319241547573938  0.617643241605343  0.443082268704636  1.0000
  H   H6        1.0  0.6807687194841276  0.8823639115957035  0.9430795033261249  1.0000
  H   H7        1.0  0.6807680555817155  0.3823630386341249  0.5569182762265046  1.0000
  H   H8        1.0  0.31922200292830627  0.1176339188641577  0.056919964242986516  1.0000
  H   H9        1.0  0.032311066967828594  0.3847796948108453  0.4199409503055805  1.0000
  H   H10       1.0  0.9677039077315324  0.11523378783094529  0.9199406236585974  1.0000
  H   H11       1.0  0.9677006252210985  0.6152230594372767  0.5800622880442248  1.0000
  H   H12       1.0  0.032286298194136996  0.8847734926187983  0.0800577665487126  1.0000
  H   H13       1.0  0.6504774292276277  0.670791435304558  0.3397338301375329  1.0000
  H   H14       1.0  0.3495327258211133  0.8292056614638594  0.8397384543917141  1.0000
  H   H15       1.0  0.3495299723555049  0.3292065513418975  0.6602661761045499  1.0000
  H   H16       1.0  0.6504516169221688  0.1707909274057471  0.16026209055004872  1.0000
  H   H17       1.0  0.13151419170660716  0.020827426813461603  0.26978337603728164  1.0000
  H   H18       1.0  0.8684900883079859  0.47916853715827296  0.7697896467212005  1.0000
  H   H19       1.0  0.8684929516377763  0.9791752848248477  0.7302150141548154  1.0000
  H   H20       1.0  0.13150544121319288  0.5208246109025652  0.23021035952566396  1.0000
  H   H21       1.0  0.6702241028185864  0.9744565443204676  0.4314472363150372  1.0000
  H   H22       1.0  0.3297904422481749  0.5255434902267311  0.9314519824997449  1.0000
  H   H23       1.0  0.3297796371778218  0.025539044323430498  0.5685500765051543  1.0000
  H   H24       1.0  0.670200280171201  0.4744543402284976  0.06854586901575033  1.0000
  C   C1        1.0  0.14294124624601776  0.7853601459260062  0.4047712705249467  1.0000
  C   C2        1.0  0.8570647447799825  0.7146408353431895  0.9047717832197152  1.0000
  C   C3        1.0  0.8570646953205949  0.21464373631244635  0.5952271196688486  1.0000
  C   C4        1.0  0.14293052648856264  0.285357037718768  0.09522983908441061  1.0000
  C   C5        1.0  0.17328428965835482  0.6343635098881178  0.4205400513098425  1.0000
  C   C6        1.0  0.8267228802141559  0.8656482107373263  0.9205402888800975  1.0000
  C   C7        1.0  0.8267192483504214  0.3656427135521553  0.579458877571888  1.0000
  C   C8        1.0  0.17326695493582628  0.1343519751183635  0.0794581013222881  1.0000
  C   C9        1.0  0.012557891769269126  0.5042301933905262  0.4084078155533747  1.0000
  C   C10       1.0  0.9874572220138871  0.9957768037049487  0.9084080181739652  1.0000
  C   C11       1.0  0.9874589783156578  0.4957749730449023  0.5915932680563998  1.0000
  C   C12       1.0  0.012531411358331496  0.0042245527508839986  0.0915903720301117  1.0000
  C   C13       1.0  0.797498665222953  0.6630478614934107  0.36483642097761765  1.0000
  C   C14       1.0  0.2025055235367644  0.8369505071360662  0.864841262754702  1.0000
  C   C15       1.0  0.20250570378095736  0.33695009675730603  0.6351641239511069  1.0000
  C   C16       1.0  0.7974827953201352  0.16304966452407396  0.135158204817813  1.0000
  C   C17       1.0  0.9521431858810415  0.7980241904783014  0.37638311444706574  1.0000
  C   C18       1.0  0.04786090370008362  0.7019742443129643  0.8763847434401056  1.0000
  C   C19       1.0  0.04785694877513439  0.20197490997063744  0.6236158144318367  1.0000
  C   C20       1.0  0.9521273588918147  0.2980200175519129  0.12361472412812453  1.0000
  C   C21       1.0  0.008344061227170099  0.0477916300432923  0.3031242844180326  1.0000
  C   C22       1.0  0.9916696591261596  0.4522069797835114  0.8031298042125742  1.0000
  C   C23       1.0  0.9916597350296068  0.9522098683989525  0.6968741057755141  1.0000
  C   C24       1.0  0.008332250052589458  0.5477874098753047  0.1968718180843396  1.0000
  C   C25       1.0  0.7698994718413841  0.02137385487439049  0.3864614616398328  1.0000
  C   C26       1.0  0.23010898373462393  0.4786251899396063  0.8864670107484545  1.0000
  C   C27       1.0  0.2301030663749514  0.9786229043711926  0.6135363898665958  1.0000
  C   C28       1.0  0.7698982158446765  0.5213834315140247  0.1135383823469596  1.0000
  Br  Br1       1.0  0.36527464996824927  0.23226293763065797  0.45840752958788045  1.0000
  Br  Br2       1.0  0.6347310422618831  0.2677341356774576  0.9584084317962652  1.0000
  Br  Br3       1.0  0.6347294045272774  0.7677338358197332  0.5415924766556587  1.0000
  Br  Br4       1.0  0.36526694708213353  0.7322625809768295  0.0415910357669418  1.0000
  Br  Br5       1.0  0.44256873811215763  0.36673295744954965  0.250812557587139  1.0000
  Br  Br6       1.0  0.5574403100351758  0.13326885017488616  0.7508112166454666  1.0000
  Br  Br7       1.0  0.557435114381853  0.633274450806482  0.7491922968251857  1.0000
  Br  Br8       1.0  0.4425685515644772  0.8667232408795725  0.2491904056448959  1.0000
  N   N1        1.0  0.7784549466099474  0.15657401879726507  0.35224215781391893  1.0000
  N   N2        1.0  0.22155777904296767  0.34342841270508007  0.8522464436714756  1.0000
  N   N3        1.0  0.22155005141765818  0.8434263090494766  0.64775784843156  1.0000
  N   N4        1.0  0.7784462754571916  0.656568360742227  0.1477524852029788  1.0000
  N   N5        1.0  0.927988079587969  0.17410877137169214  0.299401960505648  1.0000
  N   N6        1.0  0.07202264016744657  0.325889788724723  0.7994069690893185  1.0000
  N   N7        1.0  0.07201691844195315  0.8258915564735005  0.7005975070552851  1.0000
  N   N8        1.0  0.9279808415693862  0.674110524924913  0.20059357584175075  1.0000
  N   N9        1.0  0.9137577605939096  0.9487859566689778  0.3571306662046254  1.0000
  N   N10       1.0  0.08625072871821973  0.5512112255972924  0.8571352528129382  1.0000
  N   N11       1.0  0.08624964099848137  0.05121202997130331  0.6428671852992949  1.0000
  N   N12       1.0  0.9137342430510741  0.44878773286679047  0.1428642147610404  1.0000
  N   N13       1.0  0.8276968743043722  0.5184968838832448  0.38158615112973143  1.0000
  N   N14       1.0  0.1723081141085813  0.9815051351237967  0.8815885534021959  1.0000
  N   N15       1.0  0.17231172904958916  0.4814999321677007  0.6184154711642691  1.0000
  N   N16       1.0  0.8276747686112527  0.018497349342432294  0.1184119915449031  1.0000
