data_image0
_chemical_formula_structural       Na2H26C12S2O18
_chemical_formula_sum              "Na2 H26 C12 S2 O18"
_cell_length_a       4.832360223816069
_cell_length_b       4.945003914471808
_cell_length_c       21.300777410736185
_cell_angle_alpha    90.00072772450913
_cell_angle_beta     95.19773343089219
_cell_angle_gamma    90.00151468739246

_space_group_name_H-M_alt    "P 1"
_space_group_IT_number       1

loop_
  _space_group_symop_operation_xyz
  'x, y, z'

loop_
  _atom_site_type_symbol
  _atom_site_label
  _atom_site_symmetry_multiplicity
  _atom_site_fract_x
  _atom_site_fract_y
  _atom_site_fract_z
  _atom_site_occupancy
  Na  Na1       1.0  0.26625716095909985  0.04561998028023588  0.948872366916895  1.0000
  Na  Na2       1.0  0.7337607221036108  0.5456133341402348  0.051129832227495314  1.0000
  H   H1        1.0  0.4030240669077898  0.6205308345698552  0.8252527413795079  1.0000
  H   H2        1.0  0.5969880905985221  0.12053451508191418  0.1747499544310003  1.0000
  H   H3        1.0  0.8627876705269699  0.5861177510292206  0.7776619013106726  1.0000
  H   H4        1.0  0.13721604441391833  0.08610639918772017  0.2223394004738566  1.0000
  H   H5        1.0  0.40732322351058764  0.19543526042193088  0.7251899188830323  1.0000
  H   H6        1.0  0.592670548085998  0.6954419017812794  0.27481024074243987  1.0000
  H   H7        1.0  0.8655018740185839  0.16244179281203225  0.6775457713071165  1.0000
  H   H8        1.0  0.13449604054391529  0.6624354215154468  0.32245367176099654  1.0000
  H   H9        1.0  0.3864652191337825  0.405326850756353  0.5915537385845014  1.0000
  H   H10       1.0  0.6135268272800403  0.905339665717534  0.408444486543914  1.0000
  H   H11       1.0  0.8298846896960937  0.35914387379113305  0.5388680192132399  1.0000
  H   H12       1.0  0.17010663182600183  0.8591506228047904  0.4611308756578652  1.0000
  H   H13       1.0  0.5562779428938356  0.1452067453443888  0.5072278172481361  1.0000
  H   H14       1.0  0.44370651307824  0.6452256025346371  0.4927724147704212  1.0000
  H   H15       1.0  0.2217027313323499  0.21245537597967254  0.8283828849616767  1.0000
  H   H16       1.0  0.7782940980629361  0.7124622040792656  0.17161630939265393  1.0000
  H   H17       1.0  0.829957370790467  0.05104498452048737  0.8232342786182087  1.0000
  H   H18       1.0  0.17002325307880284  0.5510275526810914  0.17676444346831494  1.0000
  H   H19       1.0  0.44856931674501516  0.7378186928370383  0.6825555490707914  1.0000
  H   H20       1.0  0.5514415678610192  0.2378288774235102  0.3174442375935129  1.0000
  H   H21       1.0  0.044996283547625596  0.5733040007332448  0.6742545971571304  1.0000
  H   H22       1.0  0.9550106067478552  0.07329832922851408  0.3257440005664237  1.0000
  H   H23       1.0  0.199773672806316  0.9963345755308095  0.5949684988847467  1.0000
  H   H24       1.0  0.8002095773095803  0.49634999736377944  0.4050315050782984  1.0000
  H   H25       1.0  0.8063857221667166  0.8234720439622122  0.5879659503963384  1.0000
  H   H26       1.0  0.1935972090760458  0.3234777164383685  0.4120334351935284  1.0000
  C   C1        1.0  0.5494727975733582  0.4535021954523443  0.8369140120210475  1.0000
  C   C2        1.0  0.45053272301214514  0.9535060042898631  0.16308609911948932  1.0000
  C   C3        1.0  0.7285512471399683  0.409067331731414  0.7821949291041649  1.0000
  C   C4        1.0  0.2714557011924654  0.9090632841427109  0.21780541089982822  1.0000
  C   C5        1.0  0.5423841832420777  0.37164437910629283  0.7202136293761543  1.0000
  C   C6        1.0  0.4576142675686797  0.8716470645109163  0.2797872075606236  1.0000
  C   C7        1.0  0.7152239487818974  0.3249141866015961  0.6644003548136582  1.0000
  C   C8        1.0  0.2847715690472441  0.8249112034906287  0.3355997081836933  1.0000
  C   C9        1.0  0.5337887736260001  0.23959261342456262  0.6049234848772329  1.0000
  C   C10       1.0  0.4662055337456509  0.7395979266794015  0.39507507207647324  1.0000
  C   C11       1.0  0.701944667160241  0.18403130511025267  0.5491135131570105  1.0000
  C   C12       1.0  0.2980483723508129  0.6840430439500834  0.45088621694459624  1.0000
  S   S1        1.0  0.7568694058616572  0.5750532379548826  0.9073768467186696  1.0000
  S   S2        1.0  0.24313369499540016  0.07505768415307301  0.09262543453534282  1.0000
  O   O1        1.0  0.4123654656703692  0.2126773247398716  0.8516779987638403  1.0000
  O   O2        1.0  0.587633390557265  0.7126871709439295  0.14832029005733463  1.0000
  O   O3        1.0  0.9060550232803948  0.17734489026655348  0.7929037772898013  1.0000
  O   O4        1.0  0.09393965053130418  0.6773341205060248  0.2070955419669929  1.0000
  O   O5        1.0  0.36346054549038337  0.6029178819395539  0.7094387972292183  1.0000
  O   O6        1.0  0.6365483242958662  0.10292605961164716  0.2905620455133331  1.0000
  O   O7        1.0  0.8567861129709371  0.5684954090696619  0.6501686579181509  1.0000
  O   O8        1.0  0.14321648814386378  0.06848711075048898  0.3498322364619711  1.0000
  O   O9        1.0  0.3864139989066331  0.0007031001802744  0.6199712123230656  1.0000
  O   O10       1.0  0.6135739566324219  0.5007163316644848  0.38002833586400453  1.0000
  O   O11       1.0  0.8861577795529741  0.9574324210365435  0.5599465971330773  1.0000
  O   O12       1.0  0.11382305021722058  0.457438259905487  0.4400530751301234  1.0000
  O   O13       1.0  0.5578349762976345  0.6862694239289124  0.9488531894149761  1.0000
  O   O14       1.0  0.44218322919460473  0.18627003795529615  0.051148367861912916  1.0000
  O   O15       1.0  0.9068924267622049  0.34624894921763866  0.9378434737670035  1.0000
  O   O16       1.0  0.09311488603187712  0.8462538591853603  0.06215810059831032  1.0000
  O   O17       1.0  0.9386621318204931  0.7804330353964559  0.8822204844758093  1.0000
  O   O18       1.0  0.06135156167433561  0.2804298367633891  0.11778197109270393  1.0000
