data_image0
_chemical_formula_structural       Cu4H20C20N12O20
_chemical_formula_sum              "Cu4 H20 C20 N12 O20"
_cell_length_a       6.708836162001573
_cell_length_b       7.791779140005496
_cell_length_c       14.931396395008719
_cell_angle_alpha    89.99988196694291
_cell_angle_beta     90.00003732519144
_cell_angle_gamma    89.99993157028646

_space_group_name_H-M_alt    "P 1"
_space_group_IT_number       1

loop_
  _space_group_symop_operation_xyz
  'x, y, z'

loop_
  _atom_site_type_symbol
  _atom_site_label
  _atom_site_symmetry_multiplicity
  _atom_site_fract_x
  _atom_site_fract_y
  _atom_site_fract_z
  _atom_site_occupancy
  Cu  Cu1       1.0  0.7500002310362959  0.6160983218122524  0.3200696443916939  1.0000
  Cu  Cu2       1.0  0.24999862520314764  0.8838952224309794  0.820070216689878  1.0000
  Cu  Cu3       1.0  0.25000036161927147  0.38389801124071005  0.6799328885951539  1.0000
  Cu  Cu4       1.0  0.750000476877581  0.11610111063203017  0.17992762818867195  1.0000
  H   H1        1.0  0.7500000516651751  0.6562590190502391  0.10705471681851013  1.0000
  H   H2        1.0  0.2500014824915411  0.8437392180735018  0.6070600203060154  1.0000
  H   H3        1.0  0.24999755984534744  0.3437347472069945  0.8929424583314757  1.0000
  H   H4        1.0  0.7500020913051912  0.1562583983845087  0.3929411732211393  1.0000
  H   H5        1.0  0.063793228601071  0.5463857375094107  0.1785382756852698  1.0000
  H   H6        1.0  0.9362054261660333  0.9536109334372255  0.6785376382466026  1.0000
  H   H7        1.0  0.5637910552182461  0.4536210549113093  0.8214662109895772  1.0000
  H   H8        1.0  0.43620849416797103  0.0463929079112262  0.32145959239354494  1.0000
  H   H9        1.0  0.9362088546198561  0.45362086277160774  0.8214655967557436  1.0000
  H   H10       1.0  0.0637936759088902  0.0463931000507074  0.32145953689809664  1.0000
  H   H11       1.0  0.4362080468578995  0.5463881121791162  0.1785376614496172  1.0000
  H   H12       1.0  0.5637906079060713  0.9536124089806464  0.6785375827504654  1.0000
  H   H13       1.0  0.06179151571962649  0.6490485258269062  0.4533618129328688  1.0000
  H   H14       1.0  0.9382090208277701  0.8509509081369161  0.9533619559531632  1.0000
  H   H15       1.0  0.5617905836186452  0.3509518516403034  0.546642003419308  1.0000
  H   H16       1.0  0.4382100651364312  0.14904908093468086  0.04663460555615021  1.0000
  H   H17       1.0  0.9382090769342282  0.35095165743521045  0.5466420595113634  1.0000
  H   H18       1.0  0.0617900812502228  0.1490479917366088  0.04663454946455661  1.0000
  H   H19       1.0  0.4382114996076041  0.6490470482171062  0.4533618690258336  1.0000
  H   H20       1.0  0.5617890369411569  0.8509511023414545  0.9533625695906168  1.0000
  C   C1        1.0  0.7499999875409671  0.7832338049590035  0.14026587603900964  1.0000
  C   C2        1.0  0.25000010331881134  0.7167617339844553  0.6402666276348301  1.0000
  C   C3        1.0  0.24999464282886663  0.2167586778918604  0.8597333083003849  1.0000
  C   C4        1.0  0.7500004893343687  0.2832345990751294  0.35973255670339205  1.0000
  C   C5        1.0  0.1465304072409097  0.5715967603677542  0.23987948972482806  1.0000
  C   C6        1.0  0.8534683348444432  0.928400951319105  0.7398788546731795  1.0000
  C   C7        1.0  0.6465296719613106  0.4284099466792526  0.760125021608417  1.0000
  C   C8        1.0  0.35347128068124084  0.0715978417878702  0.2601176815818179  1.0000
  C   C9        1.0  0.8534701854076303  0.42841112331796427  0.7601243827152758  1.0000
  C   C10       1.0  0.1465307672344451  0.07159666515048  0.2601176507452366  1.0000
  C   C11       1.0  0.3534709206885864  0.5715966536012119  0.23987952056209855  1.0000
  C   C12       1.0  0.6465278213967595  0.9284010580856545  0.7398788238359091  1.0000
  C   C13       1.0  0.1461891354053932  0.6284692213653217  0.3921070164490033  1.0000
  C   C14       1.0  0.8538113139462739  0.8715291715178212  0.8921064425101976  1.0000
  C   C15       1.0  0.6461882620529167  0.3715297856129497  0.6078961553271968  1.0000
  C   C16       1.0  0.3538124738974134  0.1284721880440429  0.10789009384537003  1.0000
  C   C17       1.0  0.8538114572475096  0.3715309618994453  0.607895516535784  1.0000
  C   C18       1.0  0.14618778812906194  0.1284735785675082  0.10789006290546152  1.0000
  C   C19       1.0  0.35381382117196836  0.6284703976497212  0.3921070473875333  1.0000
  C   C20       1.0  0.6461866281792866  0.871529278636025  0.8921070813007006  1.0000
  N   N1        1.0  0.04511642663555189  0.6026037012141784  0.31597615851327293  1.0000
  N   N2        1.0  0.9548839143439593  0.8973949928399703  0.8159755869491293  1.0000
  N   N3        1.0  0.5451141353263652  0.39739926026659594  0.6840283225973707  1.0000
  N   N4        1.0  0.454885218422028  0.10260754583324427  0.18402097952846933  1.0000
  N   N5        1.0  0.9548856565876278  0.39740033225764654  0.6840283836588412  1.0000
  N   N6        1.0  0.045115187731859414  0.10260775724402998  0.18402158819625924  1.0000
  N   N7        1.0  0.45488496675422146  0.6026034898041601  0.3159755498452626  1.0000
  N   N8        1.0  0.5451138836537837  0.8973952042507564  0.8159761956169121  1.0000
  N   N9        1.0  0.7500001778230327  0.8736476262234091  0.4954114455218389  1.0000
  N   N10       1.0  0.25000041858096017  0.6263503579948304  0.9954089454612572  1.0000
  N   N11       1.0  0.2500004148321863  0.1263512736334462  0.5045930966528047  1.0000
  N   N12       1.0  0.7500001740694913  0.3736485418752764  0.0045888994161416  1.0000
  O   O1        1.0  0.7500000396041386  0.7956582698913905  0.22547960065211473  1.0000
  O   O2        1.0  0.2500001725582166  0.7043369319468765  0.725481705036195  1.0000
  O   O3        1.0  0.2499975719104697  0.20433164615006655  0.7745195836891059  1.0000
  O   O4        1.0  0.7500004200945583  0.2956606845153188  0.2745181490310671  1.0000
  O   O5        1.0  0.7499998606607009  0.9164512300132656  0.09136749790854283  1.0000
  O   O6        1.0  0.2500001605910569  0.5835457857754418  0.5913677226859377  1.0000
  O   O7        1.0  0.24999775085084514  0.08354381964260679  0.9086323561596503  1.0000
  O   O8        1.0  0.7500004320621301  0.41645054728414266  0.4086314616522842  1.0000
  O   O9        1.0  0.7500001210088312  0.8670279993371536  0.4091596367215047  1.0000
  O   O10       1.0  0.2500003526184997  0.6329664758784331  0.9091571295614431  1.0000
  O   O11       1.0  0.25000047164905237  0.13296705030789724  0.5908449054552067  1.0000
  O   O12       1.0  0.7500002400341402  0.36702857378119086  0.09084004558829413  1.0000
  O   O13       1.0  0.7500017951876429  0.7363990373975113  0.5402726950330958  1.0000
  O   O14       1.0  0.2499996438945615  0.76360331414687  0.040267127376751  1.0000
  O   O15       1.0  0.250000288037441  0.26360499606901294  0.45973452605791465  1.0000
  O   O16       1.0  0.750000948750852  0.2363994359416566  0.9597273688499542  1.0000
  O   O17       1.0  0.7500007958588029  0.0183448177017311  0.5331625596982975  1.0000
  O   O18       1.0  0.2499998337146181  0.48165488477845025  0.03316278568838271  1.0000
  O   O19       1.0  0.2499997967927428  0.9816566489682969  0.4668393035560712  1.0000
  O   O20       1.0  0.7499992683648812  0.5183452984923848  0.9668370683772809  1.0000
