data_image0
_chemical_formula_structural       Li6H12C12N6O18
_chemical_formula_sum              "Li6 H12 C12 N6 O18"
_cell_length_a       6.444658083024194
_cell_length_b       9.501768020565546
_cell_length_c       10.249643457018301
_cell_angle_alpha    103.23093312758165
_cell_angle_beta     106.84254782146553
_cell_angle_gamma    91.56144852589784

_space_group_name_H-M_alt    "P 1"
_space_group_IT_number       1

loop_
  _space_group_symop_operation_xyz
  'x, y, z'

loop_
  _atom_site_type_symbol
  _atom_site_label
  _atom_site_symmetry_multiplicity
  _atom_site_fract_x
  _atom_site_fract_y
  _atom_site_fract_z
  _atom_site_occupancy
  Li  Li1       1.0  0.2966493370888514  0.4660879277660681  0.16083001782178027  1.0000
  Li  Li2       1.0  0.703346120506545  0.5339101477381617  0.8391695339842756  1.0000
  Li  Li3       1.0  0.2152463662021518  0.4699961908718108  0.8340991039648245  1.0000
  Li  Li4       1.0  0.7847507148758266  0.5300019009564424  0.1659026983625935  1.0000
  Li  Li5       1.0  0.1555725031162467  0.12107098397704161  0.6428308515151002  1.0000
  Li  Li6       1.0  0.8444216438384445  0.8789292645449936  0.3571698885218809  1.0000
  H   H1        1.0  0.6006502940745335  0.6253108814054258  0.3492387641317265  1.0000
  H   H2        1.0  0.39934547273561793  0.3746893565357681  0.6507593418985992  1.0000
  H   H3        1.0  0.6664932813417083  0.46321844126108397  0.3500055814706258  1.0000
  H   H4        1.0  0.33351283753923155  0.5367861656884757  0.6499933670803841  1.0000
  H   H5        1.0  0.13890057119046162  0.6583256873488778  0.2493834402391641  1.0000
  H   H6        1.0  0.8610963538292893  0.34167131249894567  0.7506171311649085  1.0000
  H   H7        1.0  0.1442827014956123  0.5792277805712516  0.3691466917596032  1.0000
  H   H8        1.0  0.8557241081456722  0.4207703177246245  0.630852006300728  1.0000
  H   H9        1.0  0.5538676139599729  0.1801478821297309  0.6728520205948955  1.0000
  H   H10       1.0  0.4461284649666339  0.8198545397723223  0.3271485472821212  1.0000
  H   H11       1.0  0.45468562561278253  0.14493795123991762  0.5066962625343479  1.0000
  H   H12       1.0  0.5453146973523956  0.8550601355695804  0.4933032024965699  1.0000
  C   C1        1.0  0.23063714027933457  0.8187617554318435  0.9563540954179218  1.0000
  C   C2        1.0  0.7693516745817349  0.18123521660557879  0.043644992435375216  1.0000
  C   C3        1.0  0.21863425999087124  0.037200879979352  0.9042819022761679  1.0000
  C   C4        1.0  0.7813645948245238  0.9627982771055765  0.09571556625112972  1.0000
  C   C5        1.0  0.18823374639973173  0.8311572942895822  0.7327395641842928  1.0000
  C   C6        1.0  0.811763643893002  0.1688429599756418  0.26726079236739514  1.0000
  C   C7        1.0  0.2476792218054769  0.7280619077043369  0.0641062748325467  1.0000
  C   C8        1.0  0.7523173260212415  0.27194379551997366  0.9358989627200957  1.0000
  C   C9        1.0  0.23474378051399472  0.2034560135215173  0.9433605291930152  1.0000
  C   C10       1.0  0.7652664357778178  0.7965432363076914  0.05664878536140345  1.0000
  C   C11       1.0  0.1622291972334011  0.7639647706283766  0.5775815923855137  1.0000
  C   C12       1.0  0.8377779237989175  0.2360355062473829  0.422418590615898  1.0000
  N   N1        1.0  0.23950786011109668  0.9633520006103565  0.0029425668870147205  1.0000
  N   N2        1.0  0.7604923089721323  0.0366450103616316  0.9970585979373681  1.0000
  N   N3        1.0  0.18667167214020713  0.9756606099726  0.767572647929427  1.0000
  N   N4        1.0  0.813324251453601  0.0243407253299992  0.2324276659298476  1.0000
  N   N5        1.0  0.21209942088830053  0.7473077485146506  0.8234705315111486  1.0000
  N   N6        1.0  0.7878911713373071  0.2526903156843048  0.17652910707004574  1.0000
  O   O1        1.0  0.2620313075146257  0.5933661451528848  0.02417613429451389  1.0000
  O   O2        1.0  0.7379605946262661  0.406629740647297  0.9758213391501445  1.0000
  O   O3        1.0  0.242678915026481  0.7956740894855371  0.18499620116407564  1.0000
  O   O4        1.0  0.7573196283978804  0.2043228890195081  0.8149997824221415  1.0000
  O   O5        1.0  0.24320711725532365  0.26620170795116127  0.06696972570406247  1.0000
  O   O6        1.0  0.7567908026615484  0.7337909080131411  0.9330223110943834  1.0000
  O   O7        1.0  0.23934475191137491  0.261622205059318  0.8438283751551908  1.0000
  O   O8        1.0  0.7606576561822537  0.7383791255867393  0.15616824101669383  1.0000
  O   O9        1.0  0.09493150079610051  0.8443101804575264  0.49489257365436157  1.0000
  O   O10       1.0  0.9050614908506844  0.15569332768176744  0.5051096086312867  1.0000
  O   O11       1.0  0.2140716461098435  0.635682524342208  0.5446129133011868  1.0000
  O   O12       1.0  0.7859712440735152  0.3643298057883514  0.45539336409181175  1.0000
  O   O13       1.0  0.5964039615740829  0.5278085732156654  0.28817823527960934  1.0000
  O   O14       1.0  0.4035932748367018  0.4721906052120417  0.7118238210655434  1.0000
  O   O15       1.0  0.10324949517909943  0.5617011487918263  0.2642208811509975  1.0000
  O   O16       1.0  0.8967475866243076  0.43829694841740247  0.7357818980820241  1.0000
  O   O17       1.0  0.4168732836822926  0.1767297862789121  0.5932602800801519  1.0000
  O   O18       1.0  0.5831260400332141  0.8232726521282742  0.40674185812277136  1.0000
