data_image0
_chemical_formula_structural       Ag16H48C24Br16N16
_chemical_formula_sum              "Ag16 H48 C24 Br16 N16"
_cell_length_a       8.660841308
_cell_length_b       9.747878473
_cell_length_c       16.906
_cell_angle_alpha    90.0
_cell_angle_beta     90.0
_cell_angle_gamma    90.0

_space_group_name_H-M_alt    "P 1"
_space_group_IT_number       1

loop_
  _space_group_symop_operation_xyz
  'x, y, z'

loop_
  _atom_site_type_symbol
  _atom_site_label
  _atom_site_symmetry_multiplicity
  _atom_site_fract_x
  _atom_site_fract_y
  _atom_site_fract_z
  _atom_site_occupancy
  Ag  Ag1       1.0  0.1556592427983574  0.2500010650266162  0.3635094049449918  1.0000
  Ag  Ag2       1.0  0.3443395270671061  0.7500011433513478  0.863509404944992  1.0000
  Ag  Ag3       1.0  0.8443382969325766  0.7500001174871045  0.6364882290311158  1.0000
  Ag  Ag4       1.0  0.6556603219083001  0.2500000391623658  0.1364900035490351  1.0000
  Ag  Ag5       1.0  0.3384024595038824  0.43065883634349694  0.2016644978114286  1.0000
  Ag  Ag6       1.0  0.16159631036158115  0.9306578888039851  0.7016644978114286  1.0000
  Ag  Ag7       1.0  0.3384047687483616  0.0693412419812418  0.2016639063054555  1.0000
  Ag  Ag8       1.0  0.16159631036158115  0.5693402944417301  0.7016639063054555  1.0000
  Ag  Ag9       1.0  0.6615962348492914  0.5693433720344672  0.7983378682124709  1.0000
  Ag  Ag10      1.0  0.8384012293693459  0.0693463713024656  0.2983378682124709  1.0000
  Ag  Ag11      1.0  0.6615962348492914  0.9306558370754914  0.7983378682124709  1.0000
  Ag  Ag12      1.0  0.838403538613825  0.4306567846150031  0.2983372767064978  1.0000
  Ag  Ag13      1.0  0.2491212947184493  0.7500021692155983  0.4194268307109894  1.0000
  Ag  Ag14      1.0  0.2508797843914934  0.2500010650266162  0.9194274222169625  1.0000
  Ag  Ag15      1.0  0.7508797088792036  0.2500000391623658  0.5805761268188832  1.0000
  Ag  Ag16      1.0  0.7491212192061594  0.749999091622854  0.0805761268188832  1.0000
  H   H1        1.0  0.230651957351391  0.4656879968881  0.5140482668874924  1.0000
  H   H2        1.0  0.2693491217585516  0.9656880752128388  0.0140482668874924  1.0000
  H   H3        1.0  0.2306508027291514  0.0343110555723882  0.5140482668874924  1.0000
  H   H4        1.0  0.2693479671363121  0.5343111338971269  0.0140482668874924  1.0000
  H   H5        1.0  0.7693455823795361  0.5343121597613703  0.48594877558263516  1.0000
  H   H6        1.0  0.7306518818391011  0.0343110555723882  0.9859511416065275  1.0000
  H   H7        1.0  0.7693502008685014  0.9656891010770821  0.48595114160652736  1.0000
  H   H8        1.0  0.7306518818391011  0.4656879968881  0.9859517331125075  1.0000
  H   H9        1.0  0.0633183290742707  0.3734515166641827  0.5457015260854163  1.0000
  H   H10       1.0  0.436682750035672  0.8734505691246711  0.0457015260854163  1.0000
  H   H11       1.0  0.0633160198297915  0.1265475357963055  0.5457009345794361  1.0000
  H   H12       1.0  0.436682750035672  0.6265476141210371  0.0457015260854163  1.0000
  H   H13       1.0  0.9366803652788959  0.6265476141210371  0.4542961078906913  1.0000
  H   H14       1.0  0.5633194081842205  0.1265475357963055  0.9542978824086105  1.0000
  H   H15       1.0  0.9366861383901011  0.8734515949889214  0.4542978824086106  1.0000
  H   H16       1.0  0.5633194081842205  0.3734515166641827  0.9542978824086105  1.0000
  H   H17       1.0  0.4616964862647279  0.3736597671061261  0.6870625813320714  1.0000
  H   H18       1.0  0.0383022836007356  0.873659845430865  0.1870619898260983  1.0000
  H   H19       1.0  0.4616964862647279  0.1263392853543621  0.6870625813320714  1.0000
  H   H20       1.0  0.0383022836007356  0.6263383378148504  0.1870619898260983  1.0000
  H   H21       1.0  0.5383033627106855  0.6263455188645751  0.3129350526440291  1.0000
  H   H22       1.0  0.9616975653746707  0.1263382594901188  0.8129374186679286  1.0000
  H   H23       1.0  0.5383033627106855  0.8736639488878453  0.3129362356559824  1.0000
  H   H24       1.0  0.9616975653746707  0.3736597671061261  0.8129374186679286  1.0000
  H   H25       1.0  0.4605903581578444  0.465673634788658  0.595990181000829  1.0000
  H   H26       1.0  0.039409566329858585  0.9656737131133895  0.0959895894948559  1.0000
  H   H27       1.0  0.460589203535605  0.0343243918075871  0.5959889979888828  1.0000
  H   H28       1.0  0.039409566329858585  0.5343244701323258  0.0959895894948559  1.0000
  H   H29       1.0  0.5394083361953221  0.5343254959965691  0.4040080444812517  1.0000
  H   H30       1.0  0.9605902826455548  0.0343243918075871  0.9040104105051441  1.0000
  H   H31       1.0  0.539411800062048  0.9656767907061267  0.4040110020111172  1.0000
  H   H32       1.0  0.9605902826455548  0.465673634788658  0.9040104105051441  1.0000
  H   H33       1.0  0.4572939116597893  0.15894432868562092  0.4715414645687943  1.0000
  H   H34       1.0  0.0427060128279138  0.6589444070103525  0.9715414645687944  1.0000
  H   H35       1.0  0.4572939116597893  0.3410557496391178  0.4715414645687943  1.0000
  H   H36       1.0  0.0427060128279138  0.8410548020996059  0.9715414645687944  1.0000
  H   H37       1.0  0.5427070919378636  0.8410568538280927  0.5284585354312057  1.0000
  H   H38       1.0  0.9572938361474925  0.3410547237748673  0.0284585354312057  1.0000
  H   H39       1.0  0.5427070919378636  0.6589444070103525  0.5284579439252326  1.0000
  H   H40       1.0  0.9572938361474925  0.15894432868562092  0.0284585354312057  1.0000
  H   H41       1.0  0.236983905721047  0.2499990132981225  0.7290790251981534  1.0000
  H   H42       1.0  0.2630148641444165  0.749999091622854  0.2290796167041265  1.0000
  H   H43       1.0  0.7630182524988456  0.7500042209440849  0.2709192002839202  1.0000
  H   H44       1.0  0.7369838302087499  0.2499990132981225  0.7709203832958735  1.0000
  H   H45       1.0  0.0662071939212581  0.2500000391623658  0.6684768721164076  1.0000
  H   H46       1.0  0.4337904213219659  0.7500001174871045  0.1684768721164076  1.0000
  H   H47       1.0  0.9337926550541553  0.7500011433513478  0.3315225363776193  1.0000
  H   H48       1.0  0.5662094276534473  0.2499990132981225  0.8315231278835924  1.0000
  C   C1        1.0  0.4182503605803304  0.3731817143674832  0.6260564296699371  1.0000
  C   C2        1.0  0.0817484092851331  0.8731817926922147  0.1260564296699371  1.0000
  C   C3        1.0  0.41824920595808374  0.1268163122287618  0.626055246657991  1.0000
  C   C4        1.0  0.0817484092851331  0.6268163905535006  0.1260564296699371  1.0000
  C   C5        1.0  0.5817483337728431  0.6268194681462376  0.37394238731810964  1.0000
  C   C6        1.0  0.918251439690273  0.1268163122287618  0.8739435703300629  1.0000
  C   C7        1.0  0.5817506430173225  0.8731889737419395  0.3739471193659085  1.0000
  C   C8        1.0  0.918251439690273  0.3731817143674832  0.8739435703300629  1.0000
  C   C9        1.0  0.1930170454059521  0.2499990132981225  0.6681580503963076  1.0000
  C   C10       1.0  0.3069817244595114  0.749999091622854  0.1681580503963076  1.0000
  C   C11       1.0  0.8069839581917009  0.7500021692155983  0.3318413580977193  1.0000
  C   C12       1.0  0.6930169698936622  0.2499990132981225  0.8318419496036924  1.0000
  C   C13       1.0  0.19007968642484485  0.3733797061669648  0.5449213297054314  1.0000
  C   C14       1.0  0.3099179288183791  0.873380810355947  0.0449213297054314  1.0000
  C   C15       1.0  0.19007968642484485  0.1266183204292801  0.5449207381994583  1.0000
  C   C16       1.0  0.3099179288183791  0.6266183987540188  0.0449213297054314  1.0000
  C   C17       1.0  0.8099201625505613  0.6266183987540188  0.4550786702945686  1.0000
  C   C18       1.0  0.6900807655347945  0.1266183204292801  0.9550786702945686  1.0000
  C   C19       1.0  0.8099190079283216  0.873380810355947  0.4550774872826224  1.0000
  C   C20       1.0  0.6900807655347945  0.3733797061669648  0.9550786702945686  1.0000
  C   C21       1.0  0.4148511527028234  0.2500000391623658  0.5029829646279396  1.0000
  C   C22       1.0  0.0851487717848869  0.7500001174871045  0.0029823731219665  1.0000
  C   C23       1.0  0.5851510055170763  0.7500001174871045  0.49701644386608024  1.0000
  C   C24       1.0  0.9148522318127661  0.2500000391623658  0.9970170353720605  1.0000
  Br  Br1       1.0  0.4845972637927503  0.2500000391623658  0.2962492606175289  1.0000
  Br  Br2       1.0  0.0154003514504737  0.749999091622854  0.7962492606175289  1.0000
  Br  Br3       1.0  0.5154014305604235  0.749999091622854  0.7037495563705178  1.0000
  Br  Br4       1.0  0.984598342902693  0.2500000391623658  0.2037507393824711  1.0000
  Br  Br5       1.0  0.16499782748357456  0.5309504026271625  0.3360960605702132  1.0000
  Br  Br6       1.0  0.3350032516263751  0.0309523760309176  0.83609487755826  1.0000
  Br  Br7       1.0  0.1650001367280538  0.9690518840755332  0.3360913285224214  1.0000
  Br  Br8       1.0  0.3350044062486148  0.46904975402230786  0.83609487755826  1.0000
  Br  Br9       1.0  0.8349997122473523  0.46904975402230786  0.663910445995505  1.0000
  Br  Br10      1.0  0.665000061215764  0.9690518840755332  0.1639092629835588  1.0000
  Br  Br11      1.0  0.8349985576251129  0.0309482725739372  0.663910445995505  1.0000
  Br  Br12      1.0  0.6649977519712778  0.5309493767629192  0.1639098544895319  1.0000
  Br  Br13      1.0  0.8358206486607074  0.2500000391623658  0.4315166213178756  1.0000
  Br  Br14      1.0  0.6641814340468954  0.749999091622854  0.9315154383059294  1.0000
  Br  Br15      1.0  0.1641711179590146  0.7500001174871045  0.5684839701880975  1.0000
  Br  Br16      1.0  0.3358299611509281  0.2500010650266162  0.0684839701880975  1.0000
  N   N1        1.0  0.24501776727392868  0.2500000391623658  0.5026434401987459  1.0000
  N   N2        1.0  0.2549821572137745  0.749999091622854  0.0026434401987459  1.0000
  N   N3        1.0  0.7549832363237172  0.7500001174871045  0.4973559682952811  1.0000
  N   N4        1.0  0.7450188463838785  0.2500000391623658  0.9973565598012543  1.0000
  N   N5        1.0  0.24776807745199386  0.3755032451562244  0.6275629953862563  1.0000
  N   N6        1.0  0.2522318470357092  0.875503323480956  0.1275629953862563  1.0000
  N   N7        1.0  0.2477669228297543  0.1244958073042639  0.6275629953862563  1.0000
  N   N8        1.0  0.2522318470357092  0.6244958856290026  0.1275629953862563  1.0000
  N   N9        1.0  0.7522317715234124  0.6244979373574894  0.3724346385898514  1.0000
  N   N10       1.0  0.7477680019397042  0.1244958073042639  0.8724370046137437  1.0000
  N   N11       1.0  0.752232926145652  0.8755053752094498  0.3724358216017976  1.0000
  N   N12       1.0  0.7477680019397042  0.3755022192919811  0.8724364131077706  1.0000
  N   N13       1.0  0.47639944588163974  0.2499990132981225  0.5845185141369953  1.0000
  N   N14       1.0  0.0235993239838237  0.749999091622854  0.0845185141369953  1.0000
  N   N15       1.0  0.5236004030937735  0.7500011433513478  0.4154803028510585  1.0000
  N   N16       1.0  0.9764005249915825  0.2499990132981225  0.9154814858630047  1.0000
