data_image0
_chemical_formula_structural       Zn2H20C48N4O12
_chemical_formula_sum              "Zn2 H20 C48 N4 O12"
_cell_length_a       14.844172600361047
_cell_length_b       16.200579077782336
_cell_length_c       23.74598113761916
_cell_angle_alpha    90.0607007716986
_cell_angle_beta     90.02226351911537
_cell_angle_gamma    89.62680459503444

_space_group_name_H-M_alt    "P 1"
_space_group_IT_number       1

loop_
  _space_group_symop_operation_xyz
  'x, y, z'

loop_
  _atom_site_type_symbol
  _atom_site_label
  _atom_site_symmetry_multiplicity
  _atom_site_fract_x
  _atom_site_fract_y
  _atom_site_fract_z
  _atom_site_occupancy
  Zn  Zn1       1.0  0.4059135161611422  0.5005038407908199  0.4999794140270026  1.0000
  Zn  Zn2       1.0  0.59408484987361  0.4994952278594836  0.5000198625538701  1.0000
  H   H1        1.0  0.4297860499294757  0.6978871396761192  0.0535231666432665  1.0000
  H   H2        1.0  0.5702303010689319  0.3021711359500259  0.9464807608760637  1.0000
  H   H3        1.0  0.42979731178971997  0.6979112348051472  0.9467819035271602  1.0000
  H   H4        1.0  0.5702298308922025  0.3021433043060497  0.05322202406709659  1.0000
  H   H5        1.0  0.35569124122151413  0.4998350921772212  0.6789866228628014  1.0000
  H   H6        1.0  0.3557252920306411  0.49986292605064614  0.3209634418075424  1.0000
  H   H7        1.0  0.6442783850798293  0.5001589679989848  0.6790387896324432  1.0000
  H   H8        1.0  0.6443097697981272  0.5001787875502469  0.3210177116586408  1.0000
  H   H9        1.0  0.6448121892089274  0.500110042989881  0.7849814149452214  1.0000
  H   H10       1.0  0.6447672631302979  0.500132717356692  0.21507684771518137  1.0000
  H   H11       1.0  0.3552595709592551  0.9236442447542285  0.49479905451423184  1.0000
  H   H12       1.0  0.6447360989582408  0.07635545137877389  0.5052023275815856  1.0000
  H   H13       1.0  0.354980796483133  0.0777098954296065  0.49483339524550735  1.0000
  H   H14       1.0  0.6450155469640465  0.9222897982501619  0.5051675657960644  1.0000
  H   H15       1.0  0.9156169575343541  0.5592804411392931  0.5817250197922661  1.0000
  H   H16       1.0  0.08438004784129297  0.4407223340582931  0.41827299431944454  1.0000
  H   H17       1.0  0.9160871923658006  0.4408120145471271  0.41835367276225804  1.0000
  H   H18       1.0  0.08390847023996169  0.5591895310133808  0.581645183110318  1.0000
  H   H19       1.0  0.3552336533743129  0.49990832193092394  0.784927073330259  1.0000
  H   H20       1.0  0.35519005232261947  0.49993716251712755  0.2150199812334534  1.0000
  C   C1        1.0  0.4999510204369102  0.661215167528425  0.5000501428759989  1.0000
  C   C2        1.0  0.5000486873439841  0.3387851279731606  0.4999453440751864  1.0000
  C   C3        1.0  0.4182455059196214  0.4997882342894968  0.7613721623821377  1.0000
  C   C4        1.0  0.4182126347918995  0.49973941434944175  0.23859724647128644  1.0000
  C   C5        1.0  0.41843805332459977  0.4999198419527102  0.7027580770759699  1.0000
  C   C6        1.0  0.41845789474306366  0.49982374638142335  0.2972093328242309  1.0000
  C   C7        1.0  0.4999827125276326  0.5001003749089675  0.6730841516356776  1.0000
  C   C8        1.0  0.5000175893301487  0.4999233800384173  0.3269168166040899  1.0000
  C   C9        1.0  0.5815396973977371  0.5002043376894605  0.7027916363528207  1.0000
  C   C10       1.0  0.5815649225207479  0.500110079481203  0.2972449988020571  1.0000
  C   C11       1.0  0.5817882768382246  0.5003028578898423  0.7614049904253335  1.0000
  C   C12       1.0  0.5817560801176925  0.5002540378843674  0.2386321802049309  1.0000
  C   C13       1.0  0.5000198833412172  0.5000629878759637  0.7902732655466879  1.0000
  C   C14       1.0  0.49998436693468307  0.4999879166877719  0.2097298163809782  1.0000
  C   C15       1.0  0.4181218968692733  0.04319019131431647  0.4970862258759894  1.0000
  C   C16       1.0  0.5818737751929675  0.9568088875469127  0.5029151560460079  1.0000
  C   C17       1.0  0.41827456588734435  0.9576043365727073  0.4970779184092251  1.0000
  C   C18       1.0  0.5817231292012153  0.04239411845296808  0.5029230424244346  1.0000
  C   C19       1.0  0.4998629307131495  0.087083578144437  0.5000086937876205  1.0000
  C   C20       1.0  0.5001340902607154  0.912914877742601  0.4999910036038173  1.0000
  C   C21       1.0  0.49981010715296037  0.17440759057379293  0.49998698638119515  1.0000
  C   C22       1.0  0.500186908800167  0.825592097866945  0.5000106057372946  1.0000
  C   C23       1.0  0.49997740327847845  0.7503685303890177  0.5000479101326718  1.0000
  C   C24       1.0  0.5000202910788331  0.24962992264681114  0.4999509450803926  1.0000
  C   C25       1.0  0.4999814048123313  0.5001097123468694  0.6098755488523936  1.0000
  C   C26       1.0  0.5000196220490237  0.4998992256246735  0.3901249941614254  1.0000
  C   C27       1.0  0.046618842814304194  0.533530505269219  0.5462806900621189  1.0000
  C   C28       1.0  0.9533788362372846  0.4664722678731009  0.4537173241194595  1.0000
  C   C29       1.0  0.046894271658935296  0.46643915645679357  0.4536667434548889  1.0000
  C   C30       1.0  0.9531027315719669  0.533564236012566  0.5463312708306418  1.0000
  C   C31       1.0  0.09330739431810998  0.4999853683232656  0.4999444735983544  1.0000
  C   C32       1.0  0.9066909649899059  0.5000155513464292  0.5000539612557446  1.0000
  C   C33       1.0  0.18905853942543868  0.500198711503998  0.4998732693353176  1.0000
  C   C34       1.0  0.8109357881119053  0.499799132944517  0.5001239008581352  1.0000
  C   C35       1.0  0.5261696462394525  0.4260282445975462  0.121708578521158  1.0000
  C   C36       1.0  0.47385347281203144  0.5740207490114598  0.8782928203448108  1.0000
  C   C37       1.0  0.47380191150031686  0.5739965554695913  0.1218138877997319  1.0000
  C   C38       1.0  0.5262104218631193  0.42605432164513246  0.8781862470974957  1.0000
  C   C39       1.0  0.47417638259651795  0.5725641106573888  0.0593220919429882  1.0000
  C   C40       1.0  0.5258406329138481  0.42749663040871155  0.9406801518450223  1.0000
  C   C41       1.0  0.500005448882213  0.5000239980939796  0.0300185350176108  1.0000
  C   C42       1.0  0.5000169785068778  0.5000305565980055  0.969986655459934  1.0000
  C   C43       1.0  0.5258267727860826  0.42747135514509427  0.0592145705726992  1.0000
  C   C44       1.0  0.4741956508495093  0.572583812440996  0.940785987713376  1.0000
  C   C45       1.0  0.4492439852072181  0.6430309755954652  0.0296888556605595  1.0000
  C   C46       1.0  0.5507817903813718  0.3570291218783338  0.9703138099859957  1.0000
  C   C47       1.0  0.4492470583205375  0.6430383806359071  0.9705244908766916  1.0000
  C   C48       1.0  0.5507800863598858  0.3570155408055412  0.0294790154196249  1.0000
  N   N1        1.0  0.49998184729950873  0.5000038237541202  0.148894249006986  1.0000
  N   N2        1.0  0.5000345305568246  0.5000464245531543  0.8511067283838473  1.0000
  N   N3        1.0  0.7328023533028726  0.49940604616537576  0.5001198310008306  1.0000
  N   N4        1.0  0.2671987105551352  0.5005917765365523  0.49987607651891613  1.0000
  O   O1        1.0  0.42304519032997934  0.6266446657619009  0.5000209831833118  1.0000
  O   O2        1.0  0.5769531730722618  0.3733543957249451  0.49997071316344943  1.0000
  O   O3        1.0  0.42308445083725826  0.3741472328581209  0.4999161035472639  1.0000
  O   O4        1.0  0.5769132346485647  0.6258536884688651  0.5000819101128542  1.0000
  O   O5        1.0  0.42345316746349226  0.5004084391692912  0.5855392977679941  1.0000
  O   O6        1.0  0.5765465116072264  0.49960050171888043  0.41445998173374227  1.0000
  O   O7        1.0  0.4234869106073091  0.5001871792115011  0.41441213658116993  1.0000
  O   O8        1.0  0.5765141441357214  0.4998137342269685  0.5855884041729809  1.0000
  O   O9        1.0  0.5475324463444836  0.3645808849750978  0.1489945339245224  1.0000
  O   O10       1.0  0.45247991075739674  0.6354632025480668  0.8510060201847979  1.0000
  O   O11       1.0  0.45243202543068145  0.6354357656292251  0.1491784529120963  1.0000
  O   O12       1.0  0.547570877736831  0.3646145205996659  0.8508191540884908  1.0000
