data_image0
_chemical_formula_structural       Cd2H56C56N16Cl4
_chemical_formula_sum              "Cd2 H56 C56 N16 Cl4"
_cell_length_a       7.686918894255511
_cell_length_b       12.6784332270023
_cell_length_c       14.46281556510278
_cell_angle_alpha    89.99994885102193
_cell_angle_beta     104.96811267377872
_cell_angle_gamma    90.00005814751633

_space_group_name_H-M_alt    "P 1"
_space_group_IT_number       1

loop_
  _space_group_symop_operation_xyz
  'x, y, z'

loop_
  _atom_site_type_symbol
  _atom_site_label
  _atom_site_symmetry_multiplicity
  _atom_site_fract_x
  _atom_site_fract_y
  _atom_site_fract_z
  _atom_site_occupancy
  Cd  Cd1       1.0  0.999998253965053  0.5000000660566143  0.9999998174960537  1.0000
  Cd  Cd2       1.0  1.1601099459855866e-07  0.9999982216263488  0.4999987700392694  1.0000
  H   H1        1.0  0.4565525870237934  0.5949206220450449  0.06235686686157747  1.0000
  H   H2        1.0  0.5434405707773207  0.0949217680506464  0.43764173231396336  1.0000
  H   H3        1.0  0.5434459793418683  0.405077344894849  0.937644872163389  1.0000
  H   H4        1.0  0.4565567264487669  0.9050761988914147  0.5623549869758546  1.0000
  H   H5        1.0  0.0824937430380572  0.5979081717628956  0.23086010381013006  1.0000
  H   H6        1.0  0.9175048161803331  0.09791208631251179  0.2691385658184373  1.0000
  H   H7        1.0  0.9175048454467287  0.40208979517770865  0.769140255441286  1.0000
  H   H8        1.0  0.08250053826950679  0.9020914018176852  0.7308606764095484  1.0000
  H   H9        1.0  0.62348823731309  0.6738964289010096  0.24179007711953904  1.0000
  H   H10       1.0  0.3765077227738942  0.1739015984688521  0.2582088563148375  1.0000
  H   H11       1.0  0.3765103290509302  0.32609917181590475  0.758211661906131  1.0000
  H   H12       1.0  0.6234922343887063  0.8260995234367458  0.7417903136897975  1.0000
  H   H13       1.0  0.26077849098697203  0.7061896719487062  0.3744169057133462  1.0000
  H   H14       1.0  0.7392201957917806  0.20619283406635697  0.12558307952915726  1.0000
  H   H15       1.0  0.7392214219351985  0.29380829499149996  0.6255850238393279  1.0000
  H   H16       1.0  0.26078244342537  0.7938098653215063  0.8744171614171988  1.0000
  H   H17       1.0  0.48858037346933253  0.7382496926865013  0.38344404475289195  1.0000
  H   H18       1.0  0.5114170442477216  0.23825114604799316  0.11655366130561615  1.0000
  H   H19       1.0  0.5114195615725095  0.26174906299541323  0.6165565050259971  1.0000
  H   H20       1.0  0.48858427052986286  0.7617483983762977  0.8834450093404127  1.0000
  H   H21       1.0  0.3094092559344404  0.4613605584278487  0.3369281337638553  1.0000
  H   H22       1.0  0.6905951697970706  0.9613610316184663  0.16307246239433934  1.0000
  H   H23       1.0  0.6905906459292551  0.5386389859939911  0.663074485675125  1.0000
  H   H24       1.0  0.30941018465004066  0.038638512806777194  0.8369267798348117  1.0000
  H   H25       1.0  0.6009311556529368  0.6833422291838929  0.5458566973557595  1.0000
  H   H26       1.0  0.39906581316428447  0.1833416918683426  0.9541452906038825  1.0000
  H   H27       1.0  0.3990673885952348  0.31665810397826266  0.4541464214420543  1.0000
  H   H28       1.0  0.600936848170356  0.8166586412972522  0.04585357056962634  1.0000
  H   H29       1.0  0.8123912156009965  0.6966379503461224  0.8421771206733408  1.0000
  H   H30       1.0  0.1876031227178245  0.1966336408049897  0.657821718806808  1.0000
  H   H31       1.0  0.187601986660475  0.30336396029817075  0.1578224764660732  1.0000
  H   H32       1.0  0.8123955100041228  0.8033627486550472  0.3421758808979688  1.0000
  H   H33       1.0  0.9027934560388927  0.7326164877163562  0.6671583343927876  1.0000
  H   H34       1.0  0.0972036251256512  0.23261036665020635  0.8328408648250161  1.0000
  H   H35       1.0  0.09720376377352839  0.2673862116691694  0.33284321410306456  1.0000
  H   H36       1.0  0.9027950297159606  0.767386811551532  0.16715535510597584  1.0000
  H   H37       1.0  0.2860015810355704  0.5294404710477351  0.845173440293095  1.0000
  H   H38       1.0  0.7139952192744943  0.029434911669291394  0.6548258793120567  1.0000
  H   H39       1.0  0.71399564983696  0.47056301707913656  0.15482741831575447  1.0000
  H   H40       1.0  0.2860060844407997  0.9705606890496766  0.3451734812219199  1.0000
  H   H41       1.0  0.24316045653977617  0.6997344770385608  0.6359168596925641  1.0000
  H   H42       1.0  0.756836590231039  0.19972873090045334  0.8640816691218731  1.0000
  H   H43       1.0  0.7568367632742792  0.30027058856994415  0.3640846888025847  1.0000
  H   H44       1.0  0.24316338904851162  0.8002692360418846  0.1359161211101423  1.0000
  H   H45       1.0  0.345915263220121  0.5821426638225587  0.6906659313020852  1.0000
  H   H46       1.0  0.6540856385501357  0.0821353326150884  0.8093346185459536  1.0000
  H   H47       1.0  0.6540859962645555  0.41786397926888696  0.309336188775724  1.0000
  H   H48       1.0  0.3459156651673397  0.9178634230678568  0.19066474198708505  1.0000
  H   H49       1.0  0.15076843433287476  0.4094872203776774  0.6516701183730331  1.0000
  H   H50       1.0  0.8492315512597058  0.9094828702150436  0.8483314267591026  1.0000
  H   H51       1.0  0.8492328251507074  0.5905178452317799  0.3483320017052448  1.0000
  H   H52       1.0  0.15076975245831647  0.09051667420888519  0.15166793377370877  1.0000
  H   H53       1.0  0.03254378914880359  0.6941825411334505  0.48499597589955096  1.0000
  H   H54       1.0  0.9674535234119546  0.19417964671169588  0.015004515818382885  1.0000
  H   H55       1.0  0.9674574813937936  0.305821735735364  0.5150054542921864  1.0000
  H   H56       1.0  0.0325450761329407  0.8058191089702547  0.9849951535460235  1.0000
  C   C1        1.0  0.4018911385523722  0.6060591741914507  0.12378374058908287  1.0000
  C   C2        1.0  0.5981061406749717  0.1060635714483027  0.37621128424805045  1.0000
  C   C3        1.0  0.5981074609908815  0.3939372152675205  0.8762159287760197  1.0000
  C   C4        1.0  0.40189388284446176  0.8939367617184356  0.6237837464361531  1.0000
  C   C5        1.0  0.20528424236281503  0.6066845423094591  0.20794868620733808  1.0000
  C   C6        1.0  0.7947129824302265  0.10668756905979387  0.29204978769354273  1.0000
  C   C7        1.0  0.7947143461219639  0.39331342463114527  0.792051673044078  1.0000
  C   C8        1.0  0.20528832128888297  0.8933135528461232  0.7079495728387994  1.0000
  C   C9        1.0  0.48776957672438925  0.6450947357749044  0.2127717540094949  1.0000
  C   C10       1.0  0.5122330542095455  0.14509522702483216  0.2872295289041701  1.0000
  C   C11       1.0  0.5122303361983214  0.3549040199063  0.7872301755429446  1.0000
  C   C12       1.0  0.48777095367942275  0.8549019511771192  0.7127695227979768  1.0000
  C   C13       1.0  0.38908479834408627  0.6741747188951165  0.36607142088576683  1.0000
  C   C14       1.0  0.610912519741667  0.17417700465177433  0.13392701302549873  1.0000
  C   C15       1.0  0.6109151256381864  0.32582403678643596  0.6339298187798903  1.0000
  C   C16       1.0  0.3890901526525353  0.8258233285141754  0.8660711582612349  1.0000
  C   C17       1.0  0.44859882752992053  0.5825876762287833  0.43382363774431804  1.0000
  C   C18       1.0  0.5514037391178236  0.08258762808647185  0.06617630243314922  1.0000
  C   C19       1.0  0.5514010964523521  0.4174110794527692  0.566177601921339  1.0000
  C   C20       1.0  0.4486029729459062  0.9174127050804299  0.9338224404367067  1.0000
  C   C21       1.0  0.3939475124733178  0.4790748821085842  0.40823695255281917  1.0000
  C   C22       1.0  0.6060569488057722  0.979076953297074  0.09176294322188736  1.0000
  C   C23       1.0  0.606052411510042  0.520925451054957  0.5917642871123758  1.0000
  C   C24       1.0  0.39394977431751943  0.020923379870190193  0.908235109761186  1.0000
  C   C25       1.0  0.5551410751474748  0.602901686280532  0.5261834941804081  1.0000
  C   C26       1.0  0.44485715115220614  0.10290352338297741  0.9738173521959722  1.0000
  C   C27       1.0  0.44485746910014967  0.3970978581406327  0.4738196246176399  1.0000
  C   C28       1.0  0.5551482143555544  0.8970975985245956  0.02618120014593466  1.0000
  C   C29       1.0  0.924833719925708  0.669033641018565  0.816182173560321  1.0000
  C   C30       1.0  0.0751646530821048  0.16902765817911805  0.6838151841994529  1.0000
  C   C31       1.0  0.0751608288928196  0.33096905836703877  0.18381761410656589  1.0000
  C   C32       1.0  0.9248380524875088  0.8309679425419388  0.3161809174283546  1.0000
  C   C33       1.0  0.9670639161158476  0.6867732713280856  0.7305096607362029  1.0000
  C   C34       1.0  0.03293576161291869  0.1867671751682778  0.7694920163607293  1.0000
  C   C35       1.0  0.032931979260276  0.31323100553981925  0.2694903174579224  1.0000
  C   C36       1.0  0.967066877600956  0.8132307917736267  0.23050822458702663  1.0000
  C   C37       1.0  0.1700086844596882  0.5809554873371566  0.8223135034837836  1.0000
  C   C38       1.0  0.8299895336167611  0.08094918745538847  0.677685976125197  1.0000
  C   C39       1.0  0.8299885464122952  0.4190472120487242  0.17768735512529327  1.0000
  C   C40       1.0  0.1700117811575481  0.919045624522944  0.3223126945222389  1.0000
  C   C41       1.0  0.21603330337299545  0.6206560735140485  0.6595686430447357  1.0000
  C   C42       1.0  0.7839662940202814  0.12065036819804928  0.8404323833416142  1.0000
  C   C43       1.0  0.7839666095540778  0.379348992095089  0.34043328650583493  1.0000
  C   C44       1.0  0.2160350096971939  0.8793483874848886  0.15956697719142446  1.0000
  C   C45       1.0  0.10558748449955149  0.5580552867247092  0.5764985994261238  1.0000
  C   C46       1.0  0.8944093221871724  0.05805035362711659  0.9235027728840846  1.0000
  C   C47       1.0  0.8944110597518886  0.441949778883405  0.42350451937029004  1.0000
  C   C48       1.0  0.10558928841728489  0.941948402055189  0.07649620659353927  1.0000
  C   C49       1.0  0.08418071020105342  0.4492176950797813  0.5849499146169632  1.0000
  C   C50       1.0  0.9158166593185086  0.9492141067483497  0.9150498461445479  1.0000
  C   C51       1.0  0.9158165206725642  0.5507873705290719  0.4150509439914103  1.0000
  C   C52       1.0  0.08418059366987046  0.0507846489332806  0.08494963269214398  1.0000
  C   C53       1.0  0.9797621807295656  0.39118008147260497  0.5090132489413435  1.0000
  C   C54       1.0  0.0202377906162852  0.8911758635325525  0.990987617151468  1.0000
  C   C55       1.0  0.020237721138485695  0.6088257728771751  0.4909893704957681  1.0000
  C   C56       1.0  0.9797594513125318  0.10882289214872291  0.009012551571999015  1.0000
  N   N1        1.0  0.22592787186201949  0.5825830339659248  0.12199318971309478  1.0000
  N   N2        1.0  0.7740679619988171  0.08258596041981288  0.37800579782770427  1.0000
  N   N3        1.0  0.7740707055632042  0.4174149329743244  0.8780078594250964  1.0000
  N   N4        1.0  0.2259320062233456  0.91741516148614  0.6219926822901484  1.0000
  N   N5        1.0  0.36078465467247867  0.6455687031135613  0.2654755299432522  1.0000
  N   N6        1.0  0.6392112662554865  0.14557248132160075  0.23452342027650988  1.0000
  N   N7        1.0  0.6392139116926359  0.35442847508534214  0.7345262090819488  1.0000
  N   N8        1.0  0.3607900485226451  0.8544278518436811  0.7654752503692848  1.0000
  N   N9        1.0  0.0522548733752828  0.6032168511788285  0.8725909483609939  1.0000
  N   N10       1.0  0.9477420178581183  0.1032114638683765  0.6274090174162977  1.0000
  N   N11       1.0  0.9477396643836824  0.396785848206413  0.12740952919266843  1.0000
  N   N12       1.0  0.0522592969161906  0.896783348109956  0.3725896532311381  1.0000
  N   N13       1.0  0.12385151079389801  0.6306832703645426  0.7360533757558371  1.0000
  N   N14       1.0  0.8761467760212795  0.1306753335866304  0.7639460743885137  1.0000
  N   N15       1.0  0.8761484131921975  0.3693210065039593  0.2639478639081928  1.0000
  N   N16       1.0  0.1238518567006679  0.8693210558734064  0.23605152531625603  1.0000
  Cl  Cl1       1.0  0.23798390573251987  0.3592158865937591  0.9752280120288999  1.0000
  Cl  Cl2       1.0  0.7620173901058676  0.8592141784957832  0.5247716837570094  1.0000
  Cl  Cl3       1.0  0.7620133804356397  0.6407844465709188  0.024769397146997083  1.0000
  Cl  Cl4       1.0  0.23798524910692007  0.1407822109641401  0.4752285571912153  1.0000
