data_image0
_chemical_formula_structural       Zn2H27C34BrN4O8
_chemical_formula_sum              "Zn2 H27 C34 Br1 N4 O8"
_cell_length_a       9.708490386233215
_cell_length_b       11.067596161683118
_cell_length_c       16.871173410106557
_cell_angle_alpha    88.84487945514704
_cell_angle_beta     85.39367291817813
_cell_angle_gamma    89.60965215862402

_space_group_name_H-M_alt    "P 1"
_space_group_IT_number       1

loop_
  _space_group_symop_operation_xyz
  'x, y, z'

loop_
  _atom_site_type_symbol
  _atom_site_label
  _atom_site_symmetry_multiplicity
  _atom_site_fract_x
  _atom_site_fract_y
  _atom_site_fract_z
  _atom_site_occupancy
  Zn  Zn1       1.0  0.6359137856162176  0.5168360367355902  0.5040587911252958  1.0000
  Zn  Zn2       1.0  0.3521463878775108  0.5206762760298672  0.4995154517792885  1.0000
  H   H1        1.0  0.6309173007716777  0.3444315271046747  0.7277291775122665  1.0000
  H   H2        1.0  0.2939688292524423  0.13196627051512164  0.4596498329193965  1.0000
  H   H3        1.0  0.819486267345546  0.13088135236500878  0.5376386892568803  1.0000
  H   H4        1.0  0.7272826588377936  0.1270096971613199  0.6338338682843201  1.0000
  H   H5        1.0  0.8229960887859278  0.9036974605883757  0.5381801031422315  1.0000
  H   H6        1.0  0.7293247954700988  0.9001605731957769  0.6333129640736745  1.0000
  H   H7        1.0  0.1258495197930714  0.37802410400940545  0.57296478468664  1.0000
  H   H8        1.0  0.8650896249303911  0.37321598502899883  0.5821540950074608  1.0000
  H   H9        1.0  0.8606488798601146  0.6806906270612955  0.3479018419961762  1.0000
  H   H10       1.0  0.853796987180111  0.7831315050524452  0.42892595693538743  1.0000
  H   H11       1.0  0.11148184519581147  0.7905988609470284  0.42178149208077553  1.0000
  H   H12       1.0  0.7605447147911093  0.4019278240805022  0.09482492527539679  1.0000
  H   H13       1.0  0.24541438716255465  0.5327421831016608  0.7700175768534551  1.0000
  H   H14       1.0  0.31729601895695225  0.38187499556558185  0.12423835249311574  1.0000
  H   H15       1.0  0.2472164073852241  0.4789503792052585  0.9161491970549565  1.0000
  H   H16       1.0  0.3260709226937024  0.43593977872236417  0.26737316671646033  1.0000
  H   H17       1.0  0.29771389757298283  0.907486539035176  0.45729108252096057  1.0000
  H   H18       1.0  0.294775597996761  0.8368619864183557  0.30803501992036086  1.0000
  H   H19       1.0  0.3547991680200652  0.6932007146627724  0.3392681160537735  1.0000
  H   H20       1.0  0.3326583747150877  0.7224033528569435  0.23709718189987689  1.0000
  H   H21       1.0  0.1334739600060999  0.6002709261221213  0.2924922719490156  1.0000
  H   H22       1.0  0.07638037502641738  0.7472376430447979  0.2698836838053823  1.0000
  H   H23       1.0  0.5373435107405911  0.1431997049935063  0.9623385920997833  1.0000
  H   H24       1.0  0.5411180159773038  0.08764290974307438  0.8640609147246465  1.0000
  H   H25       1.0  0.6878792543662583  0.069745228728145  0.9199987727229132  1.0000
  H   H26       1.0  0.7306069140757643  0.23651959271801806  0.8203240878112157  1.0000
  H   H27       1.0  0.7209865929261879  0.294300808505362  0.9180091979947848  1.0000
  C   C1        1.0  0.49500560882740524  0.753020010376751  0.503218029730057  1.0000
  C   C2        1.0  0.6683530552855854  0.4418610006978553  0.21257908403006812  1.0000
  C   C3        1.0  0.549137003900455  0.33892978348618635  0.849866780260925  1.0000
  C   C4        1.0  0.5471440525833202  0.37374225560629537  0.7701078241069512  1.0000
  C   C5        1.0  0.4411054553549574  0.3857480421398094  0.9030451794896667  1.0000
  C   C6        1.0  0.44281532663184453  0.44701339149872865  0.7412908212238849  1.0000
  C   C7        1.0  0.32935776725464894  0.48011604076062026  0.7928098478909933  1.0000
  C   C8        1.0  0.3295493537990168  0.44929478086189795  0.8730128172290891  1.0000
  C   C9        1.0  0.6004484921695122  0.9534563824335719  0.535546800691762  1.0000
  C   C10       1.0  0.4939451233923719  0.8873724152705194  0.5067429021948087  1.0000
  C   C11       1.0  0.38320265847134033  0.9559624577409948  0.4798620388613913  1.0000
  C   C12       1.0  0.5328289865747562  0.49231016683008727  0.3475525021096076  1.0000
  C   C13       1.0  0.3811723891020904  0.08190979334381149  0.4810747999782309  1.0000
  C   C14       1.0  0.49094605888209486  0.14786758743198186  0.5085387929104217  1.0000
  C   C15       1.0  0.5990366631043215  0.0796666444628116  0.5359627096202716  1.0000
  C   C16       1.0  0.7346577589294583  0.0872299228355757  0.5743902381528516  1.0000
  C   C17       1.0  0.7361423214485824  0.9443258791596703  0.5742267757024708  1.0000
  C   C18       1.0  0.06596263986203608  0.6014579494317331  0.452946475331217  1.0000
  C   C19       1.0  0.06659115083638768  0.4424479459048031  0.5395627369177021  1.0000
  C   C20       1.0  0.9227194733837221  0.43997149949826314  0.5447679358890056  1.0000
  C   C21       1.0  0.9217402957821008  0.5988061798433647  0.45900053761014453  1.0000
  C   C22       1.0  0.907376945829256  0.7040995077175082  0.40271737703301386  1.0000
  C   C23       1.0  0.4903872392776805  0.2824905656414956  0.5065276254356875  1.0000
  C   C24       1.0  0.07209299227235279  0.7094720340755671  0.39457192593335594  1.0000
  C   C25       1.0  0.45726907152630497  0.48947125589205603  0.6560952603107923  1.0000
  C   C26       1.0  0.5453699873962846  0.4547013745167873  0.2619398200913779  1.0000
  C   C27       1.0  0.42036409769346517  0.42928051352476604  0.22809760187279693  1.0000
  C   C28       1.0  0.41507208404336626  0.3986145374713246  0.1494018301350266  1.0000
  C   C29       1.0  0.5390752787043381  0.39132914850031847  0.10065532892663501  1.0000
  C   C30       1.0  0.6653261561019335  0.4096564676760224  0.13320145204968986  1.0000
  C   C31       1.0  0.1401235234893363  0.6953796480048737  0.3098422915107833  1.0000
  C   C32       1.0  0.28928353596850087  0.7391713538821986  0.298099018438947  1.0000
  C   C33       1.0  0.6604490702003147  0.2528029529816322  0.8736608548807754  1.0000
  C   C34       1.0  0.6030825663622892  0.13140625272558995  0.9069562708244023  1.0000
  Br  Br1       1.0  0.8495302880964883  0.4653373624305814  0.24624780848539274  1.0000
  N   N1        1.0  0.5483897329674434  0.37180085541032076  0.017799968954889785  1.0000
  N   N2        1.0  0.4346216456592983  0.38761043160707226  0.9867362247539551  1.0000
  N   N3        1.0  0.1415050198619099  0.5244439465037515  0.4931646127113398  1.0000
  N   N4        1.0  0.8470302541753937  0.5199154708482892  0.5040927669200388  1.0000
  O   O1        1.0  0.6086839376243062  0.6993811205640198  0.5143839028724388  1.0000
  O   O2        1.0  0.3828267259005784  0.7014219402577593  0.48869841604124536  1.0000
  O   O3        1.0  0.639318009209262  0.5260447319481472  0.3799928230117829  1.0000
  O   O4        1.0  0.41089093050061365  0.48781076071404783  0.3818371900323144  1.0000
  O   O5        1.0  0.6080968167292369  0.3332301650140295  0.4956897134926452  1.0000
  O   O6        1.0  0.3734455251784112  0.33560792518223076  0.5151783370216807  1.0000
  O   O7        1.0  0.5798204724290413  0.48718343774909556  0.6226387118751832  1.0000
  O   O8        1.0  0.3492595896539044  0.524154063695903  0.6236781768346376  1.0000
