data_image0
_chemical_formula_structural       Zn4P4H36C44O12
_chemical_formula_sum              "Zn4 P4 H36 C44 O12"
_cell_length_a       5.1449688761122845
_cell_length_b       10.371439560922026
_cell_length_c       19.462231571525955
_cell_angle_alpha    91.67595779655497
_cell_angle_beta     90.00017516726261
_cell_angle_gamma    90.00073404007661

_space_group_name_H-M_alt    "P 1"
_space_group_IT_number       1

loop_
  _space_group_symop_operation_xyz
  'x, y, z'

loop_
  _atom_site_type_symbol
  _atom_site_label
  _atom_site_symmetry_multiplicity
  _atom_site_fract_x
  _atom_site_fract_y
  _atom_site_fract_z
  _atom_site_occupancy
  Zn  Zn1       1.0  0.22265659508770594  0.3535981579046847  0.4962200716373104  1.0000
  Zn  Zn2       1.0  0.7226570198882739  0.14640381710470507  0.5037793854005983  1.0000
  Zn  Zn3       1.0  0.777334306944553  0.6464040107032788  0.5037825890108039  1.0000
  Zn  Zn4       1.0  0.2773338821451574  0.8535992846903612  0.4962217428678955  1.0000
  P   P1        1.0  0.25813448504352726  0.5923720859015873  0.4108076989741889  1.0000
  P   P2        1.0  0.7581447449470529  0.9076358770656514  0.5891951243015472  1.0000
  P   P3        1.0  0.7418603042652804  0.40762910772485844  0.5891944382612593  1.0000
  P   P4        1.0  0.24184615711988033  0.0923701079046211  0.4108055184155007  1.0000
  H   H1        1.0  0.0747072617573536  0.7413872258051343  0.21261675030710592  1.0000
  H   H2        1.0  0.5747087187028798  0.7586137042705232  0.7873827978717642  1.0000
  H   H3        1.0  0.9252894710609779  0.2586061469716441  0.7873801717195051  1.0000
  H   H4        1.0  0.4252802397711193  0.24139614931448253  0.21261839665563542  1.0000
  H   H5        1.0  0.022575777229249604  0.6152671318848631  0.3077734368544185  1.0000
  H   H6        1.0  0.5225830129571634  0.8847460742323963  0.6922297937621593  1.0000
  H   H7        1.0  0.9774228994516888  0.38474079264684485  0.692227738745224  1.0000
  H   H8        1.0  0.4774078890886883  0.11525799210497922  0.307771343971993  1.0000
  H   H9        1.0  0.24964201234939762  0.7400923052682131  0.321286610740657  1.0000
  H   H10       1.0  0.7496322556722461  0.7599146383252915  0.678716196829825  1.0000
  H   H11       1.0  0.7503741571028115  0.2599117716023828  0.6787150409511895  1.0000
  H   H12       1.0  0.2503625336749806  0.24009038211519143  0.3212844364229852  1.0000
  H   H13       1.0  0.6019029044825784  0.44554066994187747  0.3414960489670946  1.0000
  H   H14       1.0  0.10192625656044639  0.054465464096949696  0.6585090202244431  1.0000
  H   H15       1.0  0.3980957721662647  0.5544625154921691  0.6585091908916638  1.0000
  H   H16       1.0  0.8980685327394511  0.9455375645484594  0.3414885104064851  1.0000
  H   H17       1.0  0.9100623674946601  0.3529628633483953  0.2570753438984568  1.0000
  H   H18       1.0  0.41010093965691397  0.14702694216846623  0.7429302855441265  1.0000
  H   H19       1.0  0.0899246471059598  0.6470268289073644  0.7429302773852129  1.0000
  H   H20       1.0  0.5899055114613673  0.8529731301771548  0.2570641330035386  1.0000
  H   H21       1.0  0.0719764412964068  0.8069299386372395  0.09367261480520031  1.0000
  H   H22       1.0  0.5719604000194138  0.6930651969691227  0.9063273885176883  1.0000
  H   H23       1.0  0.928030009682942  0.19305765736871194  0.9063247643794412  1.0000
  H   H24       1.0  0.428032445772132  0.30694658571304967  0.09367382494245652  1.0000
  H   H25       1.0  0.9127446784726841  0.4251349003309102  0.13691627790655764  1.0000
  H   H26       1.0  0.4127753179401381  0.07485001613275699  0.8630851945858211  1.0000
  H   H27       1.0  0.08724427965738359  0.5748479565209836  0.8630851655307836  1.0000
  H   H28       1.0  0.5872350204385272  0.9251481062372875  0.1369081771350906  1.0000
  H   H29       1.0  0.722381117492759  0.5566409800334569  0.0468290432273832  1.0000
  H   H30       1.0  0.22238747568485448  0.9433552196514443  0.9531756960148954  1.0000
  H   H31       1.0  0.2776350518118491  0.4433496664068883  0.9531760735842171  1.0000
  H   H32       1.0  0.7776325810150765  0.056648731810796  0.0468197882972561  1.0000
  H   H33       1.0  0.3935704035538308  0.7157134864676848  0.0089975603760948  1.0000
  H   H34       1.0  0.8935617767347352  0.7842837544364087  0.9910042207983524  1.0000
  H   H35       1.0  0.6064457656809593  0.28427510546714524  0.9910013701230511  1.0000
  H   H36       1.0  0.10645050548544079  0.2157270010556758  0.0089938995127028  1.0000
  C   C1        1.0  0.4104023500767938  0.5695506532186699  0.270699017296927  1.0000
  C   C2        1.0  0.910413221652732  0.9304553876279658  0.7293033753762614  1.0000
  C   C3        1.0  0.5895943828249415  0.4304466717930354  0.7293025681281691  1.0000
  C   C4        1.0  0.08957962408281617  0.0695534491685521  0.2706952399447644  1.0000
  C   C5        1.0  0.5861633364892356  0.5558687486376925  0.1520395800415741  1.0000
  C   C6        1.0  0.0861798962732578  0.9441236162915487  0.8479619471527116  1.0000
  C   C7        1.0  0.4138372836506221  0.44412377457844343  0.8479629859535011  1.0000
  C   C8        1.0  0.9138304421775629  0.05587842695820199  0.15203454612140632  1.0000
  C   C9        1.0  0.21885313263316422  0.7003290607801349  0.1773602183710281  1.0000
  C   C10       1.0  0.7188483624485045  0.7996737633961645  0.8226394450534826  1.0000
  C   C11       1.0  0.7811552620534529  0.2996624247565692  0.822638740522244  1.0000
  C   C12       1.0  0.2811367087847927  0.20034181471976356  0.17735872257588883  1.0000
  C   C13       1.0  0.4022798680481117  0.6092343122725341  0.2007403881374401  1.0000
  C   C14       1.0  0.9022926509928199  0.8907639494091412  0.7992614089020122  1.0000
  C   C15       1.0  0.5977149211041919  0.3907552859426318  0.7992606076132278  1.0000
  C   C16       1.0  0.09770213840150178  0.10924585193596668  0.20073721588538973  1.0000
  C   C17       1.0  0.22669786124755126  0.634383219268969  0.32186166161885416  1.0000
  C   C18       1.0  0.7267024655385015  0.8656264386786533  0.6781396156708936  1.0000
  C   C19       1.0  0.773306646317856  0.36561990347344425  0.678140494551478  1.0000
  C   C20       1.0  0.27329038016354446  0.13437951494265832  0.3218594852015784  1.0000
  C   C21       1.0  0.5894363826706552  0.4765950535438109  0.2886434470112179  1.0000
  C   C22       1.0  0.08945385200498629  0.023411954171606904  0.7113611085467612  1.0000
  C   C23       1.0  0.4105622939570992  0.5234062132573457  0.7113622878646453  1.0000
  C   C24       1.0  0.9105409372836633  0.9765910431185816  0.288634880238881  1.0000
  C   C25       1.0  0.7687814472089798  0.4237911360673721  0.24038954277228436  1.0000
  C   C26       1.0  0.2688106656508182  0.076201574678926  0.7596139650559836  1.0000
  C   C27       1.0  0.2312016800602734  0.5761975184713536  0.7596124714053047  1.0000
  C   C28       1.0  0.7311860672766953  0.9238014017140448  0.2403809958335188  1.0000
  C   C29       1.0  0.21621560066101608  0.7371161872911288  0.10983757028846952  1.0000
  C   C30       1.0  0.716212781756333  0.7628779599049909  0.8901630339071076  1.0000
  C   C31       1.0  0.7837908503246639  0.2628704964312121  0.8901623691726499  1.0000
  C   C32       1.0  0.28378589491710926  0.23712994372323956  0.10983711379568462  1.0000
  C   C33       1.0  0.7703208550794542  0.46359996471066023  0.173596921857154  1.0000
  C   C34       1.0  0.27035582447178547  0.0363879019148285  0.8264049979293516  1.0000
  C   C35       1.0  0.22966032852986018  0.5363867920923866  0.8264066152336796  1.0000
  C   C36       1.0  0.7296447957161049  0.9636131245025722  0.1735889161334043  1.0000
  C   C37       1.0  0.5798640189522003  0.5968864697434881  0.08309450136788851  1.0000
  C   C38       1.0  0.07988049813594242  0.9031058441102575  0.916906507255149  1.0000
  C   C39       1.0  0.4201327138490285  0.40310220574259154  0.916908540711546  1.0000
  C   C40       1.0  0.9201376148592998  0.09689329508587724  0.083089443676414  1.0000
  C   C41       1.0  0.3981612808908821  0.6853236396856417  0.0621408379683146  1.0000
  C   C42       1.0  0.8981662902242816  0.8146687663498683  0.937858843458166  1.0000
  C   C43       1.0  0.6018548883514043  0.31466497315267367  0.9378591204276889  1.0000
  C   C44       1.0  0.10185571012576132  0.18533519557038153  0.0621371548031249  1.0000
  O   O1        1.0  0.1014626897899902  0.697140599252542  0.4546777041216359  1.0000
  O   O2        1.0  0.6014677058326541  0.802865378347235  0.5453244807635969  1.0000
  O   O3        1.0  0.8985340431614189  0.3028605839284282  0.5453239191661013  1.0000
  O   O4        1.0  0.3985251398558061  0.19713867754467168  0.4546761430228372  1.0000
  O   O5        1.0  0.5447428575055469  0.5990819962864506  0.4305349276887753  1.0000
  O   O6        1.0  0.0447543932578895  0.9009246637115922  0.5694713366277568  1.0000
  O   O7        1.0  0.45525193175241435  0.40091440598363465  0.5694687040636525  1.0000
  O   O8        1.0  0.9552365088127958  0.09908133171041561  0.4305298200377123  1.0000
  O   O9        1.0  0.13066269889685603  0.4600569329450652  0.42033127204695836  1.0000
  O   O10       1.0  0.63067701406559  0.0399464092920141  0.5796696782624053  1.0000
  O   O11       1.0  0.8693301467780115  0.5399452252174228  0.5796708746534378  1.0000
  O   O12       1.0  0.36931194433014974  0.960057646587359  0.4203309455226076  1.0000
