data_image0
_chemical_formula_structural       Zn4H36C64N4O16F4
_chemical_formula_sum              "Zn4 H36 C64 N4 O16 F4"
_cell_length_a       10.90731985183868
_cell_length_b       10.990077621250498
_cell_length_c       18.391085908843404
_cell_angle_alpha    87.21813636538776
_cell_angle_beta     85.06149056090396
_cell_angle_gamma    69.77613281179437

_space_group_name_H-M_alt    "P 1"
_space_group_IT_number       1

loop_
  _space_group_symop_operation_xyz
  'x, y, z'

loop_
  _atom_site_type_symbol
  _atom_site_label
  _atom_site_symmetry_multiplicity
  _atom_site_fract_x
  _atom_site_fract_y
  _atom_site_fract_z
  _atom_site_occupancy
  Zn  Zn1       1.0  0.34158143970253724  0.24225139455609218  0.5780837024023312  1.0000
  Zn  Zn2       1.0  0.3200144118791783  0.23722258191473597  0.7358384432520069  1.0000
  Zn  Zn3       1.0  0.6584192085133368  0.7577494553289696  0.421915945821965  1.0000
  Zn  Zn4       1.0  0.6799847203702286  0.7627773124515472  0.2641613091223006  1.0000
  H   H1        1.0  0.7528683015878386  0.21088660317671065  0.5440511971333422  1.0000
  H   H2        1.0  0.9656296436430483  0.24966215154036323  0.5485292418664898  1.0000
  H   H3        1.0  0.9176112549411857  0.2498624034497681  0.7824080313848825  1.0000
  H   H4        1.0  0.7024942292338565  0.21497982912035246  0.7780272361960243  1.0000
  H   H5        1.0  0.357431207019637  0.6267252898419003  0.5371030357480534  1.0000
  H   H6        1.0  0.37049901257225304  0.8487566574793421  0.5374796127230681  1.0000
  H   H7        1.0  0.3182231017652128  0.8480696001161975  0.771724426637931  1.0000
  H   H8        1.0  0.30375298850063365  0.6244792546382952  0.7709675979125734  1.0000
  H   H9        1.0  0.35021594695962927  0.05837489575863941  0.4624364529516356  1.0000
  H   H10       1.0  0.3371395986981227  0.06361190351687898  0.32769499036187705  1.0000
  H   H11       1.0  0.30218034661820786  0.4684560511205831  0.3281401913742883  1.0000
  H   H12       1.0  0.31467989391676815  0.44578301533201875  0.4629334371949128  1.0000
  H   H13       1.0  0.46139998362816226  0.07695356159943861  0.22305597147698816  1.0000
  H   H14       1.0  0.4556092913084555  0.0749122210366764  0.08955533419393191  1.0000
  H   H15       1.0  0.5214966634965563  0.15807858635225364  0.9829804418930621  1.0000
  H   H16       1.0  0.5153578954096929  0.14791532021941123  0.8476211694704929  1.0000
  H   H17       1.0  0.11648566760965914  0.34576070392026986  0.8570604723970732  1.0000
  H   H18       1.0  0.10401896921806034  0.36765113480489486  0.9922959656553161  1.0000
  H   H19       1.0  0.24713116394975296  0.789112312573451  0.4559507403419545  1.0000
  H   H20       1.0  0.03436830109107798  0.7503358196351471  0.45147008098694386  1.0000
  H   H21       1.0  0.0823890628887014  0.7501394184849346  0.21759106300154227  1.0000
  H   H22       1.0  0.297504840354513  0.7850229610908956  0.2219740701576569  1.0000
  H   H23       1.0  0.6425688488896952  0.3732745951645455  0.46289721334737516  1.0000
  H   H24       1.0  0.6295028867873356  0.1512432175627083  0.4625194547970962  1.0000
  H   H25       1.0  0.6817757010656039  0.1519312641108996  0.22827531565287984  1.0000
  H   H26       1.0  0.6962476587478436  0.37552159743559343  0.2290315065573481  1.0000
  H   H27       1.0  0.6497841079823061  0.9416249914366259  0.537563252389411  1.0000
  H   H28       1.0  0.6628576891336238  0.9363880030026125  0.6723053998333128  1.0000
  H   H29       1.0  0.6978187856311991  0.5315438432457  0.6718595610000122  1.0000
  H   H30       1.0  0.6853210846850857  0.5542168625034023  0.5370667648672551  1.0000
  H   H31       1.0  0.5386009969084996  0.9230463118583285  0.7769453180939293  1.0000
  H   H32       1.0  0.5443926109533307  0.9250876474389005  0.9104453645893499  1.0000
  H   H33       1.0  0.47850490934663975  0.8419222519841442  0.017020246806730185  1.0000
  H   H34       1.0  0.4846449305120189  0.8520845388963209  0.1523800260339172  1.0000
  H   H35       1.0  0.8835160353926099  0.654234331782078  0.142939827115832  1.0000
  H   H36       1.0  0.8959814807056932  0.6323448801181187  0.007703827052971174  1.0000
  C   C1        1.0  0.7145494436848597  0.211422225952454  0.6608075725770917  1.0000
  C   C2        1.0  0.7889239868531632  0.22054605310383116  0.5960265228349684  1.0000
  C   C3        1.0  0.9069527711154495  0.24207938680979874  0.5984108737224573  1.0000
  C   C4        1.0  0.9529441120661348  0.2536746859873702  0.6657092636262973  1.0000
  C   C5        1.0  0.8799248496473808  0.24204824309999404  0.7305693115805312  1.0000
  C   C6        1.0  0.7613957589403384  0.22183067984234836  0.7281185524553564  1.0000
  C   C7        1.0  0.5829315551663753  0.1973709920652738  0.6587065176244948  1.0000
  C   C8        1.0  0.08245975376495103  0.2723123270564827  0.6681050349314573  1.0000
  C   C9        1.0  0.3275164774705033  0.6135181503877192  0.6540062345413205  1.0000
  C   C10       1.0  0.34718138829623524  0.6764432176776579  0.5882619219089946  1.0000
  C   C11       1.0  0.3548010188276791  0.8001074457615688  0.5885619388799199  1.0000
  C   C12       1.0  0.3442634881983864  0.8621057328006999  0.6547822875676275  1.0000
  C   C13       1.0  0.32628206255705544  0.7985649435158565  0.7207011268182768  1.0000
  C   C14       1.0  0.31792233321338864  0.6751613080512158  0.7203219190494394  1.0000
  C   C15       1.0  0.31900929984140447  0.4803742316613366  0.6533592783096367  1.0000
  C   C16       1.0  0.3507772983308116  0.9959916782662075  0.6550055303671982  1.0000
  C   C17       1.0  0.33838572041880616  0.14706607921053919  0.4303609750324923  1.0000
  C   C18       1.0  0.3315564306947679  0.1509441882927405  0.35529113766054365  1.0000
  C   C19       1.0  0.3185904179400723  0.26672438825904987  0.31585922538429395  1.0000
  C   C20       1.0  0.3112071494894197  0.37575216687137913  0.355135456954187  1.0000
  C   C21       1.0  0.31877141044028434  0.36415850500169  0.430254258734493  1.0000
  C   C22       1.0  0.31705233123697957  0.26855449880834203  0.2356850079489234  1.0000
  C   C23       1.0  0.39585660450471494  0.16062144709820098  0.1947548417369518  1.0000
  C   C24       1.0  0.3941109630806849  0.16049452438289788  0.11943382432279039  1.0000
  C   C25       1.0  0.313064713861877  0.2668514083291527  0.08009914088550829  1.0000
  C   C26       1.0  0.2350797642172253  0.37380285485370723  0.1210641193502937  1.0000
  C   C27       1.0  0.23722911606491692  0.3748739586529837  0.19673788914779783  1.0000
  C   C28       1.0  0.3123345305570099  0.26308969932136966  0.00012538394187799329  1.0000
  C   C29       1.0  0.4288470090714611  0.19990368789203225  0.9577253221064836  1.0000
  C   C30       1.0  0.4268017145060058  0.1933925542869304  0.8827019637179347  1.0000
  C   C31       1.0  0.2035268649287545  0.30612416031485173  0.887730822119039  1.0000
  C   C32       1.0  0.19782383252266567  0.3178880675292958  0.9629836684119084  1.0000
  C   C33       1.0  0.2854499524198957  0.7885796009644466  0.3391921125969687  1.0000
  C   C34       1.0  0.21107481791245414  0.7794548067456193  0.4039743069645922  1.0000
  C   C35       1.0  0.09304543940882587  0.757920512538682  0.4015894694394717  1.0000
  C   C36       1.0  0.047056272294383875  0.7463242313470745  0.3342904517982461  1.0000
  C   C37       1.0  0.12007362569965346  0.7579535866102773  0.2694315081355327  1.0000
  C   C38       1.0  0.2386033087132304  0.7781721147465462  0.2718816663895751  1.0000
  C   C39       1.0  0.41706757901783237  0.8026288979233556  0.3412943222585554  1.0000
  C   C40       1.0  0.9175393775170522  0.7276875694986201  0.3318941736884681  1.0000
  C   C41       1.0  0.6724841707453706  0.3864826994973426  0.3459934136829759  1.0000
  C   C42       1.0  0.652818667613097  0.32355666732878063  0.411738327186427  1.0000
  C   C43       1.0  0.645199958806785  0.1998924342626793  0.4114377194278731  1.0000
  C   C44       1.0  0.6557371590500907  0.13789511927318895  0.345216816902294  1.0000
  C   C45       1.0  0.6737173325803029  0.20143688558986375  0.2792980146014017  1.0000
  C   C46       1.0  0.6820773923099566  0.32483954900486367  0.2796777762081177  1.0000
  C   C47       1.0  0.6809910189558791  0.5196275880845392  0.34664035983116287  1.0000
  C   C48       1.0  0.6492224252577401  0.004009183167525498  0.3449930773816092  1.0000
  C   C49       1.0  0.6616124901054761  0.8529338201379421  0.5696393681294438  1.0000
  C   C50       1.0  0.6684408571369783  0.8490557182267582  0.6447092525346463  1.0000
  C   C51       1.0  0.681406539505687  0.7332764903100893  0.6841406109730244  1.0000
  C   C52       1.0  0.6887910600674587  0.6242477346659215  0.6448643424533742  1.0000
  C   C53       1.0  0.6812286454690478  0.6358413800047559  0.5697459903609285  1.0000
  C   C54       1.0  0.682945547933912  0.7314463747785992  0.7643142376207662  1.0000
  C   C55       1.0  0.6041434514046173  0.8393784379082447  0.8052454073584698  1.0000
  C   C56       1.0  0.605890345907156  0.8395043814028823  0.8805669315772492  1.0000
  C   C57       1.0  0.6869344203223237  0.7331484816594767  0.9199016989975419  1.0000
  C   C58       1.0  0.7649196974507646  0.6261960696517548  0.8789356431075105  1.0000
  C   C59       1.0  0.7627712682956015  0.6251249586814609  0.8032618262767457  1.0000
  C   C60       1.0  0.6876674363006146  0.7369072689315957  0.99987484837078  1.0000
  C   C61       1.0  0.5711552216415114  0.8000952129115574  0.042274843005920076  1.0000
  C   C62       1.0  0.5732014388994954  0.8066063393456345  0.11729815436121528  1.0000
  C   C63       1.0  0.7964745076875205  0.693871847437144  0.11226892355599458  1.0000
  C   C64       1.0  0.802178133367555  0.6821089029124964  0.037016020146374694  1.0000
  N   N1        1.0  0.33244846371778886  0.2519664860791195  0.4673337829754374  1.0000
  N   N2        1.0  0.3159724131701793  0.24465310451616065  0.8481457756805711  1.0000
  N   N3        1.0  0.667552513916668  0.7480333939451284  0.5326658753323555  1.0000
  N   N4        1.0  0.6840295527200412  0.7553438659256314  0.1518539128777121  1.0000
  O   O1        1.0  0.540164141534774  0.19739128845299087  0.596427400317431  1.0000
  O   O2        1.0  0.5221416682900468  0.18874855905909976  0.7202487473939881  1.0000
  O   O3        1.0  0.12351758609403164  0.273402823711045  0.7310177148491164  1.0000
  O   O4        1.0  0.14346910149888714  0.2819233376566288  0.6073054633942405  1.0000
  O   O5        1.0  0.32719785402371576  0.43071021260992376  0.5911718143375069  1.0000
  O   O6        1.0  0.3060831763621863  0.4263323968748907  0.7149742312907179  1.0000
  O   O7        1.0  0.3461568429292896  0.04523314694196761  0.7170602700841328  1.0000
  O   O8        1.0  0.35985713042938994  0.05081847994406981  0.593178094455915  1.0000
  O   O9        1.0  0.4598349926494265  0.8026086015356456  0.4035734395656263  1.0000
  O   O10       1.0  0.47785687262021537  0.811250368239733  0.27975214960581246  1.0000
  O   O11       1.0  0.8764824678804999  0.7265970656730403  0.2689814467375625  1.0000
  O   O12       1.0  0.8565309534430485  0.7180765495386366  0.3926942419468062  1.0000
  O   O13       1.0  0.6728022009182127  0.5692896745853346  0.40882789100353983  1.0000
  O   O14       1.0  0.693916877612345  0.5736674925092018  0.285024930295961  1.0000
  O   O15       1.0  0.6538425512406716  0.9547686843525796  0.2829383275811707  1.0000
  O   O16       1.0  0.6401425931591617  0.9491823814896635  0.40682051329288527  1.0000
  F   F1        1.0  0.1561982799416982  0.4818090206635829  0.2314479666405376  1.0000
  F   F2        1.0  0.15555825288232933  0.4826632393912292  0.0880001714690621  1.0000
  F   F3        1.0  0.8438002590337633  0.5181899110129038  0.7685518428505134  1.0000
  F   F4        1.0  0.8444406164791188  0.5173347202356099  0.9120001918598604  1.0000
