data_image0
_chemical_formula_structural       Cu2H14C10N4O8
_chemical_formula_sum              "Cu2 H14 C10 N4 O8"
_cell_length_a       7.2412524208314295
_cell_length_b       7.250436112945744
_cell_length_c       7.70025576720679
_cell_angle_alpha    88.9842406906939
_cell_angle_beta     77.11280249948211
_cell_angle_gamma    87.01539393428136

_space_group_name_H-M_alt    "P 1"
_space_group_IT_number       1

loop_
  _space_group_symop_operation_xyz
  'x, y, z'

loop_
  _atom_site_type_symbol
  _atom_site_label
  _atom_site_symmetry_multiplicity
  _atom_site_fract_x
  _atom_site_fract_y
  _atom_site_fract_z
  _atom_site_occupancy
  Cu  Cu1       1.0  0.3618464726805398  0.20854868071810984  0.5266363831671725  1.0000
  Cu  Cu2       1.0  0.6381642850443257  0.7914435535594677  0.47335699036280954  1.0000
  H   H1        1.0  0.6805460760631374  0.3043888377428702  0.5715584254349012  1.0000
  H   H2        1.0  0.3194562145510814  0.6956278613215121  0.4284348906044215  1.0000
  H   H3        1.0  0.5590752201113318  0.21140804608747737  0.7550477525411168  1.0000
  H   H4        1.0  0.44093667807938164  0.7886106513466873  0.24495140786834918  1.0000
  H   H5        1.0  0.509554545390948  0.43354206071446555  0.7120316784858147  1.0000
  H   H6        1.0  0.4904442906994219  0.5664674908887264  0.28796375336975905  1.0000
  H   H7        1.0  0.15187711959196545  0.4723894246272025  0.7007648591387153  1.0000
  H   H8        1.0  0.8481134104885724  0.5276195843461053  0.299220546686378  1.0000
  H   H9        1.0  0.10396590557142814  0.27574373530663376  0.8120158031972124  1.0000
  H   H10       1.0  0.8960262528935629  0.7242751094710942  0.18797559395675728  1.0000
  H   H11       1.0  0.026082274345697  0.32049691133951097  0.6243822789741318  1.0000
  H   H12       1.0  0.9739194643626519  0.6795127977810866  0.37560607865837164  1.0000
  H   H13       1.0  0.6867384455584684  0.020861668245068216  0.9213459974277284  1.0000
  H   H14       1.0  0.31325586378488157  0.9791240487654421  0.0786637549945084  1.0000
  C   C1        1.0  0.05905697737193797  0.1671599434939566  0.3246381203170614  1.0000
  C   C2        1.0  0.9409494180542024  0.8328320559674584  0.6753665155621037  1.0000
  C   C3        1.0  0.02547885487002329  0.0834360544669792  0.15693185193152465  1.0000
  C   C4        1.0  0.9745145212637565  0.9165481425657732  0.8430534375096812  1.0000
  C   C5        1.0  0.8246020639956412  0.013890680963846994  0.9566012123991854  1.0000
  C   C6        1.0  0.17540627287597493  0.9860959083108723  0.043410927753157594  1.0000
  C   C7        1.0  0.8474032025087579  0.09833178726736243  0.11156710936494818  1.0000
  C   C8        1.0  0.15257574126589188  0.9016752365543895  0.888457003119875  1.0000
  C   C9        1.0  0.6767849134866921  0.1979234169948327  0.22555183539046922  1.0000
  C   C10       1.0  0.3232092544860947  0.8020636755369068  0.7744566214683887  1.0000
  N   N1        1.0  0.5489581122160985  0.30474704055628626  0.6563710621221688  1.0000
  N   N2        1.0  0.45104757952433516  0.6952643256201583  0.3436255700642334  1.0000
  N   N3        1.0  0.13611181550622575  0.33361965448434466  0.6877206688362278  1.0000
  N   N4        1.0  0.8638905724018997  0.6663845379517925  0.3122663609040402  1.0000
  O   O1        1.0  0.5853218401257649  0.09735984526655272  0.3525948926965796  1.0000
  O   O2        1.0  0.4146833770921035  0.9026195381489259  0.6473933226889486  1.0000
  O   O3        1.0  0.6313953169340394  0.3590250606015176  0.18549855605106558  1.0000
  O   O4        1.0  0.3685953053748533  0.64095625123057  0.8145068149731999  1.0000
  O   O5        1.0  0.21444953797497843  0.10848459203368323  0.3653586760589604  1.0000
  O   O6        1.0  0.7855583078109303  0.8915061354843631  0.6346547855198496  1.0000
  O   O7        1.0  0.9388270980510285  0.2840612467500989  0.40929298356086014  1.0000
  O   O8        1.0  0.06118661695810347  0.71595341309871  0.5907110835292501  1.0000
