data_image0
_chemical_formula_structural       NaH20AuC16S6N4O4
_chemical_formula_sum              "Na1 H20 Au1 C16 S6 N4 O4"
_cell_length_a       7.3247627436145315
_cell_length_b       9.163953375899508
_cell_length_c       10.137721327839717
_cell_angle_alpha    63.161785673806385
_cell_angle_beta     76.70036941945163
_cell_angle_gamma    85.63364168416315

_space_group_name_H-M_alt    "P 1"
_space_group_IT_number       1

loop_
  _space_group_symop_operation_xyz
  'x, y, z'

loop_
  _atom_site_type_symbol
  _atom_site_label
  _atom_site_symmetry_multiplicity
  _atom_site_fract_x
  _atom_site_fract_y
  _atom_site_fract_z
  _atom_site_occupancy
  Na  Na1       1.0  1.041097995400239e-06  9.260983163001319e-07  0.999998957877665  1.0000
  H   H1        1.0  0.880043488221965  0.6013551098031799  0.2902114136800904  1.0000
  H   H2        1.0  0.11995465603114752  0.3986444342779052  0.7097921465979838  1.0000
  H   H3        1.0  0.5149829871006448  0.394487052894135  0.39590451601341686  1.0000
  H   H4        1.0  0.4850123978011427  0.605513743828446  0.6040960401295195  1.0000
  H   H5        1.0  0.9047646672476547  0.6859909164588059  0.8884649413182545  1.0000
  H   H6        1.0  0.09523903717867203  0.3140074235174382  0.11153423162409846  1.0000
  H   H7        1.0  0.6685200376641164  0.6224907696247541  0.988670787673243  1.0000
  H   H8        1.0  0.3314823121576467  0.3775087968092024  0.011328116834498407  1.0000
  H   H9        1.0  0.8570141057559088  0.5407228697158217  0.08437086989847842  1.0000
  H   H10       1.0  0.1429882447329049  0.45927668895627244  0.9156290240609554  1.0000
  H   H11       1.0  0.7689568751376402  0.28286143478657516  0.12791292176817143  1.0000
  H   H12       1.0  0.2310427180009925  0.7171393532414213  0.8720869364111863  1.0000
  H   H13       1.0  0.5326125404387555  0.2018168103212901  0.20672404417370427  1.0000
  H   H14       1.0  0.4673871008409309  0.7981852012662289  0.7932753129165209  1.0000
  H   H15       1.0  0.6359202825816795  0.2565090718264856  0.012219965321961037  1.0000
  H   H16       1.0  0.364082164856285  0.7434929262027836  0.9877799159108991  1.0000
  H   H17       1.0  0.693887899295618  0.7654923075297829  0.12178944733425108  1.0000
  H   H18       1.0  0.3061159007457661  0.23450848732736057  0.8782077339781439  1.0000
  H   H19       1.0  0.7340691146407398  0.9864652355179186  0.2692160271368209  1.0000
  H   H20       1.0  0.26593192871750665  0.0135367809332649  0.7307821078471903  1.0000
  Au  Au1       1.0  0.9999983385445292  3.0927802189956397e-07  0.49999907236599483  1.0000
  C   C1        1.0  0.0531050526408166  0.39065669844843137  0.3693097530238917  1.0000
  C   C2        1.0  0.9468916875325848  0.6093428640545753  0.6306920610053413  1.0000
  C   C3        1.0  0.01775915003369729  0.5564185268927913  0.31036460321781334  1.0000
  C   C4        1.0  0.9822376877558984  0.4435834672055278  0.6896381875365308  1.0000
  C   C5        1.0  0.16375951744097964  0.6673528935420237  0.27703205790364654  1.0000
  C   C6        1.0  0.8362414296351661  0.33264667579012297  0.7229670792586306  1.0000
  C   C7        1.0  0.3463175025508249  0.608959546753951  0.3063792734376492  1.0000
  C   C8        1.0  0.6536820424467535  0.39104001771453056  0.6936210858308414  1.0000
  C   C9        1.0  0.3789554430028517  0.4397470477195852  0.37067115054676963  1.0000
  C   C10       1.0  0.6210440525195723  0.5602513087130988  0.6293277309074699  1.0000
  C   C11       1.0  0.23391324074523118  0.33216152652293823  0.40119336958695573  1.0000
  C   C12       1.0  0.7660820973496032  0.6678380311163962  0.5988096665484904  1.0000
  C   C13       1.0  0.8067715469674116  0.6513590247805963  0.9982933627188048  1.0000
  C   C14       1.0  0.19323220559996912  0.3486405387551627  0.0017053091344152575  1.0000
  C   C15       1.0  0.6636527697489855  0.20462393506836213  0.1263097491946468  1.0000
  C   C16       1.0  0.33634822680230775  0.7953768422995822  0.8736908657818744  1.0000
  S   S1        1.0  0.36160522384624033  0.9034922666091418  0.1950679947619349  1.0000
  S   S2        1.0  0.6383956750888516  0.09650607916348257  0.8049316434894678  1.0000
  S   S3        1.0  0.8713582004968999  0.2570583676603135  0.40213207564115555  1.0000
  S   S4        1.0  0.12863578232631312  0.7429424241985955  0.5978697026080084  1.0000
  S   S5        1.0  0.2795892126675241  0.12257963739293129  0.4768898165892708  1.0000
  S   S6        1.0  0.7204075261717762  0.8774199406337999  0.5231100185365848  1.0000
  N   N1        1.0  0.15629187915060783  0.832537339361771  0.21317146687751898  1.0000
  N   N2        1.0  0.8437077139880247  0.16746344866622556  0.7868283913018389  1.0000
  N   N3        1.0  0.4714666183116876  0.732455038763085  0.2633708250369652  1.0000
  N   N4        1.0  0.5285342806234113  0.2675433070095465  0.7366288132144376  1.0000
  O   O1        1.0  0.7993256661825543  0.7863826725070311  0.033568531760359094  1.0000
  O   O2        1.0  0.20067953660444005  0.2136181194519153  0.9664284168975074  1.0000
  O   O3        1.0  0.7299516309970359  0.04273584852730039  0.16080811684246038  1.0000
  O   O4        1.0  0.2700493642201565  0.9572649443643683  0.8391905192306839  1.0000
