data_image0
_chemical_formula_structural       Zn2H48C56N4O16
_chemical_formula_sum              "Zn2 H48 C56 N4 O16"
_cell_length_a       14.016725090705698
_cell_length_b       15.196142316154022
_cell_length_c       15.857582842776944
_cell_angle_alpha    90.3836660744936
_cell_angle_beta     117.95182284054238
_cell_angle_gamma    92.5867367887488

_space_group_name_H-M_alt    "P 1"
_space_group_IT_number       1

loop_
  _space_group_symop_operation_xyz
  'x, y, z'

loop_
  _atom_site_type_symbol
  _atom_site_label
  _atom_site_symmetry_multiplicity
  _atom_site_fract_x
  _atom_site_fract_y
  _atom_site_fract_z
  _atom_site_occupancy
  Zn  Zn1       1.0  0.3893061620362559  0.49479832783644884  0.4757980539553444  1.0000
  Zn  Zn2       1.0  0.6030172753442359  0.5080631843798853  0.5103950306619682  1.0000
  H   H1        1.0  0.23104639826890866  0.6027185402581025  0.8738869749830372  1.0000
  H   H2        1.0  0.8014099601816796  0.5257575512443536  0.13126256429693234  1.0000
  H   H3        1.0  0.45583885826207665  0.5334407859204756  0.764077095898891  1.0000
  H   H4        1.0  0.5570516471093115  0.5186061147659444  0.23132160253718587  1.0000
  H   H5        1.0  0.7829753871457472  0.5041783994967517  0.8228171624454178  1.0000
  H   H6        1.0  0.23377641445841857  0.5625584417417144  0.1744123132556865  1.0000
  H   H7        1.0  0.18306012006923572  0.5941862496924627  0.004261911093280406  1.0000
  H   H8        1.0  0.8434254837339594  0.5114297181122678  0.9982203949468198  1.0000
  H   H9        1.0  0.36156575438784705  0.5829429992002984  0.8136180597812485  1.0000
  H   H10       1.0  0.6691647685863913  0.5384297078233117  0.19064738903254858  1.0000
  H   H11       1.0  0.3326211400445516  0.21064818138297878  0.4387281911933982  1.0000
  H   H12       1.0  0.6075535446781615  0.784826262478077  0.459126719218574  1.0000
  H   H13       1.0  0.6805250484119513  0.23769365385350474  0.6002113706886975  1.0000
  H   H14       1.0  0.3955611158909846  0.7715755498916362  0.5868350780171029  1.0000
  H   H15       1.0  0.8478503368915044  0.417920556751035  0.374877842449898  1.0000
  H   H16       1.0  0.1225555297866521  0.613682633438607  0.5725990261983185  1.0000
  H   H17       1.0  0.6800365763956793  0.4338066323044814  0.3914278705867603  1.0000
  H   H18       1.0  0.2880322411351485  0.6039789490918037  0.5510396683314128  1.0000
  H   H19       1.0  0.023356635280734405  0.565583628707074  0.6440386301070193  1.0000
  H   H20       1.0  0.0126428743714726  0.358337042608504  0.42532542595608913  1.0000
  H   H21       1.0  0.21628607524612425  0.9554516735162437  0.34349331726171783  1.0000
  H   H22       1.0  0.35183606956567104  0.956084988154245  0.3625416799841049  1.0000
  H   H23       1.0  0.2007821028630303  0.10827572760300086  0.2776683189609628  1.0000
  H   H24       1.0  0.332640268936288  0.10464598278609566  0.2908977514451152  1.0000
  H   H25       1.0  0.27270650876200625  0.9686987613193451  0.17879443653993127  1.0000
  H   H26       1.0  0.19771683842073173  0.0613397855170774  0.12260419830887773  1.0000
  H   H27       1.0  0.13957532200385714  0.9762327961067923  0.1630113315297166  1.0000
  H   H28       1.0  0.6449098776166197  0.038769848509936394  0.37446431269551544  1.0000
  H   H29       1.0  0.5159652206660683  0.033825646598877795  0.3704145272809073  1.0000
  H   H30       1.0  0.6075436252169979  0.8817912295408162  0.3067141530754257  1.0000
  H   H31       1.0  0.4754513966679782  0.8831321649352117  0.2936366867383668  1.0000
  H   H32       1.0  0.43967662458324247  0.014736196699914196  0.18468059389763167  1.0000
  H   H33       1.0  0.4721599897501534  0.920319321299935  0.1387688037887003  1.0000
  H   H34       1.0  0.5709595576279015  0.007902037839613697  0.19562172086808263  1.0000
  H   H35       1.0  0.6742092566059058  0.970205938299493  0.7047194450847628  1.0000
  H   H36       1.0  0.7067886361664578  0.07539471942837388  0.765801265585033  1.0000
  H   H37       1.0  0.8621683772547186  0.9617540056368552  0.7319827260491394  1.0000
  H   H38       1.0  0.896319911264719  0.06839246432838308  0.7869030538718821  1.0000
  H   H39       1.0  0.8548953638618004  0.014454087166271298  0.9176435515895494  1.0000
  H   H40       1.0  0.9554746759218916  0.9519036350677151  0.9113295418800933  1.0000
  H   H41       1.0  0.8204775446363968  0.9072206717540608  0.8627977664413182  1.0000
  H   H42       1.0  0.518390238876613  0.027468233899512005  0.7200995134693217  1.0000
  H   H43       1.0  0.5253354164935118  0.9153903635863542  0.7556647529052472  1.0000
  H   H44       1.0  0.34304203470723843  0.03700008245361629  0.7234378424451792  1.0000
  H   H45       1.0  0.347787492712868  0.9256528252061142  0.7565128842849945  1.0000
  H   H46       1.0  0.5196086484129337  0.9630105251867388  0.9100321793085726  1.0000
  H   H47       1.0  0.4130040067753385  0.027450813501779695  0.9009648016193241  1.0000
  H   H48       1.0  0.5154722764450455  0.0749280781446728  0.8770832743393486  1.0000
  C   C1        1.0  0.5030344345317488  0.3316076835129706  0.5016828215639038  1.0000
  C   C2        1.0  0.4875279251600872  0.6704360041556183  0.5042572630462487  1.0000
  C   C3        1.0  0.4302505195992695  0.5154819721573531  0.3122516247775736  1.0000
  C   C4        1.0  0.5766079778753623  0.5083680993953833  0.6794770709724177  1.0000
  C   C5        1.0  0.39913168800008236  0.5379545312605387  0.21127232556162306  1.0000
  C   C6        1.0  0.6147991217508065  0.517914191019578  0.7845540030621408  1.0000
  C   C7        1.0  0.26538478816076605  0.5778874554070939  0.05426883234680702  1.0000
  C   C8        1.0  0.7585497515976557  0.5178354526620337  0.9468085181102667  1.0000
  C   C9        1.0  0.2926706592948563  0.560445200313488  0.14789101278803682  1.0000
  C   C10       1.0  0.7256305232156567  0.5130289596166264  0.8501193092880828  1.0000
  C   C11       1.0  0.47628938348243105  0.5361709059893016  0.17994545336341614  1.0000
  C   C12       1.0  0.5404051921713419  0.5314007743104978  0.817250530913306  1.0000
  C   C13       1.0  0.4511021027464894  0.5535819263398877  0.08485468929593759  1.0000
  C   C14       1.0  0.5720760667227367  0.5396491039824199  0.9155693998191552  1.0000
  C   C15       1.0  0.3422951121714846  0.5732149536488578  0.02022927255308824  1.0000
  C   C16       1.0  0.6834711455254948  0.5299702771607355  0.9816384248256896  1.0000
  C   C17       1.0  0.5299124891569633  0.5485717913190695  0.05044239892535527  1.0000
  C   C18       1.0  0.4958133061964248  0.5540128009738792  0.9512832631584092  1.0000
  C   C19       1.0  0.3866622534873158  0.5744143899688081  0.8891619325134601  1.0000
  C   C20       1.0  0.6417599070660529  0.5384703144749494  0.11401098031741697  1.0000
  C   C21       1.0  0.3135464471037182  0.5855353966729165  0.9223835868464365  1.0000
  C   C22       1.0  0.715869566629053  0.5314616149571236  0.08126979192307009  1.0000
  C   C23       1.0  0.4142257700188948  0.0909340059102135  0.48895258132662184  1.0000
  C   C24       1.0  0.5698218204524182  0.9092148888938283  0.4988055324911117  1.0000
  C   C25       1.0  0.41049316222107274  0.18182931838368427  0.47849433620678644  1.0000
  C   C26       1.0  0.5634422525816873  0.8176271725108747  0.49020505587912316  1.0000
  C   C27       1.0  0.5065054785533009  0.23456693357248778  0.5164152300761415  1.0000
  C   C28       1.0  0.4984030871111359  0.7680074639189413  0.5192792874158272  1.0000
  C   C29       1.0  0.6057145405935033  0.19658349404942038  0.5687773884624435  1.0000
  C   C30       1.0  0.44454840262004325  0.8099022329996612  0.5620487780421614  1.0000
  C   C31       1.0  0.6095179892462285  0.1059926304788661  0.5826107972637686  1.0000
  C   C32       1.0  0.4544993049190681  0.9012944851296893  0.574771989750346  1.0000
  C   C33       1.0  0.5138023901876353  0.05062861977337009  0.5403295013775563  1.0000
  C   C34       1.0  0.5145107790695179  0.9533377514532546  0.5404546474423884  1.0000
  C   C35       1.0  0.8524471088284216  0.4534081270256891  0.4367132397099526  1.0000
  C   C36       1.0  0.1319361971204955  0.555962168175711  0.5365962221168133  1.0000
  C   C37       1.0  0.758416248681563  0.4627331381312841  0.4440383762478318  1.0000
  C   C38       1.0  0.22330443966062322  0.5523346197303167  0.5239475566474355  1.0000
  C   C39       1.0  0.851191321205171  0.545436929099047  0.5826793763075102  1.0000
  C   C40       1.0  0.16033369113191043  0.42066817103923154  0.4407008116319845  1.0000
  C   C41       1.0  0.9500045587037038  0.5372285886400049  0.5841557377092743  1.0000
  C   C42       1.0  0.0684060535693476  0.4161069455871385  0.45262413167143484  1.0000
  C   C43       1.0  0.9509355816439965  0.49174552040386726  0.5073987888912798  1.0000
  C   C44       1.0  0.05154678180007009  0.48728915334146444  0.4998681227447649  1.0000
  C   C45       1.0  0.2874419829031396  0.9986641942263788  0.35717411797747184  1.0000
  C   C46       1.0  0.25987310578918255  0.0632719298008695  0.27701810083240025  1.0000
  C   C47       1.0  0.21508739201194518  0.014825066637520494  0.1800932431174829  1.0000
  C   C48       1.0  0.5822215167559649  0.9935637540986306  0.3759708340523745  1.0000
  C   C49       1.0  0.5416814066105432  0.9253144365545791  0.29403003723792415  1.0000
  C   C50       1.0  0.5039324228535094  0.9694072038655647  0.19801269000657126  1.0000
  C   C51       1.0  0.7273773148879031  0.03059276966046549  0.7221408507303837  1.0000
  C   C52       1.0  0.8449672887487126  0.0080512628449441  0.7762055531358032  1.0000
  C   C53       1.0  0.8703035896166751  0.9681952234522481  0.8722525956898793  1.0000
  C   C54       1.0  0.46948098286216583  0.9674621056376577  0.7175033426846228  1.0000
  C   C55       1.0  0.39829957519490483  0.9856817440174338  0.7634187511639825  1.0000
  C   C56       1.0  0.46535919764261285  0.014360256668027194  0.868595273445763  1.0000
  N   N1        1.0  0.7570332364660505  0.5105120182785752  0.5154632231548392  1.0000
  N   N2        1.0  0.23652672353364318  0.48596694857918254  0.4741104702042805  1.0000
  N   N3        1.0  0.8503585397090064  0.6007224544958232  0.6602428295584275  1.0000
  N   N4        1.0  0.17149622975961884  0.34931586647147833  0.3815466762400775  1.0000
  O   O1        1.0  0.41080914695118764  0.3649206445235648  0.4701035869943483  1.0000
  O   O2        1.0  0.5585517250944179  0.6349084240655357  0.4887061770051987  1.0000
  O   O3        1.0  0.5918865508248815  0.3740480540349864  0.521465782695202  1.0000
  O   O4        1.0  0.407579891640232  0.6293726362057016  0.5069967130570562  1.0000
  O   O5        1.0  0.3591779740409962  0.5220886580726897  0.3401847102161782  1.0000
  O   O6        1.0  0.6481315374694532  0.5210824326460466  0.6517348386283572  1.0000
  O   O7        1.0  0.5264713458840404  0.4915483893681908  0.36352642886573966  1.0000
  O   O8        1.0  0.47655211386486945  0.4888182182602705  0.6259255683376284  1.0000
  O   O9        1.0  0.7907873637740509  0.6627646487838845  0.6352109937530771  1.0000
  O   O10       1.0  0.9137822620752516  0.5808056487264179  0.7427432743375775  1.0000
  O   O11       1.0  0.19291605579768156  0.37274975482473843  0.31798401737994203  1.0000
  O   O12       1.0  0.1534679726297483  0.27309031802259637  0.399540519564198  1.0000
  O   O13       1.0  0.3178757850637482  0.040717173076132  0.4487243261488062  1.0000
  O   O14       1.0  0.6348218010886982  0.9557150377556308  0.468941832261095  1.0000
  O   O15       1.0  0.7104354430781327  0.07413677786745859  0.6361902363491582  1.0000
  O   O16       1.0  0.4013020708664783  0.9385645970340163  0.6195326115986292  1.0000
