data_image0
_chemical_formula_structural       Al4H48C64N20O60
_chemical_formula_sum              "Al4 H48 C64 N20 O60"
_cell_length_a       7.069078965122654
_cell_length_b       20.442518066917888
_cell_length_c       23.391517583041253
_cell_angle_alpha    89.9999787854622
_cell_angle_beta     90.00087459522234
_cell_angle_gamma    89.99950536039272

_space_group_name_H-M_alt    "P 1"
_space_group_IT_number       1

loop_
  _space_group_symop_operation_xyz
  'x, y, z'

loop_
  _atom_site_type_symbol
  _atom_site_label
  _atom_site_symmetry_multiplicity
  _atom_site_fract_x
  _atom_site_fract_y
  _atom_site_fract_z
  _atom_site_occupancy
  Al  Al1       1.0  0.0223430806965865  0.7504960098873923  0.5000649350676838  1.0000
  Al  Al2       1.0  0.47767208563295316  0.24949924579004798  6.449448449079997e-05  1.0000
  Al  Al3       1.0  0.5223445916205873  0.7495001919104141  0.49993115205507616  1.0000
  Al  Al4       1.0  0.9776708085454825  0.2505000612929251  0.9999308144738137  1.0000
  H   H1        1.0  0.5854555601895228  0.6098265649335345  0.7689621447937681  1.0000
  H   H2        1.0  0.914527029607164  0.3901752412959638  0.268965278006597  1.0000
  H   H3        1.0  0.0854748662936373  0.8901794571082744  0.2310333097569313  1.0000
  H   H4        1.0  0.4145292573029307  0.10982109400140422  0.7310319459614404  1.0000
  H   H5        1.0  0.43298997734911626  0.4768585543819483  0.782570252170224  1.0000
  H   H6        1.0  0.06699897410806697  0.52314148846677  0.2825721122019331  1.0000
  H   H7        1.0  0.9330003993703925  0.023147086011142903  0.21742318932564325  1.0000
  H   H8        1.0  0.566997362485665  0.9768547393033485  0.7174241322832484  1.0000
  H   H9        1.0  0.9231229075051244  0.4707503687433884  0.6792687128765421  1.0000
  H   H10       1.0  0.576858326074543  0.5292539165736443  0.1792718879548474  1.0000
  H   H11       1.0  0.42312939587345955  0.02925624426167419  0.320729823905296  1.0000
  H   H12       1.0  0.07687184011874848  0.9707452519942946  0.8207256738171224  1.0000
  H   H13       1.0  0.051260622028898695  0.54340602828659  0.7278864971452916  1.0000
  H   H14       1.0  0.44872491533231323  0.45659109974644  0.22788801663059385  1.0000
  H   H15       1.0  0.551270512221542  0.9565950820974508  0.2721139669510819  1.0000
  H   H16       1.0  0.948734907952122  0.04340721214941819  0.772111465391525  1.0000
  H   H17       1.0  0.571801684229932  0.4122359393196645  0.7300117125681637  1.0000
  H   H18       1.0  0.928192619967845  0.5877614787441345  0.2300156768927337  1.0000
  H   H19       1.0  0.07179896908466078  0.0877631316960787  0.2699838761168749  1.0000
  H   H20       1.0  0.4281976841862799  0.9122339807559356  0.769982267960664  1.0000
  H   H21       1.0  0.1256179029580835  0.4408027344155983  0.7624115551873415  1.0000
  H   H22       1.0  0.20536018071194914  0.4867638162134755  0.8229511540276208  1.0000
  H   H23       1.0  0.0651461421655313  0.4168266945165158  0.8335752838336034  1.0000
  H   H24       1.0  0.37437969212957967  0.5591978050752787  0.26241234774512623  1.0000
  H   H25       1.0  0.2946312919286881  0.5132298523927048  0.32294783477085076  1.0000
  H   H26       1.0  0.43484175011676024  0.5831684376838667  0.3335784182643947  1.0000
  H   H27       1.0  0.6256177059930436  0.059198324607180594  0.2375893532155544  1.0000
  H   H28       1.0  0.705368625152836  0.013227505660594798  0.17705644798601128  1.0000
  H   H29       1.0  0.5651670660722627  0.0831674808692924  0.16642284647214467  1.0000
  H   H30       1.0  0.8743841440425367  0.9408025148905779  0.7375858349742755  1.0000
  H   H31       1.0  0.7946294455708764  0.986773845422064  0.67705476946184  1.0000
  H   H32       1.0  0.9348232676777214  0.9168333849713904  0.666420404988763  1.0000
  H   H33       1.0  0.7071906130076469  0.4130666212475731  0.6175827342373308  1.0000
  H   H34       1.0  0.5139694167619878  0.46449613585899396  0.6360104320294367  1.0000
  H   H35       1.0  0.7113763740139731  0.4966331414674416  0.5979149131053986  1.0000
  H   H36       1.0  0.7927853546227082  0.5869367085516615  0.11758536670829756  1.0000
  H   H37       1.0  0.9860105306946777  0.5355091438246475  0.1360171842141327  1.0000
  H   H38       1.0  0.7886139264543386  0.5033697064403173  0.09791927133901618  1.0000
  H   H39       1.0  0.2071992068052637  0.0869344852229119  0.382418461644292  1.0000
  H   H40       1.0  0.013976848413427894  0.03551219587720311  0.36398238783777953  1.0000
  H   H41       1.0  0.21136814086563044  0.0033664999040823014  0.4020811674327617  1.0000
  H   H42       1.0  0.2927931493427847  0.9130620964274597  0.8824146660047916  1.0000
  H   H43       1.0  0.4860285029118855  0.9644834142485765  0.8639813919189763  1.0000
  H   H44       1.0  0.2886381744465821  0.9966295852944428  0.9020777541650348  1.0000
  H   H45       1.0  0.2703324942156016  0.6632260112854311  0.4993612865467441  1.0000
  H   H46       1.0  0.22969687028002272  0.3367719946105225  0.9993656011946397  1.0000
  H   H47       1.0  0.7703320964787037  0.8367703347494028  0.5006386670281913  1.0000
  H   H48       1.0  0.7296973978033063  0.16322912494912598  0.0006292614041569999  1.0000
  C   C1        1.0  0.2734752407624512  0.8233109729812257  0.5778820340993818  1.0000
  C   C2        1.0  0.22652780851846896  0.17669256988492776  0.07788244506867409  1.0000
  C   C3        1.0  0.7734956874135928  0.6766917341834002  0.4221128005214467  1.0000
  C   C4        1.0  0.7265134395175536  0.32331001535682447  0.9221119788303938  1.0000
  C   C5        1.0  0.2733826593381963  0.8274318242616802  0.4253190373259983  1.0000
  C   C6        1.0  0.22661096092619457  0.1725618064467724  0.9253204084907054  1.0000
  C   C7        1.0  0.7734114427154065  0.6725615884971816  0.5746775070065411  1.0000
  C   C8        1.0  0.7266226744937822  0.3274344195557575  0.07467572577009209  1.0000
  C   C9        1.0  0.9253113419093495  0.5542816502810196  0.753555459254997  1.0000
  C   C10       1.0  0.5746717007493556  0.4457138023575098  0.2535582295741747  1.0000
  C   C11       1.0  0.42532149370880024  0.9457142967209008  0.24644418547520527  1.0000
  C   C12       1.0  0.0746779336196113  0.05428282444701441  0.7464399342734254  1.0000
  C   C13       1.0  0.5749188362968451  0.5613398772711307  0.7493687077314775  1.0000
  C   C14       1.0  0.9250724324698464  0.43865900115586237  0.24936929538218777  1.0000
  C   C15       1.0  0.0749225629036872  0.9386636927547234  0.2506284196822577  1.0000
  C   C16       1.0  0.42509127169856226  0.061337829456860504  0.7506254007447808  1.0000
  C   C17       1.0  0.5532243825170367  0.5080039675470047  0.7940643684384269  1.0000
  C   C18       1.0  0.9467767500171286  0.4919953835116928  0.2940701431776915  1.0000
  C   C19       1.0  0.05322098133121498  0.991997633153382  0.2059279799522216  1.0000
  C   C20       1.0  0.44677591655378973  0.0079975463064201  0.7059276219393879  1.0000
  C   C21       1.0  0.7241751986139703  0.3693190324289047  0.8754429122027787  1.0000
  C   C22       1.0  0.775815453727631  0.6306846910895912  0.37544247635852906  1.0000
  C   C23       1.0  0.22419500251495342  0.13068355145396277  0.1245540684982558  1.0000
  C   C24       1.0  0.2758208628560723  0.8693204633148353  0.6245502289553073  1.0000
  C   C25       1.0  0.7547448374956642  0.549090466996212  0.7123466319715703  1.0000
  C   C26       1.0  0.74523704662284  0.45091527360497713  0.21234914646194622  1.0000
  C   C27       1.0  0.25475586269186573  0.9509161426834895  0.2876494191419567  1.0000
  C   C28       1.0  0.2452461373865801  0.049081452406419084  0.7876491909596837  1.0000
  C   C29       1.0  0.917707927202741  0.5027165628362695  0.8028318647917699  1.0000
  C   C30       1.0  0.5822824357162872  0.49727984991551466  0.3028312230756072  1.0000
  C   C31       1.0  0.4177164206496896  0.9972862282138593  0.19716946316132314  1.0000
  C   C32       1.0  0.08227710090904589  0.0027158029593011  0.6971665400667176  1.0000
  C   C33       1.0  0.7288369863898081  0.46210751970725994  0.7962171759069888  1.0000
  C   C34       1.0  0.7711600364863356  0.5378942764368799  0.296217612485421  1.0000
  C   C35       1.0  0.22883569957940605  0.0378975127632373  0.2037815312062179  1.0000
  C   C36       1.0  0.2711681372526086  0.9621006025524822  0.7037806339994361  1.0000
  C   C37       1.0  0.7175275512548891  0.4297802969678414  0.7348111417216856  1.0000
  C   C38       1.0  0.782465638006904  0.5702156517893542  0.23481459890105325  1.0000
  C   C39       1.0  0.21751983925695834  0.07022277221724241  0.26518496049359186  1.0000
  C   C40       1.0  0.2824835872348571  0.9297821688378036  0.7651832599363146  1.0000
  C   C41       1.0  0.7711074187562088  0.47762618826332925  0.6875966764012772  1.0000
  C   C42       1.0  0.72887574933911  0.5223785831479262  0.1875986796725542  1.0000
  C   C43       1.0  0.2711151784991229  0.022381803854806  0.3124017521834687  1.0000
  C   C44       1.0  0.22888695217362443  0.9776192063079281  0.8123981352906923  1.0000
  C   C45       1.0  0.7155550986378072  0.4123812461996793  0.8399731939173021  1.0000
  C   C46       1.0  0.7844404124473172  0.5876185770384905  0.3399766517077083  1.0000
  C   C47       1.0  0.21556533054629762  0.08762182184315039  0.16002418389483347  1.0000
  C   C48       1.0  0.2844371887068177  0.9123802230843836  0.6600199315351105  1.0000
  C   C49       1.0  0.7700298226716809  0.5952433070885873  0.6656985441344005  1.0000
  C   C50       1.0  0.7299632952334035  0.4047551131378881  0.1656988840806974  1.0000
  C   C51       1.0  0.270032143373477  0.9047584197129622  0.3343005533669299  1.0000
  C   C52       1.0  0.22997135468913393  0.0952391581070486  0.8342985445038805  1.0000
  C   C53       1.0  0.7733094614836772  0.6297180316135281  0.6235674592925662  1.0000
  C   C54       1.0  0.7267064891847282  0.3702784475099108  0.12357250284999567  1.0000
  C   C55       1.0  0.27329649715409937  0.870278805326315  0.376429084707837  1.0000
  C   C56       1.0  0.22669831452711964  0.12971582183478597  0.8764317543152982  1.0000
  C   C57       1.0  0.08925475017743878  0.4584795989310351  0.8051214145361383  1.0000
  C   C58       1.0  0.4107483407162248  0.5415194572205095  0.30512105917645727  1.0000
  C   C59       1.0  0.5892542698672472  0.0415204605886998  0.19487936572223663  1.0000
  C   C60       1.0  0.9107434990407198  0.9584799055426176  0.6948776791957055  1.0000
  C   C61       1.0  0.668123786488209  0.4625414320961809  0.6316321937351643  1.0000
  C   C62       1.0  0.8318544729729992  0.5374599357964271  0.1316345544144681  1.0000
  C   C63       1.0  0.16812714082043095  0.03746405423947861  0.3683667269374666  1.0000
  C   C64       1.0  0.3318728256163935  0.9625374243800376  0.8683651884921488  1.0000
  N   N1        1.0  0.9072548774974363  0.53725974916334  0.8629027608740427  1.0000
  N   N2        1.0  0.5927448944195388  0.4627356629992645  0.3629025961103522  1.0000
  N   N3        1.0  0.40726292792202656  0.9627396115711588  0.13709853024221266  1.0000
  N   N4        1.0  0.09273391618213367  0.0372604851359597  0.6370939213755875  1.0000
  N   N5        1.0  0.9661102517901764  0.6245821956269992  0.7731814360731731  1.0000
  N   N6        1.0  0.53390089358448  0.3754152064612342  0.2731781032200331  1.0000
  N   N7        1.0  0.46610322581376795  0.875417199334784  0.22682219995056838  1.0000
  N   N8        1.0  0.03389639100019079  0.124583842509189  0.7268203444367741  1.0000
  N   N9        1.0  0.4019458971625267  0.5660388637831204  0.7110528034235486  1.0000
  N   N10       1.0  0.09803575999694655  0.43395875965703806  0.21105566036641923  1.0000
  N   N11       1.0  0.9019623221085024  0.9339624505736454  0.2889399188902573  1.0000
  N   N12       1.0  0.5980469779466658  0.0660388590915488  0.7889408758034335  1.0000
  N   N13       1.0  0.48839660926806505  0.5365317346212208  0.8524157431036766  1.0000
  N   N14       1.0  0.011606605208378097  0.4634692607273863  0.35241700215673427  1.0000
  N   N15       1.0  0.9884096643949644  0.9634759893112915  0.1475798488887961  1.0000
  N   N16       1.0  0.5116007121392271  0.036525861863538  0.6475805119222001  1.0000
  N   N17       1.0  0.8302383121915681  0.3652427823336595  0.7292375367228559  1.0000
  N   N18       1.0  0.669770089648601  0.6347619736683753  0.2292435657421947  1.0000
  N   N19       1.0  0.3302160949187467  0.1347647549916218  0.2707606726817673  1.0000
  N   N20       1.0  0.16977777746698308  0.8652328463494143  0.7707543234425103  1.0000
  O   O1        1.0  0.4355377785317741  0.8109079740236922  0.4440880954815469  1.0000
  O   O2        1.0  0.06447823279442838  0.189083203860271  0.9440888892252841  1.0000
  O   O3        1.0  0.9355291194187243  0.6890786845680879  0.5559043176635541  1.0000
  O   O4        1.0  0.5644797773994553  0.31091586289756623  0.05590453613234559  1.0000
  O   O5        1.0  0.11012568923105447  0.8071729951945485  0.5597371376720801  1.0000
  O   O6        1.0  0.389904519505471  0.1928246842789463  0.05973555342024639  1.0000
  O   O7        1.0  0.6101081902748218  0.6928247251836196  0.4402631063124929  1.0000
  O   O8        1.0  0.8898836799356499  0.3071735933969393  0.9402598737151704  1.0000
  O   O9        1.0  0.11069346171986887  0.8117976916192761  0.4442940080481818  1.0000
  O   O10       1.0  0.3893197330078094  0.1881983779534906  0.9442916718118963  1.0000
  O   O11       1.0  0.610689082090907  0.6882049208585314  0.5557045279378556  1.0000
  O   O12       1.0  0.889331118792519  0.3117998993918718  0.05570247080331818  1.0000
  O   O13       1.0  0.9353895707768342  0.6941191808592749  0.4403325075931974  1.0000
  O   O14       1.0  0.564603718475645  0.30588060522477173  0.9403336867445444  1.0000
  O   O15       1.0  0.4353986481701566  0.8058841096539525  0.5596569125200616  1.0000
  O   O16       1.0  0.06461740937982088  0.1941204183157694  0.05965931157093959  1.0000
  O   O17       1.0  0.27189855969307786  0.7106683082232904  0.4985857858686344  1.0000
  O   O18       1.0  0.22811802457474065  0.2893301871343112  0.9985807071527117  1.0000
  O   O19       1.0  0.7718923223451808  0.7893285278968492  0.501416310741746  1.0000
  O   O20       1.0  0.7281202453509008  0.21067142068413594  0.0014137223797092999  1.0000
  O   O21       1.0  0.9905859403948721  0.5110081076870117  0.9026874197037956  1.0000
  O   O22       1.0  0.8115593638552026  0.5877158337301225  0.8657553265716302  1.0000
  O   O23       1.0  0.5094092425072103  0.4889838655099156  0.4026873792076059  1.0000
  O   O24       1.0  0.688450488264877  0.41228349079199944  0.36575295241990347  1.0000
  O   O25       1.0  0.4905914830841879  0.9889893448085944  0.09731373756270047  1.0000
  O   O26       1.0  0.3115657569156838  0.9122868955805001  0.1342439172873213  1.0000
  O   O27       1.0  0.0094028770444865  0.0110132125088569  0.5973105546320026  1.0000
  O   O28       1.0  0.18843798208174423  0.08771564806728797  0.6342434748251122  1.0000
  O   O29       1.0  0.11772877571901567  0.6310107021325989  0.7985498203012467  1.0000
  O   O30       1.0  0.8557774333828473  0.6685395687238868  0.7600747732054527  1.0000
  O   O31       1.0  0.38228805126021814  0.3689785729252577  0.2985494275255363  1.0000
  O   O32       1.0  0.6442357227290213  0.3314617516297531  0.2600692801628171  1.0000
  O   O33       1.0  0.6177263230951481  0.8689840876124035  0.2014534430415154  1.0000
  O   O34       1.0  0.3557708050208817  0.8314636754772523  0.2399289015094581  1.0000
  O   O35       1.0  0.8822761000373659  0.1310172544397403  0.701450675344823  1.0000
  O   O36       1.0  0.14423245935438433  0.16853736151541907  0.7399278462958917  1.0000
  O   O37       1.0  0.3624040145025162  0.6200170397597589  0.6918538840568684  1.0000
  O   O38       1.0  0.31374596358432427  0.5144047900558989  0.700651451128735  1.0000
  O   O39       1.0  0.13758351728014157  0.3799786340824697  0.19186288511126287  1.0000
  O   O40       1.0  0.18623221484892835  0.485592837234499  0.2006511800153915  1.0000
  O   O41       1.0  0.86241469346821  0.8799822948913346  0.3081339963417307  1.0000
  O   O42       1.0  0.8137587942835008  0.985594027116406  0.2993465179316884  1.0000
  O   O43       1.0  0.6375986340035952  0.12002145355253899  0.8081312253994212  1.0000
  O   O44       1.0  0.6862525700733284  0.014406789520577898  0.7993456669756043  1.0000
  O   O45       1.0  0.4259824192203394  0.5924856843878104  0.852410492864976  1.0000
  O   O46       1.0  0.49235417862463027  0.4986136988513934  0.8933194733316794  1.0000
  O   O47       1.0  0.07403918477786678  0.4075148217922335  0.35240814474983745  1.0000
  O   O48       1.0  0.007644516701098798  0.5013838571172969  0.3933207046068432  1.0000
  O   O49       1.0  0.9259617607909545  0.9075229815855789  0.1475870166465185  1.0000
  O   O50       1.0  0.992385755912373  0.0013861059574508997  0.10667460490810747  1.0000
  O   O51       1.0  0.5740401284614761  0.0924798479373834  0.6475865968166374  1.0000
  O   O52       1.0  0.5076263105366933  0.9986157603614174  0.606674903177236  1.0000
  O   O53       1.0  0.986277662375798  0.36649072145449674  0.705355649964332  1.0000
  O   O54       1.0  0.7509894720008954  0.31644984299843765  0.7484550560717835  1.0000
  O   O55       1.0  0.5137292482406932  0.6335179568009436  0.2053598470344937  1.0000
  O   O56       1.0  0.7490342760968287  0.6835495249508413  0.24846604916364604  1.0000
  O   O57       1.0  0.48626549197182806  0.1335203308675545  0.294637979277212  1.0000
  O   O58       1.0  0.25093650368228987  0.18355471316560568  0.2515407364783115  1.0000
  O   O59       1.0  0.0137369443337292  0.8664797075180958  0.7946366372490486  1.0000
  O   O60       1.0  0.2490490955434835  0.8164453411713097  0.7515329743723953  1.0000
