data_image0
_chemical_formula_structural       Ag6H24C42N6O6
_chemical_formula_sum              "Ag6 H24 C42 N6 O6"
_cell_length_a       7.2548958172531375
_cell_length_b       10.929936633606626
_cell_length_c       13.25783670775175
_cell_angle_alpha    113.7460907849864
_cell_angle_beta     105.02380658332999
_cell_angle_gamma    91.9745296392468

_space_group_name_H-M_alt    "P 1"
_space_group_IT_number       1

loop_
  _space_group_symop_operation_xyz
  'x, y, z'

loop_
  _atom_site_type_symbol
  _atom_site_label
  _atom_site_symmetry_multiplicity
  _atom_site_fract_x
  _atom_site_fract_y
  _atom_site_fract_z
  _atom_site_occupancy
  Ag  Ag1       1.0  0.725595258053218  0.9383543244747946  0.3265714196382419  1.0000
  Ag  Ag2       1.0  0.8988486048885777  0.6115860062759568  0.6735023592186166  1.0000
  Ag  Ag3       1.0  0.9431027488164572  0.6356610904927891  0.16098891654470987  1.0000
  Ag  Ag4       1.0  0.2820099031662195  0.47461879876334495  0.8389153093448343  1.0000
  Ag  Ag5       1.0  0.631378926516902  0.801702508448621  0.995751224780271  1.0000
  Ag  Ag6       1.0  0.13572907945563634  0.8056865352507786  0.004260850854017022  1.0000
  H   H1        1.0  0.13339286428843172  0.597988672767592  0.3530345919892143  1.0000
  H   H2        1.0  0.2803952643107621  0.24496931707879105  0.6469342384064162  1.0000
  H   H3        1.0  0.2923715902291662  0.5831213208487613  0.5362888244394597  1.0000
  H   H4        1.0  0.2560607775265069  0.04672209001160611  0.4636104249324901  1.0000
  H   H5        1.0  0.1189709119956888  0.9615622497174601  0.726492230325526  1.0000
  H   H6        1.0  0.8928311355555109  0.23518084727371055  0.27346304464100507  1.0000
  H   H7        1.0  0.96252472492138  0.9769461583318848  0.543357572320808  1.0000
  H   H8        1.0  0.9196100049401109  0.43372810131849365  0.4565991185359337  1.0000
  H   H9        1.0  0.014779771636916935  0.4280690478076753  0.9606305740649218  1.0000
  H   H10       1.0  0.5546944389140833  0.4675177754219322  0.03917877764908446  1.0000
  H   H11       1.0  0.9608185441526658  0.22027118175270033  0.7791572609118373  1.0000
  H   H12       1.0  0.6821656438036287  0.44100866980351583  0.2205538503634941  1.0000
  H   H13       1.0  0.5440636495648121  0.39176172345752047  0.597527501244123  1.0000
  H   H14       1.0  0.44669721840428883  0.7939428650315039  0.4023342797261051  1.0000
  H   H15       1.0  0.5988624191054939  0.599786740232922  0.7793664022891988  1.0000
  H   H16       1.0  0.3198337663928398  0.8203193346218072  0.22060174255677367  1.0000
  H   H17       1.0  0.40732845890595115  0.9895492619254399  0.974915682792634  1.0000
  H   H18       1.0  0.9326030072747071  0.014717984134129801  0.025283484826992615  1.0000
  H   H19       1.0  0.19673569504970345  0.16202665097860353  0.971403456580745  1.0000
  H   H20       1.0  0.7256458103156477  0.19071352789117677  0.02877298482756173  1.0000
  H   H21       1.0  0.3602992525551088  0.34346852482376294  0.344419197723667  1.0000
  H   H22       1.0  0.5159386226475817  0.9991426353027608  0.655791691261065  1.0000
  H   H23       1.0  0.5720875022684239  0.17198119955757823  0.3475062431952907  1.0000
  H   H24       1.0  0.724333748765794  0.8244627577343949  0.6527507076673799  1.0000
  C   C1        1.0  0.03814144648951874  0.7896773837773171  0.4338020880044909  1.0000
  C   C2        1.0  0.10444202534905861  0.3558494201459227  0.5661413851507646  1.0000
  C   C3        1.0  0.13229575884166417  0.677835261956382  0.4351289107490786  1.0000
  C   C4        1.0  0.19723368604509522  0.24267434965142345  0.5648034035130891  1.0000
  C   C5        1.0  0.22043415614108142  0.6691632456783128  0.537171596621846  1.0000
  C   C6        1.0  0.1833133231546498  0.13196275214297512  0.46277166028180255  1.0000
  C   C7        1.0  0.21691573941167522  0.7714267514962077  0.6439020235516323  1.0000
  C   C8        1.0  0.07313370352406422  0.12753038033686445  0.356067801715362  1.0000
  C   C9        1.0  0.12296576571289822  0.8829123668351074  0.6445096456602358  1.0000
  C   C10       1.0  0.9787429778914214  0.23847915078306417  0.3554479322219136  1.0000
  C   C11       1.0  0.03577816619360164  0.8913958119535582  0.5423887627675867  1.0000
  C   C12       1.0  0.993684906884752  0.3490742002670262  0.4575649692231281  1.0000
  C   C13       1.0  0.31277958930387234  0.7651044978350829  0.7480929747680705  1.0000
  C   C14       1.0  0.0646723233739905  0.016956013903879404  0.2518688941141889  1.0000
  C   C15       1.0  0.8093179653654728  0.5291671012101988  0.8844253441565256  1.0000
  C   C16       1.0  0.4252872329149255  0.6447016310163817  0.11547335328445027  1.0000
  C   C17       1.0  0.9148144364129182  0.42036547878282704  0.8804722651984207  1.0000
  C   C18       1.0  0.5348454671192827  0.5398799270319901  0.11934309366703387  1.0000
  C   C19       1.0  0.8825400014856938  0.30367877024328044  0.7793597682222425  1.0000
  C   C20       1.0  0.6035773491581437  0.524189885537254  0.2204383312008105  1.0000
  C   C21       1.0  0.7467292889958798  0.2910237278577271  0.676232590011544  1.0000
  C   C22       1.0  0.5707126552131854  0.6145211849315972  0.32356402706773935  1.0000
  C   C23       1.0  0.6482406101224497  0.40057109500855864  0.6767805876176494  1.0000
  C   C24       1.0  0.4716706574035926  0.7235346529757865  0.3230751336218702  1.0000
  C   C25       1.0  0.6795425598760757  0.5171853985870174  0.7782281370171233  1.0000
  C   C26       1.0  0.4016221964661071  0.7388079325462373  0.22167091121426813  1.0000
  C   C27       1.0  0.7078825686881131  0.17129409743776597  0.5741489222378106  1.0000
  C   C28       1.0  0.6339936005506884  0.5969520454901487  0.42569219983636225  1.0000
  C   C29       1.0  0.5052969079844587  0.06645518172511801  0.16147174271590356  1.0000
  C   C30       1.0  0.8437904989187928  0.9049346237417383  0.8386947159143006  1.0000
  C   C31       1.0  0.3950594127253098  0.06651623541018381  0.05542657119916331  1.0000
  C   C32       1.0  0.8398239686754466  0.011166180360433505  0.9447601692452137  1.0000
  C   C33       1.0  0.2784185114028901  0.16332577003426957  0.053403845165703984  1.0000
  C   C34       1.0  0.7252500247449163  0.10999685615341553  0.946761133442287  1.0000
  C   C35       1.0  0.2628813626794654  0.2640945223673229  0.1575462773539016  1.0000
  C   C36       1.0  0.6055084702580731  0.10677021840483293  0.8426960257130459  1.0000
  C   C37       1.0  0.37166543429118076  0.26616272103976263  0.26373518698623133  1.0000
  C   C38       1.0  0.6079641667103387  0.002544141139303199  0.736489443196966  1.0000
  C   C39       1.0  0.49009096116662215  0.17053055907698686  0.2654892617011342  1.0000
  C   C40       1.0  0.7244532621719698  0.9050494790786489  0.734743537387608  1.0000
  C   C41       1.0  0.14088484267038134  0.3605244646442004  0.15503928033334088  1.0000
  C   C42       1.0  0.4860194659797799  0.20571426009787797  0.8452073758636371  1.0000
  N   N1        1.0  0.39524833994062203  0.7603455259250327  0.8347397978899949  1.0000
  N   N2        1.0  0.060404462927294796  0.9254722696917528  0.16523284600238958  1.0000
  N   N3        1.0  0.6696928178281211  0.07038965957053732  0.4892933930676619  1.0000
  N   N4        1.0  0.6807062885757347  0.5812534097137317  0.5107174760763512  1.0000
  N   N5        1.0  0.03602940251212058  0.4391265064156258  0.15180294936750013  1.0000
  N   N6        1.0  0.3842684199985412  0.28745725696080643  0.8483233472161373  1.0000
  O   O1        1.0  0.9586353106019417  0.8000789552647662  0.3371447084671786  1.0000
  O   O2        1.0  0.12145963583062523  0.46285703348173984  0.6627984881666009  1.0000
  O   O3        1.0  0.8303124819358841  0.6363695747733403  0.9815695754582233  1.0000
  O   O4        1.0  0.3491021280060238  0.6547583401335046  0.018310493478537714  1.0000
  O   O5        1.0  0.6169948512822713  0.9748520994023909  0.1631771331698958  1.0000
  O   O6        1.0  0.9535924752214769  0.8114953165168263  0.8368960974730939  1.0000
