data_image0
_chemical_formula_structural       Cd2H54C72N6O14
_chemical_formula_sum              "Cd2 H54 C72 N6 O14"
_cell_length_a       11.324632034611183
_cell_length_b       11.664430285332209
_cell_length_c       14.1359
_cell_angle_alpha    93.13414701091614
_cell_angle_beta     105.31885668640417
_cell_angle_gamma    116.67177311067155

_space_group_name_H-M_alt    "P 1"
_space_group_IT_number       1

loop_
  _space_group_symop_operation_xyz
  'x, y, z'

loop_
  _atom_site_type_symbol
  _atom_site_label
  _atom_site_symmetry_multiplicity
  _atom_site_fract_x
  _atom_site_fract_y
  _atom_site_fract_z
  _atom_site_occupancy
  Cd  Cd1       1.0  0.6935865715490125  0.35415117242840916  0.46918273959628454  1.0000
  Cd  Cd2       1.0  0.30641436714118  0.6458496125523041  0.5308167870729221  1.0000
  H   H1        1.0  0.1405411765280603  0.6116062369458743  0.9339741570014722  1.0000
  H   H2        1.0  0.8594560105625106  0.38839258925577264  0.06602377985367266  1.0000
  H   H3        1.0  0.9062309125702017  0.4941353182763351  0.3694597355640496  1.0000
  H   H4        1.0  0.09376860810031934  0.5058644873148452  0.63053944679654  1.0000
  H   H5        1.0  0.7729490777169232  0.375653669609484  0.2832472498330388  1.0000
  H   H6        1.0  0.22705002985271966  0.624347115371222  0.7167511818612197  1.0000
  H   H7        1.0  0.7955688210079543  0.0091426012837772  0.5305782536211794  1.0000
  H   H8        1.0  0.20443028656168147  0.990858183696936  0.4694180558169876  1.0000
  H   H9        1.0  0.17245825313182908  0.0174027725989774  0.7142855703147503  1.0000
  H   H10       1.0  0.8275407650792915  0.9825960536026699  0.2857113392592438  1.0000
  H   H11       1.0  0.2832098869013606  0.2567910384145833  0.759000859447454  1.0000
  H   H12       1.0  0.7167882157494887  0.7432077877870639  0.24099939344191762  1.0000
  H   H13       1.0  0.15201454697784567  0.37385355164916223  0.6932163927694643  1.0000
  H   H14       1.0  0.8479817245524544  0.6261452745524778  0.3067834725636586  1.0000
  H   H15       1.0  0.703979497738132  0.8172133990142854  0.4972140276310809  1.0000
  H   H16       1.0  0.2960195204729956  0.18278542718736185  0.5027821745242136  1.0000
  H   H17       1.0  0.6013435046141069  0.5767438871550468  0.45126155563558257  1.0000
  H   H18       1.0  0.3986554242384983  0.42325298026753433  0.5487380763303377  1.0000
  H   H19       1.0  0.9656462765887427  0.5883232095951243  0.622710666654548  1.0000
  H   H20       1.0  0.0343532440817782  0.4116765959960559  0.3772934676369388  1.0000
  H   H21       1.0  0.0861156482165128  0.8273020905862365  0.6736068873240129  1.0000
  H   H22       1.0  0.9138834593531229  0.1726986943944695  0.32639366662634467  1.0000
  H   H23       1.0  0.2753111535643741  0.9446887817560068  0.03615180155350117  1.0000
  H   H24       1.0  0.7246861228847123  0.055312003224706495  0.9638455351658095  1.0000
  H   H25       1.0  0.3811652224938129  0.18664813950265108  0.04979703924453099  1.0000
  H   H26       1.0  0.6188329695155517  0.8133526454780621  0.9501997838342076  1.0000
  H   H27       1.0  0.47583742192488643  0.2884821248999074  0.9201950735003662  1.0000
  H   H28       1.0  0.5241635167653058  0.7115186600808059  0.07980303833144119  1.0000
  H   H29       1.0  0.39096129838865323  0.910164321353811  0.7748349708541581  1.0000
  H   H30       1.0  0.6090368936207115  0.0898364636268951  0.22516255964328016  1.0000
  H   H31       1.0  0.5841750177911891  0.3718967313636838  0.8277416570709022  1.0000
  H   H32       1.0  0.4158309118012723  0.6281030742274962  0.17226171141134464  1.0000
  H   H33       1.0  0.6583156223733013  0.4608527238010679  0.6865146466818999  1.0000
  H   H34       1.0  0.3416922276982178  0.5391490405691783  0.3134885092207611  1.0000
  H   H35       1.0  0.49955281574300164  0.09069930580483289  0.5205395243736035  1.0000
  H   H36       1.0  0.5004500434262623  0.9093034379549464  0.47946049713471683  1.0000
  H   H37       1.0  0.4108857603308209  0.983047552177048  0.6501596231459457  1.0000
  H   H38       1.0  0.5891179250401991  0.0169532328036652  0.34984119227632954  1.0000
  H   H39       1.0  0.30113413618074253  0.9899669392225616  0.2508055866618689  1.0000
  H   H40       1.0  0.6988668025094499  0.010033845758144396  0.7491960622634365  1.0000
  H   H41       1.0  0.9058095444149572  0.9523975567645308  0.07144485751910414  1.0000
  H   H42       1.0  0.094191807376113  0.04760224882664229  0.9285582494912248  1.0000
  H   H43       1.0  0.005275598839723712  0.1903923456845362  0.1113105403746104  1.0000
  H   H44       1.0  0.994723921830797  0.8096074599066441  0.8886914716607777  1.0000
  H   H45       1.0  0.2539838987309153  0.3300963861262288  0.2236921551896387  1.0000
  H   H46       1.0  0.7460161243989987  0.6699043988544843  0.7763100073762458  1.0000
  H   H47       1.0  0.8307846504133636  0.763629038924506  0.0330143922544295  1.0000
  H   H48       1.0  0.169214367797764  0.23636978727713398  0.9669938360187585  1.0000
  H   H49       1.0  0.7397089753719825  0.5241829891265013  0.9977531076579422  1.0000
  H   H50       1.0  0.2602914608588165  0.4758168164646789  0.0022519278303647656  1.0000
  H   H51       1.0  0.11220687576013692  0.5581511562743557  0.17697087427854538  1.0000
  H   H52       1.0  0.8877949784903336  0.4418496287063505  0.823030261006181  1.0000
  H   H53       1.0  0.22008740326678125  0.7982338092683462  0.22147838679253337  1.0000
  H   H54       1.0  0.7799143616251669  0.20176501693330098  0.7785226412093278  1.0000
  C   C1        1.0  0.8805402377554756  0.2617996364826282  0.5662811151678753  1.0000
  C   C2        1.0  0.11945886981416011  0.7382011484980779  0.43371873136378974  1.0000
  C   C3        1.0  0.9644989591586111  0.1960923927623668  0.6081234175757187  1.0000
  C   C4        1.0  0.03549822793196002  0.8039064334392805  0.39187310444202683  1.0000
  C   C5        1.0  0.9023743152282577  0.0599161134159303  0.5815532453489851  1.0000
  C   C6        1.0  0.09762561854314107  0.940082712785717  0.4184431505844302  1.0000
  C   C7        1.0  0.9742468645563634  0.9920070076182909  0.6184928284177218  1.0000
  C   C8        1.0  0.025753158573550608  0.0079937773624223  0.38150296737985906  1.0000
  C   C9        1.0  0.1126288532858766  0.06580420328396029  0.6832664162589024  1.0000
  C   C10       1.0  0.8873697518243661  0.9341956023072199  0.31672974264876064  1.0000
  C   C11       1.0  0.1755153928179709  0.20160243827093888  0.709445272118458  1.0000
  C   C12       1.0  0.8244827991913938  0.7983983467097673  0.2905543806350791  1.0000
  C   C13       1.0  0.10227566583932203  0.267612313356679  0.6726767698072392  1.0000
  C   C14       1.0  0.8977196901306926  0.7323865128449683  0.32732148691035684  1.0000
  C   C15       1.0  0.9066876327611199  0.8477967959386064  0.5903165974288598  1.0000
  C   C16       1.0  0.093311887909401  0.1522030096525739  0.4096797552569313  1.0000
  C   C17       1.0  0.7677127071495492  0.772200656110968  0.527318542607169  1.0000
  C   C18       1.0  0.2322863110615714  0.22779817009067216  0.4726790743855246  1.0000
  C   C19       1.0  0.7080747761187212  0.6369988693491422  0.501498331101473  1.0000
  C   C20       1.0  0.2919255707535627  0.3629989774629721  0.49850164517307144  1.0000
  C   C21       1.0  0.9112369183328326  0.6430348470365459  0.5970629623746859  1.0000
  C   C22       1.0  0.08876218923681022  0.3569659379441674  0.4029397138317704  1.0000
  C   C23       1.0  0.9778448632657728  0.7781631795834513  0.6252421648963206  1.0000
  C   C24       1.0  0.022155159864148292  0.2218376053972548  0.37475787541346506  1.0000
  C   C25       1.0  0.26799643368477877  0.769625841030624  0.8945117745557738  1.0000
  C   C26       1.0  0.7319997484869987  0.23037102639195686  0.1054851538196715  1.0000
  C   C27       1.0  0.3258422286367662  0.9143923459646429  0.9031585470245744  1.0000
  C   C28       1.0  0.6741512962126919  0.0856064802370042  0.09683790729937404  1.0000
  C   C29       1.0  0.3215490808823703  0.990855245528337  0.9808040420073708  1.0000
  C   C30       1.0  0.6784472800064378  0.0091455394523763  0.019192393515119473  1.0000
  C   C31       1.0  0.3790376853241568  0.12585253428674287  0.9872444545044841  1.0000
  C   C32       1.0  0.6209582624637733  0.8741492300835034  0.012751937770381982  1.0000
  C   C33       1.0  0.43503569957665894  0.18321244102343567  0.9145832815932309  1.0000
  C   C34       1.0  0.5649643235532552  0.8167883439572776  0.08541392904175639  1.0000
  C   C35       1.0  0.43827728011182643  0.1078924890438984  0.8348242148882079  1.0000
  C   C36       1.0  0.5617222405586945  0.8921073165472747  0.16517496747238167  1.0000
  C   C37       1.0  0.38585223671737623  0.9728462308088835  0.8320573029082893  1.0000
  C   C38       1.0  0.6141440348129166  0.027152595392763598  0.16794044016872786  1.0000
  C   C39       1.0  0.49074738993555667  0.1674344756584958  0.754431422729297  1.0000
  C   C40       1.0  0.5092572109957417  0.8325663093222104  0.2455695864711059  1.0000
  C   C41       1.0  0.5620225622030119  0.3039310153819983  0.761460663183982  1.0000
  C   C42       1.0  0.4379824518291643  0.696068790209182  0.238541096682745  1.0000
  C   C43       1.0  0.6057855670500487  0.35526180015800424  0.6828635083063047  1.0000
  C   C44       1.0  0.3942226961223625  0.6447389848227018  0.31713898342528063  1.0000
  C   C45       1.0  0.5164611816592668  0.14910715934105667  0.5905051076165861  1.0000
  C   C46       1.0  0.4835430061711464  0.8508946050291897  0.4094972731735851  1.0000
  C   C47       1.0  0.46738722036027275  0.08959259563336268  0.6647616289763149  1.0000
  C   C48       1.0  0.5326123003102482  0.9104072099578175  0.3352368459655679  1.0000
  C   C49       1.0  0.434256230074361  0.24695600873148746  0.3166298268605985  1.0000
  C   C50       1.0  0.5657452110752318  0.7530457556387589  0.6833719725952107  1.0000
  C   C51       1.0  0.2898873628497327  0.1660231753424952  0.2423455192282447  1.0000
  C   C52       1.0  0.7101126602801814  0.8339776096382181  0.7576559359189401  1.0000
  C   C53       1.0  0.23349593096981644  0.0302376724194247  0.21758578578230467  1.0000
  C   C54       1.0  0.766505420821254  0.9697621331717485  0.7824159063906249  1.0000
  C   C55       1.0  0.0952610932071139  0.9498344943585693  0.1551380035763472  1.0000
  C   C56       1.0  0.9047388405642922  0.050164331843078  0.8448661739627638  1.0000
  C   C57       1.0  0.014411010141387202  0.010568592442766096  0.11814711047376387  1.0000
  C   C58       1.0  0.9855888342714962  0.9894282749798151  0.8818541301076832  1.0000
  C   C59       1.0  0.0704274710346269  0.14611218615136318  0.1410558025372168  1.0000
  C   C60       1.0  0.9295711340756156  0.8538876194398171  0.8589481379761493  1.0000
  C   C61       1.0  0.20817169299230903  0.22412252117604936  0.2028524860851277  1.0000
  C   C62       1.0  0.791827414577334  0.7758782638046567  0.7971501901213286  1.0000
  C   C63       1.0  0.036050372121344904  0.8060552140730834  0.1308711379224476  1.0000
  C   C64       1.0  0.9639508903112173  0.19394263273903076  0.8691311543863163  1.0000
  C   C65       1.0  0.8984185651189307  0.7238335040596198  0.06694728649153343  1.0000
  C   C66       1.0  0.10157995063279662  0.2761643427524945  0.9330565467389533  1.0000
  C   C67       1.0  0.846611938173524  0.5894357961037854  0.04636147524749387  1.0000
  C   C68       1.0  0.1533904185363468  0.4105659682664538  0.9536447624986335  1.0000
  C   C69       1.0  0.053710414354583236  0.6080853315773496  0.14606883039997598  1.0000
  C   C70       1.0  0.946291350537372  0.39191349462429764  0.8539321976018783  1.0000
  C   C71       1.0  0.1134271729277145  0.7432890771182414  0.1705822337195997  1.0000
  C   C72       1.0  0.8865764230847901  0.2567097490834058  0.829420596675902  1.0000
  N   N1        1.0  0.7784523516929625  0.5723111701319752  0.5354364545997113  1.0000
  N   N2        1.0  0.22154758207843633  0.4276876560696721  0.4645641858459015  1.0000
  N   N3        1.0  0.5849829687614729  0.2797871046323763  0.5984400408199662  1.0000
  N   N4        1.0  0.4150230501894967  0.72021465973787  0.40156131268905426  1.0000
  N   N5        1.0  0.9225088679554221  0.531489235037263  0.08458105436751844  1.0000
  N   N6        1.0  0.07749065271509892  0.4685105705539172  0.9154209576678695  1.0000
  O   O1        1.0  0.9312314393147929  0.3848520960966013  0.595869358851786  1.0000
  O   O2        1.0  0.0687680813557279  0.6151477094945789  0.40413053092749607  1.0000
  O   O3        1.0  0.7594127207817039  0.19119936265912676  0.5028354773548357  1.0000
  O   O4        1.0  0.24058588432853867  0.8088004429320533  0.49716351122763297  1.0000
  O   O5        1.0  0.18352225743064576  0.71817752951074  0.9473824403671924  1.0000
  O   O6        1.0  0.8164703518585412  0.2818212966909073  0.052613112759935604  1.0000
  O   O7        1.0  0.29819793956023233  0.7055120640793716  0.8414957484984099  1.0000
  O   O8        1.0  0.701800163090617  0.2944867621222754  0.15850167471615606  1.0000
  O   O9        1.0  0.4811497595204699  0.3684345893670907  0.34450570494569627  1.0000
  O   O10       1.0  0.5188536021081944  0.6315691337822145  0.6554923448370217  1.0000
  O   O11       1.0  0.500673309924565  0.18505271395457604  0.35059529048934474  1.0000
  O   O12       1.0  0.49932904678529877  0.8149490504156631  0.6494052879071859  1.0000
  O   O13       1.0  0.8159734259583759  0.4115855127695554  0.3558141185988504  1.0000
  O   O14       1.0  0.1840265971715382  0.588415272211158  0.6441852142922356  1.0000
