data_image0
_chemical_formula_structural       InPH12C21O7
_chemical_formula_sum              "In1 P1 H12 C21 O7"
_cell_length_a       8.833703081856337
_cell_length_b       8.85348326353323
_cell_length_c       8.840781998810003
_cell_angle_alpha    107.89278299363849
_cell_angle_beta     107.78883740124495
_cell_angle_gamma    107.86810076298262

_space_group_name_H-M_alt    "P 1"
_space_group_IT_number       1

loop_
  _space_group_symop_operation_xyz
  'x, y, z'

loop_
  _atom_site_type_symbol
  _atom_site_label
  _atom_site_symmetry_multiplicity
  _atom_site_fract_x
  _atom_site_fract_y
  _atom_site_fract_z
  _atom_site_occupancy
  In  In1       1.0  0.21060706999677592  0.21032586947809045  0.2103089097800961  1.0000
  P   P1        1.0  0.8275983125982692  0.8276530174348693  0.8275931235676526  1.0000
  H   H1        1.0  0.7363915682619435  0.9285331641416831  0.11521772581043892  1.0000
  H   H2        1.0  0.11511565026760448  0.7368049380531118  0.9290123984262025  1.0000
  H   H3        1.0  0.9289848980600725  0.11499716820733137  0.7368091459398515  1.0000
  H   H4        1.0  0.5494634616230414  0.7520296895314613  0.22005513928510825  1.0000
  H   H5        1.0  0.2197818815746473  0.5495580246547148  0.7520679535039962  1.0000
  H   H6        1.0  0.7520718062007463  0.21954527306195354  0.5496907438325209  1.0000
  H   H7        1.0  0.43806495818015634  0.2689072585697899  0.7985964513739676  1.0000
  H   H8        1.0  0.7986151290552288  0.437669190223616  0.2683704998010584  1.0000
  H   H9        1.0  0.2683650369494543  0.7986987157733978  0.43762449371472206  1.0000
  H   H10       1.0  0.6218953155040198  0.4421992266580687  0.6903395447511259  1.0000
  H   H11       1.0  0.6904794169674348  0.6217645888505032  0.4421012083699907  1.0000
  H   H12       1.0  0.44206298477180905  0.6906945181322186  0.6216077868648925  1.0000
  C   C1        1.0  0.6902504329764696  0.6953729295153647  0.8966809749877598  1.0000
  C   C2        1.0  0.8968193161176784  0.6903899500743903  0.6953836275232846  1.0000
  C   C3        1.0  0.695431315348401  0.8968146468070156  0.6903596185050065  1.0000
  C   C4        1.0  0.6700528020939629  0.7842494470465268  0.0456888189384158  1.0000
  C   C5        1.0  0.04568993902420006  0.6702808402718858  0.7845165155405526  1.0000
  C   C6        1.0  0.7844739882087669  0.0456028133089461  0.6703047849370662  1.0000
  C   C7        1.0  0.56689033648987  0.6866457545535668  0.10457885396272118  1.0000
  C   C8        1.0  0.10439756870401606  0.5669954775429957  0.6867077707195011  1.0000
  C   C9        1.0  0.686741703136292  0.10427043280648718  0.5671120776666498  1.0000
  C   C10       1.0  0.4842375810875624  0.5008898120753001  0.015203600408199229  1.0000
  C   C11       1.0  0.015085383895680596  0.4841438329311884  0.5007002173725327  1.0000
  C   C12       1.0  0.5006735980427879  0.015075588195486498  0.48419113871669595  1.0000
  C   C13       1.0  0.5040387336024638  0.41299504068469156  0.8663978384773403  1.0000
  C   C14       1.0  0.8663284614800802  0.503801647033164  0.4126374184560789  1.0000
  C   C15       1.0  0.412669422256471  0.8664238249629861  0.5038318316061494  1.0000
  C   C16       1.0  0.6073179956573541  0.5102333148151814  0.8069196362671037  1.0000
  C   C17       1.0  0.8070009533532955  0.607169529779064  0.5100469256414827  1.0000
  C   C18       1.0  0.5100190652749534  0.8071315698841629  0.6070929091420469  1.0000
  C   C19       1.0  0.378208590527649  0.39733140115594523  0.08189496960891776  1.0000
  C   C20       1.0  0.0817740027266822  0.3780474657963777  0.3970096644398851  1.0000
  C   C21       1.0  0.39706386002062294  0.081696355811566  0.37810749667769983  1.0000
  O   O1        1.0  0.30079563117168817  0.22784004472885036  0.9999690279019191  1.0000
  O   O2        1.0  0.00012295311834980898  0.30057983150972933  0.22734177105456874  1.0000
  O   O3        1.0  0.227323540860219  3.495059318002035e-07  0.3005153329918642  1.0000
  O   O4        1.0  0.3674935321049801  0.4779366625930379  0.22289934591707813  1.0000
  O   O5        1.0  0.22266766230797697  0.36735109463740656  0.47787566946396975  1.0000
  O   O6        1.0  0.47808495974879867  0.22248870538678026  0.3675255979609632  1.0000
  O   O7        1.0  0.9853876840567823  0.9854085090845501  0.9856522486726224  1.0000
