data_image0
_chemical_formula_structural       Ni2H24C32N16O4
_chemical_formula_sum              "Ni2 H24 C32 N16 O4"
_cell_length_a       7.070806627667074
_cell_length_b       10.090114727446943
_cell_length_c       12.139854121054785
_cell_angle_alpha    89.99996505833624
_cell_angle_beta     90.0003413279917
_cell_angle_gamma    104.90921284217568

_space_group_name_H-M_alt    "P 1"
_space_group_IT_number       1

loop_
  _space_group_symop_operation_xyz
  'x, y, z'

loop_
  _atom_site_type_symbol
  _atom_site_label
  _atom_site_symmetry_multiplicity
  _atom_site_fract_x
  _atom_site_fract_y
  _atom_site_fract_z
  _atom_site_occupancy
  Ni  Ni1       1.0  3.5967096892000003e-06  2.036146582900001e-06  8.237388442000003e-07  1.0000
  Ni  Ni2       1.0  0.4999996857570252  0.49999974080568427  0.49999850648899274  1.0000
  H   H1        1.0  0.9747133952565292  0.2164051994252177  0.20028987967755546  1.0000
  H   H2        1.0  0.47471757774717827  0.7164043400961264  0.29970934086396284  1.0000
  H   H3        1.0  0.02528584027512447  0.7835901724218319  0.7997161943657076  1.0000
  H   H4        1.0  0.5252834560889711  0.2835920498183455  0.70028767211776  1.0000
  H   H5        1.0  0.8550025434931144  0.20788081204773334  0.39709763944856047  1.0000
  H   H6        1.0  0.3550095063646168  0.7078776276767087  0.10290034442802921  1.0000
  H   H7        1.0  0.144990021521977  0.7921156228441718  0.6029059633833995  1.0000
  H   H8        1.0  0.6449913914366121  0.29211465246732626  0.8970958448214503  1.0000
  H   H9        1.0  0.5619436171508667  0.15730378830124184  0.5183358312557544  1.0000
  H   H10       1.0  0.061942676147822305  0.6573031919615602  0.9816624659434084  1.0000
  H   H11       1.0  0.4380483101327358  0.8426947052223783  0.4816661241082798  1.0000
  H   H12       1.0  0.9380537363924047  0.342692194872015  0.018336194496782802  1.0000
  H   H13       1.0  0.33128576034321366  0.0628353617775588  0.4681593987619764  1.0000
  H   H14       1.0  0.8312891899950614  0.5628313931767509  0.0318402290570035  1.0000
  H   H15       1.0  0.6687079652886679  0.9371641498185924  0.5318417328717828  1.0000
  H   H16       1.0  0.16871043236945846  0.43716500423379073  0.9681576076553854  1.0000
  H   H17       1.0  0.30718425975177166  0.9481053414263987  0.2832005497828121  1.0000
  H   H18       1.0  0.80718705926747  0.4481092679409714  0.2168004310153719  1.0000
  H   H19       1.0  0.692812288823383  0.05189415517761382  0.7167989343896224  1.0000
  H   H20       1.0  0.1928116745369763  0.5518922723046629  0.7831990531603098  1.0000
  H   H21       1.0  0.44592265924358543  0.9684532257976672  0.0917083698409584  1.0000
  H   H22       1.0  0.9459206874816105  0.4684543429211275  0.40829061260500776  1.0000
  H   H23       1.0  0.5540803089889083  0.031548291961300406  0.9082911143421201  1.0000
  H   H24       1.0  0.05407702171471126  0.5315482303876422  0.5917072241023577  1.0000
  C   C1        1.0  0.8292928487400603  0.15973127764497974  0.22573970021576176  1.0000
  C   C2        1.0  0.3292927771582157  0.6597273250591656  0.27425986772689015  1.0000
  C   C3        1.0  0.1707079342937731  0.8402681964759323  0.7742655500959543  1.0000
  C   C4        1.0  0.6707060714486418  0.34026702121368413  0.7257371452515784  1.0000
  C   C5        1.0  0.760017132282414  0.15209199234496407  0.3325851816813455  1.0000
  C   C6        1.0  0.26001490048827963  0.6520889403988053  0.16741250130551324  1.0000
  C   C7        1.0  0.23998160153954745  0.847909547902717  0.667417597426848  1.0000
  C   C8        1.0  0.739980487439439  0.3479074794973869  0.832583687933223  1.0000
  C   C9        1.0  0.568852795960595  0.0766396862530669  0.35684051452767573  1.0000
  C   C10       1.0  0.06884953263929824  0.5766345531105658  0.1431614852167016  1.0000
  C   C11       1.0  0.43114452638534584  0.9233618614901717  0.6431622645780593  1.0000
  C   C12       1.0  0.9311450815482728  0.42335981564997377  0.8568371752206334  1.0000
  C   C13       1.0  0.4877470504637956  0.06565768565249643  0.471288209304241  1.0000
  C   C14       1.0  0.9877481468148802  0.5656588635033302  0.028711139025730904  1.0000
  C   C15       1.0  0.5122459014148008  0.9343397748064676  0.5287129223287295  1.0000
  C   C16       1.0  0.012248788641287077  0.43434165866978725  0.971289168880226  1.0000
  C   C17       1.0  0.45647661556531466  0.008237672495724302  0.2692494988447791  1.0000
  C   C18       1.0  0.9564742133897327  0.5082391307357242  0.23075306668854273  1.0000
  C   C19       1.0  0.5435231428560171  0.9917628346878117  0.7307532802654891  1.0000
  C   C20       1.0  0.04352374665705135  0.49176035837221854  0.7692455937532259  1.0000
  C   C21       1.0  0.5296482968414082  0.0164194064476604  0.1631610347702903  1.0000
  C   C22       1.0  0.029648001817932368  0.5164206742567927  0.33684086110710615  1.0000
  C   C23       1.0  0.47035300907334954  0.9835852030087086  0.8368392731421751  1.0000
  C   C24       1.0  0.9703497073871363  0.48358189905300025  0.663158623066515  1.0000
  C   C25       1.0  0.6757034451175202  0.7538033881930774  0.8928873197690167  1.0000
  C   C26       1.0  0.17569319786650087  0.2537915107922404  0.6071072028830785  1.0000
  C   C27       1.0  0.3243110869841814  0.24620628914128423  0.10711216443200301  1.0000
  C   C28       1.0  0.8243183752263548  0.7462140717602496  0.39288733891513783  1.0000
  C   C29       1.0  0.5420785117191188  0.62600349332714  0.7415558138541486  1.0000
  C   C30       1.0  0.042073333592213706  0.12598972986466353  0.7584440786053152  1.0000
  C   C31       1.0  0.45792818926673823  0.37400417034986333  0.2584469652662662  1.0000
  C   C32       1.0  0.9579359182626916  0.8740096992788153  0.24155458185616405  1.0000
  N   N1        1.0  0.7139114453186083  0.09355667045319649  0.14223686619376963  1.0000
  N   N2        1.0  0.21390982517469584  0.5935538619205404  0.35776398286224526  1.0000
  N   N3        1.0  0.28609152293577017  0.9064448473083148  0.857766736654945  1.0000
  N   N4        1.0  0.7860859496471732  0.4064435835462917  0.6422355013094005  1.0000
  N   N5        1.0  0.7852895689200211  0.839235577663921  0.9440149553223308  1.0000
  N   N6        1.0  0.28528738316690994  0.33922770169478167  0.5559831978919405  1.0000
  N   N7        1.0  0.2147119878145674  0.16076594758805382  0.0559804101926531  1.0000
  N   N8        1.0  0.7147032474562208  0.6607636053531394  0.4440187574717883  1.0000
  N   N9        1.0  0.5461884318105703  0.6557478652885322  0.8455636524851544  1.0000
  N   N10       1.0  0.04616944490825152  0.15573404037409236  0.6544271769782243  1.0000
  N   N11       1.0  0.4538263511022009  0.3442587278404048  0.15442924185212803  1.0000
  N   N12       1.0  0.9538287660021397  0.8442623645345576  0.3455747783973352  1.0000
  N   N13       1.0  0.5176596099660955  0.5879106685659182  0.6497210702356426  1.0000
  N   N14       1.0  0.017656589732510497  0.0879113993679823  0.8502762866465193  1.0000
  N   N15       1.0  0.4823429713722406  0.41208982362240953  0.3502751190145332  1.0000
  N   N16       1.0  0.9823477899891202  0.9120901108969551  0.1497256687384052  1.0000
  O   O1        1.0  0.7807281391500213  0.10538116664790922  0.03957511984991411  1.0000
  O   O2        1.0  0.28072761013479663  0.6053784853524037  0.46042430836362774  1.0000
  O   O3        1.0  0.2192752159722389  0.8946213766811796  0.9604268355329426  1.0000
  O   O4        1.0  0.7192721482690275  0.3946220218290861  0.5395751758141287  1.0000
