data_image0
_chemical_formula_structural       Cd2H28C32N8O12
_chemical_formula_sum              "Cd2 H28 C32 N8 O12"
_cell_length_a       9.159159618673105
_cell_length_b       9.03550711557224
_cell_length_c       12.847631972553565
_cell_angle_alpha    78.17174809215403
_cell_angle_beta     69.1157645372486
_cell_angle_gamma    59.52375805400759

_space_group_name_H-M_alt    "P 1"
_space_group_IT_number       1

loop_
  _space_group_symop_operation_xyz
  'x, y, z'

loop_
  _atom_site_type_symbol
  _atom_site_label
  _atom_site_symmetry_multiplicity
  _atom_site_fract_x
  _atom_site_fract_y
  _atom_site_fract_z
  _atom_site_occupancy
  Cd  Cd1       1.0  0.5000014714526274  2.616606522931765e-07  0.9999996392481733  1.0000
  Cd  Cd2       1.0  0.4999980558623207  0.5000011348489579  0.5000008063558568  1.0000
  H   H1        1.0  0.30155980175113933  0.555885827171558  0.07086318528524771  1.0000
  H   H2        1.0  0.928172558152184  0.943508392107084  0.4294945968725585  1.0000
  H   H3        1.0  0.6984372916603192  0.4441125786248251  0.9291382790013358  1.0000
  H   H4        1.0  0.07182791889064788  0.056491187159871004  0.5705039823224212  1.0000
  H   H5        1.0  0.18942695368985338  0.3758847090837705  0.21427179976219426  1.0000
  H   H6        1.0  0.7796635200055846  0.1237075527432268  0.2859045988548417  1.0000
  H   H7        1.0  0.8105682815454497  0.6241175497271882  0.7857295265842481  1.0000
  H   H8        1.0  0.22033466918068723  0.8762972465276989  0.714095931888913  1.0000
  H   H9        1.0  0.9004287791611609  0.9958010001414053  0.8459526167198419  1.0000
  H   H10       1.0  0.7418964844807052  0.503877038367051  0.6541011915590857  1.0000
  H   H11       1.0  0.09957911200663723  0.004198470480155  0.15404320109018238  1.0000
  H   H12       1.0  0.2581006763164098  0.49612258000328074  0.34589837764377046  1.0000
  H   H13       1.0  0.673917255855514  0.6634883031447885  0.16343683326382322  1.0000
  H   H14       1.0  0.5006537381564083  0.8366579608162683  0.33645269049125653  1.0000
  H   H15       1.0  0.32608182016175385  0.33651259089899815  0.8365624813203141  1.0000
  H   H16       1.0  0.4993492734986234  0.16334160978595247  0.6635456800650558  1.0000
  H   H17       1.0  0.19522877549790968  0.8137425326032429  0.8945072482293668  1.0000
  H   H18       1.0  0.9033620148674261  0.6857891284654869  0.6055311245199421  1.0000
  H   H19       1.0  0.8047770656784153  0.18625323719695067  0.1054926143668453  1.0000
  H   H20       1.0  0.0966383947897427  0.31420923822751234  0.39446934975877207  1.0000
  H   H21       1.0  0.5603142924940272  0.24152857892787688  0.03367281022193687  1.0000
  H   H22       1.0  0.8357178054777065  0.2584384376768726  0.46630709257689057  1.0000
  H   H23       1.0  0.4396800937220955  0.758472497747782  0.9663311925774565  1.0000
  H   H24       1.0  0.1642802489372387  0.7415639364461485  0.5336972283343329  1.0000
  H   H25       1.0  0.422619010449523  0.35336757421799103  0.9656133414575763  1.0000
  H   H26       1.0  0.7418567859844954  0.14654938038539464  0.5343181918869817  1.0000
  H   H27       1.0  0.5773774635698814  0.6466321159165817  0.03438807684896261  1.0000
  H   H28       1.0  0.25814378591415715  0.8534502402071595  0.4656814550424785  1.0000
  C   C1        1.0  0.8788886857593711  0.7263417850207432  0.050924100820758246  1.0000
  C   C2        1.0  0.6561197121934227  0.7733044578328789  0.44902844530775343  1.0000
  C   C3        1.0  0.12111022801641964  0.2736578551235028  0.9490760411126402  1.0000
  C   C4        1.0  0.34388277492537606  0.2266964384331303  0.5509709470029946  1.0000
  C   C5        1.0  0.8488439233277205  0.4201289761089556  0.2938928328718617  1.0000
  C   C6        1.0  0.5628922633614907  0.07963522476707402  0.20612381484463072  1.0000
  C   C7        1.0  0.15115554245445414  0.5798681671231379  0.7061092501253227  1.0000
  C   C8        1.0  0.43710489743562403  0.9203643936032578  0.7938757543582183  1.0000
  C   C9        1.0  0.9250508825155566  0.51068845133927  0.19694160632064245  1.0000
  C   C10       1.0  0.6327261264132388  0.9890503233468736  0.30307878935668947  1.0000
  C   C11       1.0  0.07494793640442052  0.4893111474793699  0.8030574678782755  1.0000
  C   C12       1.0  0.36727470258269784  0.010950592470827305  0.696921097957997  1.0000
  C   C13       1.0  0.056146787053123  0.6947468288525374  0.02496850412282471  1.0000
  C   C14       1.0  0.7758167270395404  0.8047625516896136  0.47506131254564815  1.0000
  C   C15       1.0  0.9438518696253764  0.30525151606655504  0.9750313974253473  1.0000
  C   C16       1.0  0.22418332032287924  0.19523839456672934  0.5249393561382476  1.0000
  C   C17       1.0  0.16926325099534267  0.572646013706546  0.0856506441484157  1.0000
  C   C18       1.0  0.8275402403775377  0.926843630547751  0.41448720316831356  1.0000
  C   C19       1.0  0.8307353108273435  0.42735228988694735  0.9143481896652756  1.0000
  C   C20       1.0  0.17245945503177754  0.0731559791578462  0.5855121573958754  1.0000
  C   C21       1.0  0.10232208779716251  0.4787683731889842  0.16956406667330978  1.0000
  C   C22       1.0  0.7507003211674788  0.020845232890202705  0.33053778842143094  1.0000
  C   C23       1.0  0.8976758546334764  0.5212312147426986  0.8304347211603299  1.0000
  C   C24       1.0  0.24930050782845828  0.9791556829274981  0.6694620988932557  1.0000
  C   C25       1.0  0.9211263007910941  0.8977585705844647  0.9121034305053827  1.0000
  C   C26       1.0  0.7308384845608414  0.6018587381167536  0.5879007740114588  1.0000
  C   C27       1.0  0.07888210457128511  0.102243490487389  0.0878928680751017  1.0000
  C   C28       1.0  0.2691622495792887  0.39814213637535534  0.4120980455687473  1.0000
  C   C29       1.0  0.8117470247709875  0.6361935586602314  0.13799330105461396  1.0000
  C   C30       1.0  0.5858854580566869  0.8636246954331029  0.3619622543702903  1.0000
  C   C31       1.0  0.1882533574160306  0.3638059792811249  0.8620042104058853  1.0000
  C   C32       1.0  0.41411615257277395  0.13637618994595613  0.6380368515751937  1.0000
  N   N1        1.0  0.7981578282336631  0.8552770813460241  0.9788347689414038  1.0000
  N   N2        1.0  0.6321865259156711  0.6444361069101702  0.5210950911015642  1.0000
  N   N3        1.0  0.20184482112661334  0.14472506881953962  0.02116379602009033  1.0000
  N   N4        1.0  0.3678156092500231  0.3555634528050931  0.47890299308947704  1.0000
  N   N5        1.0  0.07767614549767639  0.8054499703384296  0.9363972547844598  1.0000
  N   N6        1.0  0.8194516844465908  0.6940159719016848  0.563631782506988  1.0000
  N   N7        1.0  0.9223298579201326  0.19454705336131184  0.0636017804624984  1.0000
  N   N8        1.0  0.18054950684410892  0.3059823643526726  0.4363679104025238  1.0000
  O   O1        1.0  0.6871554594569246  0.45977166927816887  0.3147444309975498  1.0000
  O   O2        1.0  0.46195970398746045  0.03974018401989811  0.1851928652998964  1.0000
  O   O3        1.0  0.3128441960368775  0.5402255566051224  0.6852597874685883  1.0000
  O   O4        1.0  0.538036864887765  0.9602595474402734  0.814809620741123  1.0000
  O   O5        1.0  0.9491828641561925  0.3093390418260071  0.35222611149791316  1.0000
  O   O6        1.0  0.6104218890205645  0.1906488023255619  0.1479055128343774  1.0000
  O   O7        1.0  0.05081893618489618  0.6906619262042498  0.647775129916532  1.0000
  O   O8        1.0  0.38957412784827056  0.809353426046755  0.8520950321428629  1.0000
  O   O9        1.0  0.5396263104905754  0.2539742666894825  0.9586336551168486  1.0000
  O   O10       1.0  0.7523601497601858  0.2459703575205978  0.5413116139163918  1.0000
  O   O11       1.0  0.46037217360479593  0.746026740444151  0.041368576305465934  1.0000
  O   O12       1.0  0.2476365139708461  0.7540294152651726  0.4586919398591077  1.0000
