data_image0
_chemical_formula_structural       Ag4H20C20Br4N4
_chemical_formula_sum              "Ag4 H20 C20 Br4 N4"
_cell_length_a       4.170406833928621
_cell_length_b       9.10433730282115
_cell_length_c       16.831839752329653
_cell_angle_alpha    90.00071863623805
_cell_angle_beta     89.99990242455415
_cell_angle_gamma    94.66435964731112

_space_group_name_H-M_alt    "P 1"
_space_group_IT_number       1

loop_
  _space_group_symop_operation_xyz
  'x, y, z'

loop_
  _atom_site_type_symbol
  _atom_site_label
  _atom_site_symmetry_multiplicity
  _atom_site_fract_x
  _atom_site_fract_y
  _atom_site_fract_z
  _atom_site_occupancy
  Ag  Ag1       1.0  0.2619355008787281  0.5420062368116232  0.060762223066177526  1.0000
  Ag  Ag2       1.0  0.23804784910010568  0.9579835269297162  0.5607678098428155  1.0000
  Ag  Ag3       1.0  0.7380595690090814  0.4580022561044287  0.9392237300739557  1.0000
  Ag  Ag4       1.0  0.7619324912454887  0.04200727731778638  0.4392318078193542  1.0000
  H   H1        1.0  0.8509399944129472  0.6457830390023673  0.20365828533321925  1.0000
  H   H2        1.0  0.6490822699633157  0.854216953311784  0.7036620195429679  1.0000
  H   H3        1.0  0.1490509689824648  0.3542144229260059  0.7963413323491084  1.0000
  H   H4        1.0  0.35092583304717107  0.1457827929016489  0.2963435392643207  1.0000
  H   H5        1.0  0.6776821981108085  0.8754466773258468  0.2672813858537354  1.0000
  H   H6        1.0  0.822346795076605  0.6245526117893689  0.767284070562042  1.0000
  H   H7        1.0  0.3223113357168473  0.12455189797045556  0.7327122907105806  1.0000
  H   H8        1.0  0.1776753651167482  0.37544499923973257  0.2327161412256161  1.0000
  H   H9        1.0  0.8518744168031632  0.12021318209244207  0.20428209734188138  1.0000
  H   H10       1.0  0.6481414350588183  0.3797866432751249  0.7042818471675363  1.0000
  H   H11       1.0  0.14812442854216812  0.879788722126456  0.7957187085779583  1.0000
  H   H12       1.0  0.3518742085638564  0.6202153412114058  0.2957177705243979  1.0000
  H   H13       1.0  0.19885829316103812  0.12433650983702185  0.08315468518333093  1.0000
  H   H14       1.0  0.3011629904076046  0.37566150884180866  0.5831531470885454  1.0000
  H   H15       1.0  0.801149980526752  0.8756643382892759  0.9168461207307035  1.0000
  H   H16       1.0  0.6988476830339182  0.6243393507532529  0.4168476588249776  1.0000
  H   H17       1.0  0.3510695274182325  0.8829608785646809  0.027201374253977006  1.0000
  H   H18       1.0  0.14895811026904224  0.6170349298924972  0.5272034948894773  1.0000
  H   H19       1.0  0.6489238357303152  0.11703659483929128  0.972798837539955  1.0000
  H   H20       1.0  0.8510549629226035  0.38296594121239735  0.4728008756962368  1.0000
  C   C1        1.0  0.9249399343502774  0.7543840584302755  0.17937014574690124  1.0000
  C   C2        1.0  0.5750820379650464  0.745613170198112  0.6793761462938905  1.0000
  C   C3        1.0  0.0750416007050916  0.24561445956330627  0.8206270954927537  1.0000
  C   C4        1.0  0.42493018186479503  0.25438219106174387  0.3206276301611625  1.0000
  C   C5        1.0  0.8282071378293594  0.8823142781500831  0.21422894399312756  1.0000
  C   C6        1.0  0.6718106469399175  0.6176881387206236  0.7142268995644019  1.0000
  C   C7        1.0  0.17176496887872622  0.11768529599086719  0.7857730501492812  1.0000
  C   C8        1.0  0.3282075671083717  0.3823149592091538  0.2857733122428457  1.0000
  C   C9        1.0  0.9260895406664887  0.017608770865180597  0.17953280235296634  1.0000
  C   C10       1.0  0.5739237909918556  0.4823893706557386  0.6795320967542724  1.0000
  C   C11       1.0  0.07390074004020868  0.9823842831789376  0.8204656270902935  1.0000
  C   C12       1.0  0.42608637043102254  0.5176081830501005  0.3204698973723624  1.0000
  C   C13       1.0  0.1174194759909497  0.02026976620230409  0.11148102201545385  1.0000
  C   C14       1.0  0.3825986676483737  0.47972448603909584  0.6114843125763019  1.0000
  C   C15       1.0  0.8825804037318934  0.9797233337031698  0.8885162192014779  1.0000
  C   C16       1.0  0.6174166346257267  0.5202752945532296  0.38851886978094546  1.0000
  C   C17       1.0  0.20391992196172734  0.8872343515573744  0.08062339096185413  1.0000
  C   C18       1.0  0.29609629124352915  0.612767038632526  0.5806230372067136  1.0000
  C   C19       1.0  0.7960677779773349  0.11277300515591546  0.9193774149791385  1.0000
  C   C20       1.0  0.7039124944610934  0.3872371154035361  0.4193783628305711  1.0000
  Br  Br1       1.0  0.703900186940743  0.3633857223672833  0.09965030904065493  1.0000
  Br  Br2       1.0  0.7960779931970238  0.13661481396900393  0.5996542763192496  1.0000
  Br  Br3       1.0  0.2960828738267267  0.6366381294269131  0.9003481205090583  1.0000
  Br  Br4       1.0  0.20390869304134177  0.8633705149150469  0.4003512824440138  1.0000
  N   N1        1.0  0.11065571534921757  0.7561439378179243  0.11388136334426244  1.0000
  N   N2        1.0  0.3893642058359461  0.7438516300617549  0.613885422441122  1.0000
  N   N3        1.0  0.8893445057191871  0.24385136601597412  0.8861152837679572  1.0000
  N   N4        1.0  0.6106392683413661  0.25614919516125667  0.3861183540345651  1.0000
