data_image0
_chemical_formula_structural       U2H12C8O16
_chemical_formula_sum              "U2 H12 C8 O16"
_cell_length_a       5.48717250972765
_cell_length_b       7.495877408215967
_cell_length_c       9.783472001439986
_cell_angle_alpha    89.99912629656106
_cell_angle_beta     91.02975995451956
_cell_angle_gamma    89.99989357969905

_space_group_name_H-M_alt    "P 1"
_space_group_IT_number       1

loop_
  _space_group_symop_operation_xyz
  'x, y, z'

loop_
  _atom_site_type_symbol
  _atom_site_label
  _atom_site_symmetry_multiplicity
  _atom_site_fract_x
  _atom_site_fract_y
  _atom_site_fract_z
  _atom_site_occupancy
  U   U1        1.0  0.9999885799081412  0.9999983332386221  1.1856688580293937e-05  1.0000
  U   U2        1.0  0.500020171621621  0.5000094618658508  0.4999922146395974  1.0000
  H   H1        1.0  0.7214107875853913  0.15908341087125416  0.7479194366107151  1.0000
  H   H2        1.0  0.7785923731913513  0.6590821689686663  0.752074729851458  1.0000
  H   H3        1.0  0.27859663820976277  0.8409208378451394  0.2520951687410502  1.0000
  H   H4        1.0  0.2214114757304202  0.3409180778621702  0.24790896923696693  1.0000
  H   H5        1.0  0.5422650580740366  0.0178771907744064  0.8196375505984649  1.0000
  H   H6        1.0  0.957734383902306  0.5178798216388145  0.6803621455491609  1.0000
  H   H7        1.0  0.45773416778541093  0.982119053779165  0.1803541220325826  1.0000
  H   H8        1.0  0.04225596553751391  0.4821284293904426  0.319642418399944  1.0000
  H   H9        1.0  0.653759842230521  0.40909660368852485  0.11481076480708201  1.0000
  H   H10       1.0  0.8462379231255711  0.9091045896166606  0.38518152140189  1.0000
  H   H11       1.0  0.3462397533941726  0.5908782958293698  0.8851778522955344  1.0000
  H   H12       1.0  0.15373448726336386  0.090895657054304  0.6148201310677521  1.0000
  C   C1        1.0  0.7722419003570311  0.6561106512060348  0.014084781875034511  1.0000
  C   C2        1.0  0.7277592831580718  0.15610974848881648  0.48590338299172947  1.0000
  C   C3        1.0  0.2277565860438172  0.3438789229531451  0.9859130020978455  1.0000
  C   C4        1.0  0.27225362842797557  0.8438878300430872  0.5140961190251474  1.0000
  C   C5        1.0  0.6050183761207606  0.5060960840269857  0.035963763226917  1.0000
  C   C6        1.0  0.894967247062759  0.0061087367896633  0.46402229102096026  1.0000
  C   C7        1.0  0.3949745615067358  0.4938788155503601  0.9640194113530995  1.0000
  C   C8        1.0  0.10501462582855227  0.9938968461678712  0.535976742978491  1.0000
  O   O1        1.0  0.22106429924634344  0.9392059776706958  0.8724313058982816  1.0000
  O   O2        1.0  0.2789428631706983  0.4392122391723561  0.6275694098391682  1.0000
  O   O3        1.0  0.7789169273252059  0.06078626441436799  0.12758818663171925  1.0000
  O   O4        1.0  0.7210937197329701  0.5607960120202478  0.37241586316727654  1.0000
  O   O5        1.0  0.9401673899551284  0.6940251722545484  0.10058371435783188  1.0000
  O   O6        1.0  0.5598329436309939  0.19404225222866966  0.3994101239410668  1.0000
  O   O7        1.0  0.05982295952548357  0.30595506337522943  0.8994208497530068  1.0000
  O   O8        1.0  0.44018530033707043  0.8059820076195267  0.6005906587997033  1.0000
  O   O9        1.0  0.7444173938463123  0.7576427962325099  0.9079677543226836  1.0000
  O   O10       1.0  0.755581226506351  0.25765114087751323  0.592030191968945  1.0000
  O   O11       1.0  0.2555671302112401  0.2423534481727287  0.09203960302002663  1.0000
  O   O12       1.0  0.24444247313508072  0.7423677826977622  0.4079708531300028  1.0000
  O   O13       1.0  0.6859376265541215  0.09456176626196819  0.8340773417723144  1.0000
  O   O14       1.0  0.8140664315103977  0.5945595472284636  0.6659268240705815  1.0000
  O   O15       1.0  0.31404313714053705  0.90543981440387  0.16593085920522552  1.0000
  O   O16       1.0  0.1859663609128503  0.4054553741363094  0.3340746582637522  1.0000
