data_image0
_chemical_formula_structural       CdH26C28Br2N10O6
_chemical_formula_sum              "Cd1 H26 C28 Br2 N10 O6"
_cell_length_a       8.242687985418344
_cell_length_b       8.894386259644337
_cell_length_c       11.637532907544418
_cell_angle_alpha    84.22241833204693
_cell_angle_beta     75.22152561192236
_cell_angle_gamma    69.83821248294261

_space_group_name_H-M_alt    "P 1"
_space_group_IT_number       1

loop_
  _space_group_symop_operation_xyz
  'x, y, z'

loop_
  _atom_site_type_symbol
  _atom_site_label
  _atom_site_symmetry_multiplicity
  _atom_site_fract_x
  _atom_site_fract_y
  _atom_site_fract_z
  _atom_site_occupancy
  Cd  Cd1       1.0  0.5000005157017855  0.9999986911141006  4.472929334071809e-07  1.0000
  H   H1        1.0  0.2193862141863861  0.6991330086252674  0.7085097716540573  1.0000
  H   H2        1.0  0.7806083882682631  0.3008694616602056  0.2914901435584197  1.0000
  H   H3        1.0  0.3079156221921837  0.5372983892687343  0.35315453968247096  1.0000
  H   H4        1.0  0.6920891249394716  0.4627004589587499  0.646846332578569  1.0000
  H   H5        1.0  0.15625301658336355  0.25107566510444446  0.6561558664610415  1.0000
  H   H6        1.0  0.8437478904165092  0.7489267853146869  0.34384458857214634  1.0000
  H   H7        1.0  0.14207099757448563  0.32733559205457397  0.8543490783261872  1.0000
  H   H8        1.0  0.8579290653890513  0.6726656711879851  0.14564990731273034  1.0000
  H   H9        1.0  0.19180142266773714  0.5007777874123887  0.8754689751362718  1.0000
  H   H10       1.0  0.8081991059093172  0.49922226970750927  0.12453173469727823  1.0000
  H   H11       1.0  0.8115434109116889  0.36220971068880187  0.8632841750118557  1.0000
  H   H12       1.0  0.1884571176653723  0.6377903464310961  0.13671653482170135  1.0000
  H   H13       1.0  0.4989253234104752  0.6209846675588507  0.9334657227901172  1.0000
  H   H14       1.0  0.5010739767514067  0.37901538355243497  0.0665369361624784  1.0000
  H   H15       1.0  0.9411027986116525  0.7720548302200354  0.9022327303120361  1.0000
  H   H16       1.0  0.058898141422467624  0.22794403741367117  0.09776627524419004  1.0000
  H   H17       1.0  0.2330845782171807  0.8827089234877545  0.5416342408165702  1.0000
  H   H18       1.0  0.7669167537788725  0.11729233328605909  0.45836536705727576  1.0000
  H   H19       1.0  0.4533200999579209  0.7643479074237547  0.48016443632990047  1.0000
  H   H20       1.0  0.5466795845827979  0.23565096251957826  0.5198348041093864  1.0000
  H   H21       1.0  0.5570522631780793  0.8296046563916092  0.2715001685646  1.0000
  H   H22       1.0  0.4429453158768909  0.17039660315195698  0.7285010010764095  1.0000
  H   H23       1.0  0.09603148225698294  0.9475475296379016  0.14106458704089417  1.0000
  H   H24       1.0  0.9039686543581382  0.0524501383418894  0.8589355204750362  1.0000
  H   H25       1.0  0.013815031565300829  0.8699155215585676  0.3838522624482932  1.0000
  H   H26       1.0  0.9861833974820161  0.1300833506943846  0.6161472128740397  1.0000
  C   C1        1.0  0.17940883247179343  0.47410915245537666  0.6961324169567857  1.0000
  C   C2        1.0  0.820591669027039  0.5258909129827599  0.3038665786407859  1.0000
  C   C3        1.0  0.22259337944436924  0.60998998739349  0.6491370369022745  1.0000
  C   C4        1.0  0.7774020399683934  0.3900136783867864  0.3508626334684948  1.0000
  C   C5        1.0  0.2677601722427243  0.6344535507993779  0.5261280450718856  1.0000
  C   C6        1.0  0.7322386623056405  0.3655477064345688  0.4738728896860705  1.0000
  C   C7        1.0  0.27243326457910666  0.5209703592948073  0.44921773330029413  1.0000
  C   C8        1.0  0.727570578403743  0.4790308928597681  0.550781404807445  1.0000
  C   C9        1.0  0.2311964714408533  0.3849244157752095  0.49758839388927345  1.0000
  C   C10       1.0  0.7688023495683968  0.6150768456178567  0.5024116837506865  1.0000
  C   C11       1.0  0.1841446050247556  0.3598050922076225  0.6199394453529975  1.0000
  C   C12       1.0  0.8158579960038073  0.6401961580974599  0.38006078475578403  1.0000
  C   C13       1.0  0.11932798802119043  0.4539071038096267  0.8290084562865799  1.0000
  C   C14       1.0  0.8806708465271811  0.5460941534243202  0.17099247847136917  1.0000
  C   C15       1.0  0.7895813501614984  0.48580474842702154  0.8811732317253982  1.0000
  C   C16       1.0  0.21041541193535815  0.5141953156217481  0.1188281827573192  1.0000
  C   C17       1.0  0.6368299401319748  0.613908493537586  0.9168145860340783  1.0000
  C   C18       1.0  0.3631688944163898  0.38609276369636086  0.08318634872387069  1.0000
  C   C19       1.0  0.8592718066729363  0.6996970189077485  0.9005180152592444  1.0000
  C   C20       1.0  0.1407291469002914  0.3003018445668458  0.09948184741497809  1.0000
  C   C21       1.0  0.31413313499646744  0.7834254982956776  0.48088264189721724  1.0000
  C   C22       1.0  0.6858648690546688  0.21657456760258495  0.5191176805844575  1.0000
  C   C23       1.0  0.4224048855272217  0.8469980984603181  0.26627314546389147  1.0000
  C   C24       1.0  0.5775964930421865  0.15299957136895867  0.733725870050996  1.0000
  C   C25       1.0  0.1790188514229387  0.9104070703741909  0.20438557661464068  1.0000
  C   C26       1.0  0.8209820750720669  0.08959180141863497  0.7956125718235894  1.0000
  C   C27       1.0  0.13666201026483565  0.8725012731747979  0.3233334334827375  1.0000
  C   C28       1.0  0.8633385648855736  0.1274951970005631  0.6766666839918543  1.0000
  Br  Br1       1.0  0.2427011886437712  0.22682730910246815  0.39396994234805033  1.0000
  Br  Br2       1.0  0.7572879939193272  0.7731763557485749  0.6060334737919675  1.0000
  N   N1        1.0  0.6822077266912032  0.7461603826612445  0.9287382962440132  1.0000
  N   N2        1.0  0.31779404384013094  0.25383967630814647  0.07126132158849428  1.0000
  N   N3        1.0  0.9291268041041577  0.5423312294822223  0.8718477072863489  1.0000
  N   N4        1.0  0.07087290751478297  0.457667632142872  0.1281532473889229  1.0000
  N   N5        1.0  0.357404575122253  0.8940374689126143  0.17010476768225397  1.0000
  N   N6        1.0  0.642597666978624  0.10595780946692908  0.8298934106319533  1.0000
  N   N7        1.0  0.2927877473932484  0.8314985739516771  0.3608680315759186  1.0000
  N   N8        1.0  0.7072128142180462  0.16849790038280324  0.639131228780677  1.0000
  N   N9        1.0  0.2416610884404805  0.9439160426518638  0.8393544589813898  1.0000
  N   N10       1.0  0.7583394265974591  0.05608401862715339  0.1606453937341712  1.0000
  O   O1        1.0  0.2606390056050217  0.05096570667833329  0.8971011254859672  1.0000
  O   O2        1.0  0.739359815404228  0.949035554714733  0.1028989521539998  1.0000
  O   O3        1.0  0.24586769492690783  0.967210601799834  0.7302156926101301  1.0000
  O   O4        1.0  0.7541315510785225  0.0327894659479213  0.2697835378704951  1.0000
  O   O5        1.0  0.21631955420446064  0.8207885044332951  0.8935173713721126  1.0000
  O   O6        1.0  0.7836809608334792  0.17921155684572196  0.10648248134344838  1.0000
