data_image0
_chemical_formula_structural       Zn2H36C52N8O10
_chemical_formula_sum              "Zn2 H36 C52 N8 O10"
_cell_length_a       10.234625043898435
_cell_length_b       10.971958958152529
_cell_length_c       11.680362966861892
_cell_angle_alpha    84.37145661245464
_cell_angle_beta     77.86695932572218
_cell_angle_gamma    62.177388526968045

_space_group_name_H-M_alt    "P 1"
_space_group_IT_number       1

loop_
  _space_group_symop_operation_xyz
  'x, y, z'

loop_
  _atom_site_type_symbol
  _atom_site_label
  _atom_site_symmetry_multiplicity
  _atom_site_fract_x
  _atom_site_fract_y
  _atom_site_fract_z
  _atom_site_occupancy
  Zn  Zn1       1.0  0.2041232654928535  0.5915674253996527  0.250034422626598  1.0000
  Zn  Zn2       1.0  0.7958765223480384  0.4084326334699285  0.7499659174385441  1.0000
  H   H1        1.0  0.19795746803674774  0.0837711665792895  0.7733772555298938  1.0000
  H   H2        1.0  0.7178902577981815  0.0836654563810413  0.7266358906544422  1.0000
  H   H3        1.0  0.8020433192965016  0.916228892094395  0.22662289766279992  1.0000
  H   H4        1.0  0.28210952343579965  0.916334602549071  0.27336273835560126  1.0000
  H   H5        1.0  0.08964923730471226  0.9573402730706138  0.918492780803035  1.0000
  H   H6        1.0  0.9524992575249343  0.9572978029829644  0.5814286381470382  1.0000
  H   H7        1.0  0.9103510659974744  0.0426587552500024  0.0815075592512997  1.0000
  H   H8        1.0  0.04750053031595769  0.0427022558866099  0.418571701918104  1.0000
  H   H9        1.0  0.5421642613310809  0.2950623295225796  0.6789287089208784  1.0000
  H   H10       1.0  0.16279240064613276  0.29530630764570986  0.8209687440301962  1.0000
  H   H11       1.0  0.4578365226987129  0.7049377291813743  0.3210705887442701  1.0000
  H   H12       1.0  0.8372078993525985  0.7046927207051681  0.17903074049658582  1.0000
  H   H13       1.0  0.616053523917692  0.8708254290231495  0.8983963180982213  1.0000
  H   H14       1.0  0.5126649458236656  0.8707515180271272  0.6017931795704426  1.0000
  H   H15       1.0  0.38394726341555696  0.1291746296505352  0.10160383509447257  1.0000
  H   H16       1.0  0.4873358696363681  0.1292464797747854  0.39820630494553194  1.0000
  H   H17       1.0  0.7151838297192936  0.22646307164072244  0.4850473511942326  1.0000
  H   H18       1.0  0.05852331132330589  0.2265947767741494  0.014683120295131896  1.0000
  H   H19       1.0  0.2848169543104928  0.7735369870632314  0.5149519464709158  1.0000
  H   H20       1.0  0.9414764732141235  0.7734052821256938  0.9853163642424644  1.0000
  H   H21       1.0  0.505804106175489  0.7439079613309758  0.044780534632941724  1.0000
  H   H22       1.0  0.7499324057116468  0.7438814286806803  0.45525723083508746  1.0000
  H   H23       1.0  0.4941966811577601  0.25609209734270166  0.9552196185597523  1.0000
  H   H24       1.0  0.2500679008940024  0.2561175996096666  0.5447439647467859  1.0000
  H   H25       1.0  0.5309890373401912  0.40064911233380945  0.17221868332789103  1.0000
  H   H26       1.0  0.06856345246487185  0.4003334214623848  0.3277176810279555  1.0000
  H   H27       1.0  0.4690107471972452  0.5993509465660338  0.8277808012097054  1.0000
  H   H28       1.0  0.9314363320725647  0.5996666374374583  0.6722818035096408  1.0000
  H   H29       1.0  0.24350512857910894  0.5012160201206299  0.4949963495451613  1.0000
  H   H30       1.0  0.2550871537550845  0.5014367152677933  0.005062280805425736  1.0000
  H   H31       1.0  0.7564951747230848  0.498783008199979  0.5050039905091737  1.0000
  H   H32       1.0  0.7449136302747092  0.4985633434361603  0.9949370168597224  1.0000
  H   H33       1.0  0.75240730975581  0.24807569395884602  0.2649951797794968  1.0000
  H   H34       1.0  0.9996911185650177  0.24798133528284444  0.23475136224715948  1.0000
  H   H35       1.0  0.2475934775774389  0.7519243647148387  0.7350049734131968  1.0000
  H   H36       1.0  0.0003076697835238074  0.7520187237826265  0.7652491646904166  1.0000
  C   C1        1.0  0.2921624836050468  0.84030220583994  0.9892094250377141  1.0000
  C   C2        1.0  0.8670165436608811  0.8403043861091888  0.5108054572772287  1.0000
  C   C3        1.0  0.707837784963445  0.15969888341297178  0.010789872638248755  1.0000
  C   C4        1.0  0.13298375964130565  0.15969464221142002  0.48919488277709877  1.0000
  C   C5        1.0  0.2651345149975342  0.008806128661362298  0.8325971566070222  1.0000
  C   C6        1.0  0.7255630913886789  0.0087433539084927  0.6674541393821372  1.0000
  C   C7        1.0  0.7348662723357077  0.9911939300123221  0.1674029965856718  1.0000
  C   C8        1.0  0.274436171080545  0.991257735600854  0.33254363411117527  1.0000
  C   C9        1.0  0.20533658797297263  0.9372789945338053  0.9135944530934023  1.0000
  C   C10       1.0  0.8568594677562019  0.937249085635699  0.5864029235595112  1.0000
  C   C11       1.0  0.794664202663725  0.0627210641096099  0.0864065556268301  1.0000
  C   C12       1.0  0.1431397980164775  0.0627520038433786  0.41359570546134694  1.0000
  C   C13       1.0  0.22754450572478638  0.762538065299097  0.07447437383394369  1.0000
  C   C14       1.0  0.009489667846018823  0.7625113299900331  0.42557680412852505  1.0000
  C   C15       1.0  0.7724562816084558  0.23746199337458757  0.9255257793587502  1.0000
  C   C16       1.0  0.9905106387596309  0.23748769830030617  0.5744243914533413  1.0000
  C   C17       1.0  0.446066198019487  0.3499163770632876  0.6343404618130248  1.0000
  C   C18       1.0  0.2039310159835636  0.3502253160446643  0.8655543584528755  1.0000
  C   C19       1.0  0.5539345893137623  0.6500836816103899  0.36565969137966886  1.0000
  C   C20       1.0  0.7960687718573279  0.64977474282491  0.1344459816122665  1.0000
  C   C21       1.0  0.47478786256125016  0.3589262071407973  0.5069643695673491  1.0000
  C   C22       1.0  0.1662143043807731  0.3591789873375291  0.9929205304739454  1.0000
  C   C23       1.0  0.5252119252796418  0.6410738517287767  0.493035970497793  1.0000
  C   C24       1.0  0.8337854834601187  0.6408210715320452  0.007079809591196733  1.0000
  C   C25       1.0  0.4134599663074208  0.9823599149187179  0.8274765073099956  1.0000
  C   C26       1.0  0.6036662426246905  0.982310274636795  0.6726640777820947  1.0000
  C   C27       1.0  0.5865408243292833  0.017640143724690898  0.172524501410237  1.0000
  C   C28       1.0  0.39633302314799573  0.0176908148422825  0.3273345512387706  1.0000
  C   C29       1.0  0.5015694197020647  0.8871974809437975  0.903043948916668  1.0000
  C   C30       1.0  0.6107793080951254  0.8870870314108572  0.597138349774809  1.0000
  C   C31       1.0  0.49843036813882696  0.11280257792577689  0.09695639114846699  1.0000
  C   C32       1.0  0.3892209952070688  0.11291199690975162  0.4028619902795185  1.0000
  C   C33       1.0  0.6203623970587839  0.2879683631578943  0.44096394018371393  1.0000
  C   C34       1.0  0.09175529135246306  0.2880824238637487  0.05885124270002959  1.0000
  C   C35       1.0  0.3796368753208057  0.7120327262606451  0.5590363998922354  1.0000
  C   C36       1.0  0.9082444964884216  0.7119176350058326  0.9411490973651123  1.0000
  C   C37       1.0  0.44038944253378526  0.817073983004832  0.983810352637178  1.0000
  C   C38       1.0  0.7420703507519303  0.8170125927623529  0.5162882074969204  1.0000
  C   C39       1.0  0.559609833149267  0.18292710638343826  0.016190842966317082  1.0000
  C   C40       1.0  0.25792995255025636  0.1829864355582629  0.4837121325574073  1.0000
  C   C41       1.0  0.5192614171313465  0.385373936581118  0.2667247115828032  1.0000
  C   C42       1.0  0.09552852854658764  0.38521461001216306  0.23319794918516829  1.0000
  C   C43       1.0  0.48073885143714534  0.614627152671801  0.7332745860931593  1.0000
  C   C44       1.0  0.9044712559908485  0.6147854488876803  0.7668015353524209  1.0000
  C   C45       1.0  0.3576454457979849  0.4420315920236533  0.44708054082400384  1.0000
  C   C46       1.0  0.20025274821053063  0.4421677749452328  0.05291125458972351  1.0000
  C   C47       1.0  0.6423548575042018  0.5579674362969554  0.5529197992303236  1.0000
  C   C48       1.0  0.7997470396303611  0.5578322839243413  0.9470890854754117  1.0000
  C   C49       1.0  0.6416093412957197  0.3012239052663261  0.31944451034492244  1.0000
  C   C50       1.0  0.05729235348230327  0.3011893606140675  0.1803782663088001  1.0000
  C   C51       1.0  0.3583909272727723  0.6987771839865857  0.6805547873310401  1.0000
  C   C52       1.0  0.9427074310551333  0.698810698285783  0.8196212182287892  1.0000
  N   N1        1.0  0.3093321152422701  0.406600052797927  0.6913868114263549  1.0000
  N   N2        1.0  0.2840921686295842  0.4067422823785378  0.8084848269378497  1.0000
  N   N3        1.0  0.6906676725986217  0.5934000060716471  0.30861352863877994  1.0000
  N   N4        1.0  0.7159076159078521  0.5932577765213054  0.1915146575997468  1.0000
  N   N5        1.0  0.379700327787475  0.45537335713047605  0.33049687843798387  1.0000
  N   N6        1.0  0.16496552466737308  0.45531317568691076  0.1695058933069618  1.0000
  N   N7        1.0  0.6202994600534166  0.544626701739098  0.6695034616271514  1.0000
  N   N8        1.0  0.8350352626658688  0.5446868829867667  0.8304942598857323  1.0000
  O   O1        1.0  0.47077593718828586  0.057975200061719086  0.7500985729959098  1.0000
  O   O2        1.0  0.5292243661139012  0.9420238282588898  0.249901767058418  1.0000
  O   O3        1.0  0.09447877375496454  0.7841948315125151  0.08132919981280651  1.0000
  O   O4        1.0  0.12090998243394298  0.7841087622870262  0.4188588053063569  1.0000
  O   O5        1.0  0.9055204986246251  0.2158062579060243  0.9186711402631429  1.0000
  O   O6        1.0  0.8790903175647956  0.21589026606385178  0.5811406792204252  1.0000
  O   O7        1.0  0.31750070562619453  0.6720373580606208  0.1393695397788619  1.0000
  O   O8        1.0  0.010106941675068905  0.6721197626686788  0.3605584689140499  1.0000
  O   O9        1.0  0.6825010778959494  0.32796270044743653  0.8606295710138452  1.0000
  O   O10       1.0  0.9898928461658231  0.3278802962009025  0.6394418711510923  1.0000
