data_image0
_chemical_formula_structural       Zr6H50C52N20O34
_chemical_formula_sum              "Zr6 H50 C52 N20 O34"
_cell_length_a       14.900984451135509
_cell_length_b       14.872357464063976
_cell_length_c       14.857923868126766
_cell_angle_alpha    59.74021381893891
_cell_angle_beta     59.914881756744464
_cell_angle_gamma    59.876467408020744

_space_group_name_H-M_alt    "P 1"
_space_group_IT_number       1

loop_
  _space_group_symop_operation_xyz
  'x, y, z'

loop_
  _atom_site_type_symbol
  _atom_site_label
  _atom_site_symmetry_multiplicity
  _atom_site_fract_x
  _atom_site_fract_y
  _atom_site_fract_z
  _atom_site_occupancy
  Zr  Zr1       1.0  0.8791372041676194  0.882107175230161  0.621958122064022  1.0000
  Zr  Zr2       1.0  0.11591313475872765  0.11950798348820514  0.3842527109116105  1.0000
  Zr  Zr3       1.0  0.11581013467121398  0.8826931949124418  0.6223749094906593  1.0000
  Zr  Zr4       1.0  0.8785814926819598  0.11973846843708455  0.38481799962781327  1.0000
  Zr  Zr5       1.0  0.11589456291807926  0.8832469629326525  0.38522008075457836  1.0000
  Zr  Zr6       1.0  0.8801651037110503  0.11919796898168042  0.621015909342411  1.0000
  H   H1        1.0  0.09268065706846308  0.719834274357659  0.594889470856337  1.0000
  H   H2        1.0  0.09197135189410223  0.09237290849154794  0.22174147015900303  1.0000
  H   H3        1.0  0.09128675107151443  0.09482722210827185  0.5957799488522184  1.0000
  H   H4        1.0  0.7176275384597091  0.09516501285033754  0.596915994428592  1.0000
  H   H5        1.0  0.9786117906467594  0.575495150116531  0.7394586298991043  1.0000
  H   H6        1.0  0.980032275915093  0.4111376005739587  0.7381181226229927  1.0000
  H   H7        1.0  0.9884430039523834  0.2357118466771341  0.07012546772744352  1.0000
  H   H8        1.0  0.9858660272654801  0.23885288689394474  0.9045150917390146  1.0000
  H   H9        1.0  0.1583417222373668  0.35292802425433933  0.3306773368891384  1.0000
  H   H10       1.0  0.18470509418031605  0.4738205043327214  0.25858826908834937  1.0000
  H   H11       1.0  0.8018982540623509  0.692730391938298  0.6262224130766539  1.0000
  H   H12       1.0  0.7393773114136973  0.6100280984317693  0.6492332924851852  1.0000
  H   H13       1.0  0.18231505319731398  0.6369996539769857  0.35621218922346287  1.0000
  H   H14       1.0  0.24494283586177784  0.5161399622340853  0.33000275153405306  1.0000
  H   H15       1.0  0.8396291788476518  0.3443772281681704  0.6732721183736247  1.0000
  H   H16       1.0  0.8012936915641402  0.43882294155906015  0.7298025256142822  1.0000
  H   H17       1.0  0.35765170079493197  0.15039382688357256  0.17237197853236094  1.0000
  H   H18       1.0  0.4771700502536332  0.17904097439285496  0.0899397604461214  1.0000
  H   H19       1.0  0.6729008584904291  0.8155842968528972  0.8700752690877493  1.0000
  H   H20       1.0  0.584869390929256  0.7536782719594516  0.9876658546781126  1.0000
  H   H21       1.0  0.6342223332273276  0.18272132690185577  0.8321136244022256  1.0000
  H   H22       1.0  0.5149833702773421  0.2449542920647831  0.9172328404048286  1.0000
  H   H23       1.0  0.32786739699829315  0.8530519292301978  0.13911057183894118  1.0000
  H   H24       1.0  0.41371147043555107  0.8237870914230642  0.020695433535983795  1.0000
  H   H25       1.0  0.8062448773392177  0.13418005996008014  0.8762333981386519  1.0000
  H   H26       1.0  0.7396942931359048  0.15565913075036525  0.9993051706594542  1.0000
  H   H27       1.0  0.14306729551744715  0.8157317449893853  0.1767260298865734  1.0000
  H   H28       1.0  0.17710625222932894  0.7558568776001381  0.0874068491678627  1.0000
  H   H29       1.0  0.8285844642323212  0.16324851160835854  0.15977123126239692  1.0000
  H   H30       1.0  0.7964196841838955  0.22867561750661047  0.042260253102007525  1.0000
  H   H31       1.0  0.18551481196028857  0.8617340547815789  0.8266698285119956  1.0000
  H   H32       1.0  0.24380115825808696  0.8325044884664337  0.9163901164812742  1.0000
  H   H33       1.0  0.3656136848909665  0.6785932939629407  0.3182195780543181  1.0000
  H   H34       1.0  0.48329805339970006  0.5919938932244124  0.25617910171337854  1.0000
  H   H35       1.0  0.6733156522022268  0.3678580831083453  0.6469682555766738  1.0000
  H   H36       1.0  0.5886751785825054  0.485111532470221  0.6775000014182453  1.0000
  H   H37       1.0  0.6458673048583989  0.3410963301213528  0.34492950172714393  1.0000
  H   H38       1.0  0.5234002485876273  0.41973004975626793  0.3208025726246789  1.0000
  H   H39       1.0  0.3294173684875472  0.6378955166152949  0.6856459799115271  1.0000
  H   H40       1.0  0.4169196231596218  0.5190439408553402  0.747532932125452  1.0000
  H   H41       1.0  0.3668110838515942  0.8134332068786637  0.6453641172990814  1.0000
  H   H42       1.0  0.48256215574861705  0.7525221353591152  0.6785141854992813  1.0000
  H   H43       1.0  0.6666829633845665  0.14930053177974412  0.3251741698700456  1.0000
  H   H44       1.0  0.5882767552677777  0.17592124513305418  0.25693281869924084  1.0000
  H   H45       1.0  0.6315603370374699  0.8526841367153964  0.6874574463782961  1.0000
  H   H46       1.0  0.514383958060378  0.8219216850488209  0.7480999433536722  1.0000
  H   H47       1.0  0.33249248650894697  0.17695886532661836  0.3494561648447315  1.0000
  H   H48       1.0  0.4137857084926395  0.2429031206801754  0.32233339285229323  1.0000
  H   H49       1.0  0.06649198048480517  0.4009816988547287  0.21208414773125375  1.0000
  H   H50       1.0  0.06930058034693305  0.7088569358244571  0.907826336126284  1.0000
  C   C1        1.0  0.9950610353849426  0.702481264344826  0.4955301670497858  1.0000
  C   C2        1.0  0.3038246973357274  0.9989828227293814  0.19992782525957858  1.0000
  C   C3        1.0  0.9961084428458022  0.309831902155125  0.4983711144436711  1.0000
  C   C4        1.0  0.6973850949275118  0.997451626309939  0.8113677247502267  1.0000
  C   C5        1.0  0.9950719013370414  0.6967450928509041  0.8086508984964951  1.0000
  C   C6        1.0  0.6933913171472809  0.999044764989776  0.5033210988225529  1.0000
  C   C7        1.0  0.9951979767307717  0.3053435980804481  0.19721603258358308  1.0000
  C   C8        1.0  0.30611279504110195  0.9973221785575531  0.4986671182054748  1.0000
  C   C9        1.0  0.3045097950626994  0.69905578479721  0.5031771919919591  1.0000
  C   C10       1.0  0.9950941538447676  0.9977534309197866  0.8106756058225458  1.0000
  C   C11       1.0  0.6980911713361521  0.3102484099678194  0.4990133954522094  1.0000
  C   C12       1.0  0.9912782613996852  0.9958893970568711  0.2043163981119418  1.0000
  C   C13       1.0  0.9954665924972731  0.41048184282174577  0.4961019632399726  1.0000
  C   C14       1.0  0.9932651867945167  0.6063375644559134  0.49219646742433554  1.0000
  C   C15       1.0  0.0800943459312434  0.4574176406674654  0.41523487371522083  1.0000
  C   C16       1.0  0.9033752462881492  0.5653561235122098  0.566320379986401  1.0000
  C   C17       1.0  0.08267902925204831  0.5497787163559168  0.4178038230191915  1.0000
  C   C18       1.0  0.9092679024237781  0.463618192889868  0.5744593211723056  1.0000
  C   C19       1.0  0.4028583512340303  0.9990700027594813  0.10086347934137048  1.0000
  C   C20       1.0  0.5973954688430324  0.9979922965061336  0.9095028443953339  1.0000
  C   C21       1.0  0.45350475636629267  0.07996927036732876  0.053810873282515104  1.0000
  C   C22       1.0  0.5504301579764003  0.9132527534463649  0.9604591538125573  1.0000
  C   C23       1.0  0.5446882606929647  0.08405415605175665  0.9547549876446908  1.0000
  C   C24       1.0  0.45021356520324907  0.9185316048076619  0.04964252346203325  1.0000
  C   C25       1.0  0.993228496956824  0.9967557719364849  0.9109231418234811  1.0000
  C   C26       1.0  0.9893330384992037  0.993799331852927  0.10716500533532529  1.0000
  C   C27       1.0  0.9027416377023482  0.07074178507848243  0.967543974009338  1.0000
  C   C28       1.0  0.07440821028109199  0.9133068103155539  0.05641850305261895  1.0000
  C   C29       1.0  0.9042975610681835  0.07368546833200906  0.06024209305866179  1.0000
  C   C30       1.0  0.08117185768151763  0.9207087857852374  0.9544613344658827  1.0000
  C   C31       1.0  0.4040552039301558  0.6005420816939733  0.5024063516943825  1.0000
  C   C32       1.0  0.5988308176549352  0.4091940699481216  0.4996935298317026  1.0000
  C   C33       1.0  0.45569207362052544  0.5554996841669465  0.416286152574429  1.0000
  C   C34       1.0  0.5512354340707546  0.45890352951934  0.581563599777837  1.0000
  C   C35       1.0  0.54743642225187  0.4567263153998341  0.41923355768822995  1.0000
  C   C36       1.0  0.4513532611080393  0.5483118017813525  0.5872254114983448  1.0000
  C   C37       1.0  0.0038921956097582827  0.5907354133415056  0.9015042247919353  1.0000
  C   C38       1.0  0.9882695207505702  0.5010040441210323  0.9045891001207024  1.0000
  C   C39       1.0  0.03264803231483164  0.5781175428809037  0.9844046348110852  1.0000
  C   C40       1.0  0.9819045856108342  0.5015034756431196  0.8122001873086617  1.0000
  C   C41       1.0  0.981236094349299  0.4090487048879511  0.8119081632099707  1.0000
  C   C42       1.0  0.004637800337810833  0.39857838988081085  0.09135549898919484  1.0000
  C   C43       1.0  0.03238611260299234  0.48103485666968754  0.08072116393082487  1.0000
  C   C44       1.0  0.9896658203217399  0.4032104669244421  0.0004800069429365346  1.0000
  C   C45       1.0  0.9866558075605167  0.3106348380710177  0.9981448799217674  1.0000
  C   C46       1.0  0.9841972095443551  0.3126127459009924  0.9053307868690298  1.0000
  C   C47       1.0  0.4049337866856957  0.9971149505608142  0.4990309141444697  1.0000
  C   C48       1.0  0.5944750021652038  0.9993464924951143  0.5029343170987772  1.0000
  C   C49       1.0  0.4550762631194867  0.9126897208606977  0.5808243262174384  1.0000
  C   C50       1.0  0.5483923439204759  0.079801440224081  0.41727806338785456  1.0000
  C   C51       1.0  0.5434223221930026  0.9184406985149923  0.5873259018556495  1.0000
  C   C52       1.0  0.45114655691961036  0.08261359876819095  0.41928484152390405  1.0000
  N   N1        1.0  0.16876513039491658  0.41379316953961626  0.33366942118399817  1.0000
  N   N2        1.0  0.8094666105741549  0.6160971959639742  0.6382960810525801  1.0000
  N   N3        1.0  0.17473998870530474  0.5815549894065769  0.34190394480544467  1.0000
  N   N4        1.0  0.8238372314635783  0.4242377963244409  0.659946892043905  1.0000
  N   N5        1.0  0.4155652529541242  0.16222849851344287  0.09604911913645964  1.0000
  N   N6        1.0  0.5946295805328459  0.8246274566581067  0.9240202176460386  1.0000
  N   N7        1.0  0.5792817049275739  0.1739478969230462  0.9100584071746027  1.0000
  N   N8        1.0  0.4059724591404145  0.8380554113966526  0.08496886414508233  1.0000
  N   N9        1.0  0.8112177307492561  0.14674760296669834  0.9345162750965554  1.0000
  N   N10       1.0  0.15834561173259906  0.8269175852451414  0.09763544355814695  1.0000
  N   N11       1.0  0.8156629822413209  0.15549407688838807  0.10331074285628729  1.0000
  N   N12       1.0  0.1749580792446746  0.8474334939608713  0.9051388150978993  1.0000
  N   N13       1.0  0.41974895728493045  0.6003147039106835  0.32731583217859855  1.0000
  N   N14       1.0  0.5950396269053968  0.42155129536136837  0.6631922047253623  1.0000
  N   N15       1.0  0.5849193398817005  0.4155857037440002  0.33627741852852466  1.0000
  N   N16       1.0  0.4074382688687164  0.5834131921372363  0.6768203132193518  1.0000
  N   N17       1.0  0.41913659020725136  0.8234888220720936  0.6617236995984258  1.0000
  N   N18       1.0  0.5905937723348842  0.16278503716783635  0.33019489419248776  1.0000
  N   N19       1.0  0.5783160637797877  0.8376512280352915  0.6773617343653269  1.0000
  N   N20       1.0  0.4088807760561366  0.17060227645248463  0.33658714001009565  1.0000
  O   O1        1.0  0.91882491475058  0.7449548860105824  0.571010017990062  1.0000
  O   O2        1.0  0.2608649220004863  0.07466025015501301  0.24270180581262923  1.0000
  O   O3        1.0  0.07191619141856606  0.2666154003496573  0.4227572164040794  1.0000
  O   O4        1.0  0.7417381139394691  0.9202801809198818  0.7702580830628349  1.0000
  O   O5        1.0  0.06448992484918377  0.7440540550511727  0.7755426025741483  1.0000
  O   O6        1.0  0.7364699823398696  0.07458477747918843  0.4271772163242744  1.0000
  O   O7        1.0  0.9206873423063084  0.2642234961300718  0.2366835355104795  1.0000
  O   O8        1.0  0.26367172533717537  0.9213267025249081  0.5744029635521812  1.0000
  O   O9        1.0  0.26314977731079375  0.7435024928513699  0.4261583259200208  1.0000
  O   O10       1.0  0.9195419767246449  0.07309381522861015  0.767641048516893  1.0000
  O   O11       1.0  0.740753430956218  0.2667991491949024  0.5750195155352813  1.0000
  O   O12       1.0  0.06892749502804911  0.9225693908748767  0.24483327225928514  1.0000
  O   O13       1.0  0.07286278781562296  0.9232775173605607  0.7670011264301877  1.0000
  O   O14       1.0  0.7403001847067614  0.26749183480593086  0.4234646363510207  1.0000
  O   O15       1.0  0.916620541080455  0.07300413570383313  0.24555636803779618  1.0000
  O   O16       1.0  0.2594421205188553  0.7387674804764117  0.581851839436986  1.0000
  O   O17       1.0  0.9204762185599757  0.7366670920329101  0.767193444099142  1.0000
  O   O18       1.0  0.2624930628338973  0.07455274475591987  0.42363735784445566  1.0000
  O   O19       1.0  0.06429648449288541  0.2720292400701112  0.24529104611971056  1.0000
  O   O20       1.0  0.7351869336885667  0.9235176990531008  0.5800837116600803  1.0000
  O   O21       1.0  0.7382872322523041  0.07475240033459578  0.7674758283467469  1.0000
  O   O22       1.0  0.07477910366104348  0.7410847111193918  0.42419524765959676  1.0000
  O   O23       1.0  0.2606824388336618  0.9237222731492454  0.24206596904754468  1.0000
  O   O24       1.0  0.9218954282764711  0.26611369280590963  0.5755761251757929  1.0000
  O   O25       1.0  0.7973627735971434  0.06805146138417237  0.5703354239459202  1.0000
  O   O26       1.0  0.06501104044564691  0.06799311239524296  0.5691857229133248  1.0000
  O   O27       1.0  0.06379873301636249  0.06918953759163322  0.301727774474756  1.0000
  O   O28       1.0  0.06420703579158964  0.7997842317035762  0.5717876624185435  1.0000
  O   O29       1.0  0.1450103561681926  0.9520644503019612  0.4542626208938003  1.0000
  O   O30       1.0  0.9484080707537427  0.9521676094828849  0.4542616831604533  1.0000
  O   O31       1.0  0.9488192359188047  0.14861062372571615  0.4530794176043785  1.0000
  O   O32       1.0  0.9489201611710808  0.9515927725306031  0.6502489591280777  1.0000
  O   O33       1.0  0.05793167706531198  0.4773126096003893  0.15813117654311526  1.0000
  O   O34       1.0  0.059286323894098936  0.6532068026870802  0.9830674759170748  1.0000
