data_image0
_chemical_formula_structural       CoH24C24N8O4
_chemical_formula_sum              "Co1 H24 C24 N8 O4"
_cell_length_a       8.532802874316788
_cell_length_b       8.50264901717465
_cell_length_c       9.788061969965916
_cell_angle_alpha    85.2044571939757
_cell_angle_beta     90.23329800850813
_cell_angle_gamma    66.66492256825944

_space_group_name_H-M_alt    "P 1"
_space_group_IT_number       1

loop_
  _space_group_symop_operation_xyz
  'x, y, z'

loop_
  _atom_site_type_symbol
  _atom_site_label
  _atom_site_symmetry_multiplicity
  _atom_site_fract_x
  _atom_site_fract_y
  _atom_site_fract_z
  _atom_site_occupancy
  Co  Co1       1.0  0.999999229465786  3.152694091603242e-06  1.1326891566984496e-06  1.0000
  H   H1        1.0  0.2105500242160475  0.1701805041902489  0.7970959210143957  1.0000
  H   H2        1.0  0.7894478198576781  0.8298202670132536  0.20290809482693822  1.0000
  H   H3        1.0  0.021640320474311595  0.23349675134997477  0.1785826102282186  1.0000
  H   H4        1.0  0.9783607306977302  0.7665105365580162  0.8214209054458053  1.0000
  H   H5        1.0  0.17568225162591491  0.44817079849688907  0.1555393846054116  1.0000
  H   H6        1.0  0.8243113585942367  0.5518402564215917  0.8444577331476207  1.0000
  H   H7        1.0  0.6064654835412072  0.17040942609827422  0.05878148768712071  1.0000
  H   H8        1.0  0.3935311880312398  0.8295913269458166  0.9412215105332676  1.0000
  H   H9        1.0  0.8921214271035751  0.2068033521543242  0.7277254652708789  1.0000
  H   H10       1.0  0.10787626223410032  0.7931948237376147  0.2722736388173033  1.0000
  H   H11       1.0  0.5861382573571705  0.4334362661697141  0.6555535460000641  1.0000
  H   H12       1.0  0.41385751512118674  0.5665580008310656  0.3444468797620174  1.0000
  H   H13       1.0  0.30470919733667057  0.5605236919814801  0.9230761629335119  1.0000
  H   H14       1.0  0.6952886978777783  0.43947965869217837  0.07691846263191592  1.0000
  H   H15       1.0  0.26873840807634514  0.4875141502402441  0.7687906228357875  1.0000
  H   H16       1.0  0.731256405177163  0.5124852745143754  0.23120532835608287  1.0000
  H   H17       1.0  0.3289701354152114  0.7195440136953408  0.647032352851255  1.0000
  H   H18       1.0  0.6710339912515267  0.28045554615077606  0.3529625451466956  1.0000
  H   H19       1.0  0.1928416734976112  0.8271419721545427  0.4998325289713462  1.0000
  H   H20       1.0  0.8071624827677866  0.17285759221769578  0.5001664553206167  1.0000
  H   H21       1.0  0.544897586114452  0.8325875923136363  0.7274126705082579  1.0000
  H   H22       1.0  0.4551120498455249  0.16740428936777357  0.2725879039375626  1.0000
  H   H23       1.0  0.2574224211610384  0.030202423087842996  0.34392382011116496  1.0000
  H   H24       1.0  0.7425863807114796  0.9697972071328491  0.6560731052235836  1.0000
  C   C1        1.0  0.18913881131869195  0.21966475585607978  0.8969116587269638  1.0000
  C   C2        1.0  0.8108603229940248  0.7803386231607446  0.1030931786209521  1.0000
  C   C3        1.0  0.23759084686848558  0.34461593055230816  0.9483269535598992  1.0000
  C   C4        1.0  0.762407859301  0.6553913210368733  0.051674526872226116  1.0000
  C   C5        1.0  0.1743811179007864  0.36258985545082817  0.07965822138575619  1.0000
  C   C6        1.0  0.8256135544825871  0.6374186291046725  0.9203411316761105  1.0000
  C   C7        1.0  0.6305187677494859  0.22067972095912572  0.9593051784402389  1.0000
  C   C8        1.0  0.36947713726591763  0.7793171379586211  0.0406970943544778  1.0000
  C   C9        1.0  0.516058567124027  0.3438944787963789  0.8615131090091381  1.0000
  C   C10       1.0  0.48394081839688136  0.6561024289419564  0.13848710878091444  1.0000
  C   C11       1.0  0.6183301601847119  0.3574656639304266  0.7542274122277204  1.0000
  C   C12       1.0  0.38166755875163016  0.6425325164876269  0.24577577815448848  1.0000
  C   C13       1.0  0.32751855895691057  0.44296402858057593  0.8727666682805548  1.0000
  C   C14       1.0  0.6724810398404273  0.557038055071004  0.1272300925602394  1.0000
  C   C15       1.0  0.12652790525184804  0.9617032692112204  0.6775265342976624  1.0000
  C   C16       1.0  0.8734782428029605  0.0382885625180762  0.3224750735793193  1.0000
  C   C17       1.0  0.2628430393522052  0.8446686487326716  0.5878427037256273  1.0000
  C   C18       1.0  0.7371554313418544  0.1553334235486687  0.4121591689352401  1.0000
  C   C19       1.0  0.38684921059417116  0.9216567577050296  0.5405887774698428  1.0000
  C   C20       1.0  0.6131504104021629  0.07834532934113267  0.4594110480914608  1.0000
  C   C21       1.0  0.5246504145110721  0.9061197780916427  0.6271355443262435  1.0000
  C   C22       1.0  0.47535011391244825  0.09387714327998252  0.3728616047907351  1.0000
  C   C23       1.0  0.3637860108389718  0.016743841923698696  0.4126878380121255  1.0000
  C   C24       1.0  0.6362265153475661  0.9832493647075535  0.5873013911865783  1.0000
  N   N1        1.0  0.10067719599806683  0.16716949952058258  0.9900811661775677  1.0000
  N   N2        1.0  0.8993180518649171  0.8328377066425998  0.00992543397973121  1.0000
  N   N3        1.0  0.09452405062059908  0.25387975930640044  0.10084742898396828  1.0000
  N   N4        1.0  0.9054712853814381  0.7461300319845845  0.8991548887649471  1.0000
  N   N5        1.0  0.7905369516583464  0.16510702063759908  0.9141729957664494  1.0000
  N   N6        1.0  0.20945909329377352  0.8348924313286472  0.08583214563440582  1.0000
  N   N7        1.0  0.7819677021541835  0.2503028817700255  0.7897265857544866  1.0000
  N   N8        1.0  0.21803000938249567  0.7496952975165027  0.2102755830542122  1.0000
  O   O1        1.0  0.10210616294291698  0.8921185478208642  0.7920629894744592  1.0000
  O   O2        1.0  0.897905309137002  0.10787465875543492  0.20794156727936294  1.0000
  O   O3        1.0  0.04821117248980041  0.11890858129861209  0.6343476796329596  1.0000
  O   O4        1.0  0.9517874390743944  0.881084431181847  0.3656507911579112  1.0000
