data_image0
_chemical_formula_structural       Co4H36C24O22
_chemical_formula_sum              "Co4 H36 C24 O22"
_cell_length_a       7.729435892035329
_cell_length_b       9.738367284884767
_cell_length_c       10.843993069613173
_cell_angle_alpha    98.19628475624376
_cell_angle_beta     110.87906451600782
_cell_angle_gamma    90.02313235344005

_space_group_name_H-M_alt    "P 1"
_space_group_IT_number       1

loop_
  _space_group_symop_operation_xyz
  'x, y, z'

loop_
  _atom_site_type_symbol
  _atom_site_label
  _atom_site_symmetry_multiplicity
  _atom_site_fract_x
  _atom_site_fract_y
  _atom_site_fract_z
  _atom_site_occupancy
  Co  Co1       1.0  0.6515721228730699  0.0696436944956389  0.9505457443224827  1.0000
  Co  Co2       1.0  0.7009581604519114  0.43036728553087017  0.04941053109570958  1.0000
  Co  Co3       1.0  0.3484220994194446  0.9304085032627042  0.04946132084357659  1.0000
  Co  Co4       1.0  0.299006594546583  0.5696040291706906  0.9506113064418001  1.0000
  H   H1        1.0  0.38771050543753205  0.6062811393666647  0.588021640250318  1.0000
  H   H2        1.0  0.8003211354852979  0.893809016181116  0.4120506170788474  1.0000
  H   H3        1.0  0.6122865538699571  0.3937139703411886  0.41198651851632917  1.0000
  H   H4        1.0  0.19973312824460276  0.10620996236639256  0.587954878624842  1.0000
  H   H5        1.0  0.6272299751728881  0.6065831001876986  0.6063680148148832  1.0000
  H   H6        1.0  0.021307411602982995  0.8933608521743891  0.39350141958477275  1.0000
  H   H7        1.0  0.3727626927298786  0.39340890245693316  0.39364140091356586  1.0000
  H   H8        1.0  0.9786892073684399  0.10664553866298117  0.6064849570338706  1.0000
  H   H9        1.0  0.5866031723539535  0.80832271057708  0.4806001499046814  1.0000
  H   H10       1.0  0.10623369075894121  0.691645969979362  0.51939912091796  1.0000
  H   H11       1.0  0.4134121376989413  0.19167551934612695  0.5194084689487183  1.0000
  H   H12       1.0  0.8937917881863555  0.3083782274673368  0.4806116109025139  1.0000
  H   H13       1.0  0.34719255112214853  0.7538416632837792  0.4070388859255019  1.0000
  H   H14       1.0  0.9405192443568141  0.7463260227954149  0.5930118933539532  1.0000
  H   H15       1.0  0.6528003590714633  0.246153433146432  0.592967283304162  1.0000
  H   H16       1.0  0.0594989836737341  0.2536940410836195  0.4070020014359556  1.0000
  H   H17       1.0  0.29127299673322676  0.8921333328335588  0.6023757366566257  1.0000
  H   H18       1.0  0.688911997341613  0.608242326629984  0.3978612340070811  1.0000
  H   H19       1.0  0.7087282388391785  0.10786176098942239  0.39762980407694926  1.0000
  H   H20       1.0  0.31110875266392674  0.3917746542594074  0.6021575408109499  1.0000
  H   H21       1.0  0.49744386316565675  0.9930967929137893  0.6278469876569518  1.0000
  H   H22       1.0  0.8692249905683767  0.5069680329317591  0.3722672269709974  1.0000
  H   H23       1.0  0.5025777758147997  0.0069117789965317976  0.3721553052778219  1.0000
  H   H24       1.0  0.13080244931627052  0.4930447400545575  0.6277426051548359  1.0000
  H   H25       1.0  0.8682278584163258  0.2584824978884156  0.9197020001166365  1.0000
  H   H26       1.0  0.9485019129801132  0.24155894498420585  0.08020361790165251  1.0000
  H   H27       1.0  0.1317910982121759  0.7414875887688125  0.08028842101383296  1.0000
  H   H28       1.0  0.0514928679079034  0.7584214698899457  0.9197790957398124  1.0000
  H   H29       1.0  0.9852632235498221  0.9975907062127044  0.1315427519058899  1.0000
  H   H30       1.0  0.8534789187375509  0.5024021574130585  0.8682067106430721  1.0000
  H   H31       1.0  0.014711026074962802  0.002415872384872799  0.8684738676367161  1.0000
  H   H32       1.0  0.14642118362448292  0.4975860894083864  0.1317037703800708  1.0000
  H   H33       1.0  0.808859431932568  0.9527576807906041  0.16932062896993466  1.0000
  H   H34       1.0  0.639654333368405  0.5476673849774085  0.830798945761188  1.0000
  H   H35       1.0  0.1911620654314348  0.04724880721015979  0.8306804494126537  1.0000
  H   H36       1.0  0.36041944350022687  0.4524349747696802  0.16925869210654548  1.0000
  C   C1        1.0  0.749569814063122  0.8410405545063783  0.7864787555298134  1.0000
  C   C2        1.0  0.9631784813675567  0.6588669406383685  0.2135586464620332  1.0000
  C   C3        1.0  0.2504004547843195  0.1589658300059539  0.21350730754142688  1.0000
  C   C4        1.0  0.03682832074800759  0.341128133948949  0.7864437107321081  1.0000
  C   C5        1.0  0.5437811326144413  0.7934366425851208  0.7162637548278923  1.0000
  C   C6        1.0  0.8276347655588978  0.7065370463722188  0.2837610341474458  1.0000
  C   C7        1.0  0.4562033498303322  0.20657608263056906  0.2837396486306146  1.0000
  C   C8        1.0  0.17235240889306172  0.29345377899195296  0.7162265377230239  1.0000
  C   C9        1.0  0.46269064081501904  0.7780578201066104  0.8229326244632844  1.0000
  C   C10       1.0  0.6399431907624663  0.7219419601244184  0.177056234195348  1.0000
  C   C11       1.0  0.5373020897506676  0.2219352332415524  0.17707878081228048  1.0000
  C   C12       1.0  0.36003253605366586  0.27802389927805377  0.8229234861353945  1.0000
  C   C13       1.0  0.5096983106771306  0.6717444953542469  0.6002310414056636  1.0000
  C   C14       1.0  0.9098834961384555  0.8282523511896257  0.39973885742141146  1.0000
  C   C15       1.0  0.49029118563598223  0.3282609781836001  0.39977460347788707  1.0000
  C   C16       1.0  0.09013832416560058  0.17173962774846524  0.6002660547856846  1.0000
  C   C17       1.0  0.46430908646843966  0.7788877992845682  0.5018818188565248  1.0000
  C   C18       1.0  0.9627373307585858  0.7211564165751907  0.4981612908992544  1.0000
  C   C19       1.0  0.5356941601501576  0.22111556850083497  0.498118799439318  1.0000
  C   C20       1.0  0.037284294861841295  0.27885328769370676  0.5018558927788135  1.0000
  C   C21       1.0  0.43684866282985274  0.8875064554024445  0.6112039761379506  1.0000
  C   C22       1.0  0.8255883635078973  0.6126366855439612  0.3889068228235927  1.0000
  C   C23       1.0  0.5631563771955258  0.11250318409086896  0.38880340636414706  1.0000
  C   C24       1.0  0.1744348295190932  0.3873761791497613  0.6111176070174693  1.0000
  O   O1        1.0  0.7902491707839517  0.971471371139472  0.8326363259790028  1.0000
  O   O2        1.0  0.9575607431552272  0.5284464001553815  0.16729216017151316  1.0000
  O   O3        1.0  0.20977632741230684  0.028513301146538998  0.16736217801937406  1.0000
  O   O4        1.0  0.04245028366616309  0.4715463704999008  0.8326741114469342  1.0000
  O   O5        1.0  0.8675969289571271  0.7507406078842179  0.7958908588876169  1.0000
  O   O6        1.0  0.0718397555032055  0.7491705121232214  0.20417800741957134  1.0000
  O   O7        1.0  0.13237885842355723  0.24927028099426704  0.20415066210331634  1.0000
  O   O8        1.0  0.9281719568757012  0.2508151860491736  0.7958189260493426  1.0000
  O   O9        1.0  0.4789396573826252  0.8860805457488038  0.9106088786056005  1.0000
  O   O10       1.0  0.568693786815146  0.6140860920934229  0.08912754007996428  1.0000
  O   O11       1.0  0.521068461027113  0.11395187341881295  0.08938918212790269  1.0000
  O   O12       1.0  0.43126563094396186  0.385904747794008  0.910863048291489  1.0000
  O   O13       1.0  0.3843001133054997  0.6630249155355797  0.8200328446438759  1.0000
  O   O14       1.0  0.564378535000195  0.8368884179869904  0.18014521827891627  1.0000
  O   O15       1.0  0.6157290519225427  0.3369524617633529  0.17996109417380515  1.0000
  O   O16       1.0  0.43564959001098197  0.1631150469617992  0.8198701017808715  1.0000
  O   O17       1.0  0.830641188367217  0.25005682053446776  0.9999777887616544  1.0000
  O   O18       1.0  0.1693409805772177  0.7499423655361139  1.8746370997653764e-05  1.0000
  O   O19       1.0  0.8461089916935265  0.9915529936519077  0.10414890974981  1.0000
  O   O20       1.0  0.7415759926466381  0.5079116248796608  0.8954327351838175  1.0000
  O   O21       1.0  0.153877549434398  0.008448202118330495  0.8958370067618374  1.0000
  O   O22       1.0  0.2583190959943096  0.49194896179544373  0.10448198683685207  1.0000
