data_image0
_chemical_formula_structural       Zn4H14C32O13
_chemical_formula_sum              "Zn4 H14 C32 O13"
_cell_length_a       16.13024025946109
_cell_length_b       16.10280757128733
_cell_length_c       16.107721657731904
_cell_angle_alpha    83.47922250333603
_cell_angle_beta     89.85158553996231
_cell_angle_gamma    84.17489674721016

_space_group_name_H-M_alt    "P 1"
_space_group_IT_number       1

loop_
  _space_group_symop_operation_xyz
  'x, y, z'

loop_
  _atom_site_type_symbol
  _atom_site_label
  _atom_site_symmetry_multiplicity
  _atom_site_fract_x
  _atom_site_fract_y
  _atom_site_fract_z
  _atom_site_occupancy
  Zn  Zn1       1.0  0.4290506597688831  0.429208162121988  0.570856899754794  1.0000
  Zn  Zn2       1.0  0.577276756511658  0.42825656534384393  0.4363212670432829  1.0000
  Zn  Zn3       1.0  0.562434144327689  0.5638422649521928  0.5709574527248122  1.0000
  Zn  Zn4       1.0  0.42905782694413835  0.579702776457566  0.42167891692827186  1.0000
  H   H1        1.0  0.9919413099678135  0.5723105170482654  0.4268357080649422  1.0000
  H   H2        1.0  0.6670609214204146  0.05996660733278251  0.6202497323852469  1.0000
  H   H3        1.0  0.5808044911988333  0.060793399956068604  0.6887796220600677  1.0000
  H   H4        1.0  0.6626420402897892  0.977842244257495  0.7031311589996816  1.0000
  H   H5        1.0  0.5411055426359112  0.9264287294767756  0.6371326330606166  1.0000
  H   H6        1.0  0.6259401461071049  0.9258664851974249  0.5692789834263718  1.0000
  H   H7        1.0  0.007642149688614089  0.4285964214675034  0.5724004957649453  1.0000
  H   H8        1.0  0.4545926805060744  0.4263889924328198  0.012811305591632972  1.0000
  H   H9        1.0  0.4424322971105922  0.019114978029279004  0.4285080048292968  1.0000
  H   H10       1.0  0.5134616336811033  0.6924608146936749  0.047068033696660856  1.0000
  H   H11       1.0  0.5914315605229844  0.8051052225032577  0.975562305270472  1.0000
  H   H12       1.0  0.7004754946887672  0.770453358164275  0.8714907134248617  1.0000
  H   H13       1.0  0.7303134974596686  0.6228569006579647  0.8386118883209333  1.0000
  H   H14       1.0  0.6501615145303958  0.5112121736325932  0.9077046580815062  1.0000
  C   C1        1.0  0.5114360574245181  0.5124386621853888  0.27478826674655465  1.0000
  C   C2        1.0  0.4863883609765906  0.4808762613141084  0.8144564032931143  1.0000
  C   C3        1.0  0.516928787911624  0.18316976851149758  0.5194572271433628  1.0000
  C   C4        1.0  0.4891751353066383  0.48669673516083384  0.7251086813416519  1.0000
  C   C5        1.0  0.5256917422140289  0.0183445541712501  0.5312497699857062  1.0000
  C   C6        1.0  0.4811831825452797  0.9803191612933663  0.47653721949754396  1.0000
  C   C7        1.0  0.4832456445365878  0.8929562389583056  0.47971022147777376  1.0000
  C   C8        1.0  0.5204003508956203  0.10670049757533921  0.5241588625163232  1.0000
  C   C9        1.0  0.4854754618316476  0.8165859405388505  0.48265328203846986  1.0000
  C   C10       1.0  0.5118320730019049  0.2735337090964621  0.512994018141427  1.0000
  C   C11       1.0  0.48940842059431583  0.7268496722903706  0.4874155067824615  1.0000
  C   C12       1.0  0.11014008965463518  0.5201703048496213  0.4795540936912985  1.0000
  C   C13       1.0  0.7237682946873533  0.4869459141251939  0.5127027532083159  1.0000
  C   C14       1.0  0.27532436032642943  0.5119347354564499  0.48715751721267236  1.0000
  C   C15       1.0  0.8134412327745435  0.48197656327066346  0.5179006518438313  1.0000
  C   C16       1.0  0.976392330953928  0.4753322773888585  0.5250431194840529  1.0000
  C   C17       1.0  0.023009259610653  0.5255454050223349  0.4742270815036704  1.0000
  C   C18       1.0  0.5758196899717801  0.594849501854675  0.9808864945804527  1.0000
  C   C19       1.0  0.5608025160424218  0.6775966604310996  0.0010626271332582864  1.0000
  C   C20       1.0  0.6047939901730146  0.7406179843701749  0.9609881501877452  1.0000
  C   C21       1.0  0.6656779293828166  0.7212165704370507  0.9023482238343303  1.0000
  C   C22       1.0  0.6822549715673104  0.6385629641669085  0.8835831386197484  1.0000
  C   C23       1.0  0.8892771381131934  0.4795413553717652  0.5206397337124713  1.0000
  C   C24       1.0  0.6372475800549183  0.5756844282760697  0.9221825514003468  1.0000
  C   C25       1.0  0.5804795776042794  0.9682359445468904  0.599623654151024  1.0000
  C   C26       1.0  0.6251220860197574  0.0198922541964208  0.6559397546562238  1.0000
  C   C27       1.0  0.1860143921080848  0.5169561342032409  0.4824796291686224  1.0000
  C   C28       1.0  0.5160639332672047  0.5185825714287235  0.18495998480163675  1.0000
  C   C29       1.0  0.5269089304946846  0.5284162708314143  0.021176755117650676  1.0000
  C   C30       1.0  0.4887383488245191  0.4739287874751739  0.9777300774359717  1.0000
  C   C31       1.0  0.48821996370532617  0.4777034063382787  0.8905658316905727  1.0000
  C   C32       1.0  0.5196528819026938  0.5229144246114715  0.10894267679378089  1.0000
  O   O1        1.0  0.5003231794073741  0.49956700694618666  0.49939752171449187  1.0000
  O   O2        1.0  0.6942168998403629  0.44121242562564333  0.46270728922669935  1.0000
  O   O3        1.0  0.3106087733653808  0.5635270923123913  0.4358725485086197  1.0000
  O   O4        1.0  0.6838711896387223  0.5366581564423429  0.5583542451005883  1.0000
  O   O5        1.0  0.3105411132743611  0.45619571767300476  0.5422750846623073  1.0000
  O   O6        1.0  0.4570803927568932  0.309094581259494  0.5580402365455368  1.0000
  O   O7        1.0  0.4433764016762326  0.6967374105432925  0.43612451738345465  1.0000
  O   O8        1.0  0.5617283198044944  0.4555996891070608  0.3147976417845441  1.0000
  O   O9        1.0  0.5381105885880046  0.5374126148351623  0.689615722207236  1.0000
  O   O10       1.0  0.457676474983991  0.5642522794803995  0.3047196143320363  1.0000
  O   O11       1.0  0.44306916122722834  0.4408199510489795  0.6895699659720618  1.0000
  O   O12       1.0  0.5627249908082418  0.3082539793430499  0.46277161887446994  1.0000
  O   O13       1.0  0.53894601282029  0.6855011058991494  0.5428306613886419  1.0000
