data_image0
_chemical_formula_structural       Ag3H33C33N9Cl3
_chemical_formula_sum              "Ag3 H33 C33 N9 Cl3"
_cell_length_a       7.318655871145541
_cell_length_b       10.899155177930854
_cell_length_c       11.20091691314382
_cell_angle_alpha    76.4042430292807
_cell_angle_beta     82.65629848928157
_cell_angle_gamma    87.37874684046248

_space_group_name_H-M_alt    "P 1"
_space_group_IT_number       1

loop_
  _space_group_symop_operation_xyz
  'x, y, z'

loop_
  _atom_site_type_symbol
  _atom_site_label
  _atom_site_symmetry_multiplicity
  _atom_site_fract_x
  _atom_site_fract_y
  _atom_site_fract_z
  _atom_site_occupancy
  Ag  Ag1       1.0  0.020374268111062604  0.8036761175513191  0.43685623029866616  1.0000
  Ag  Ag2       1.0  0.35594904676527517  0.7915927996485765  0.5600735950120568  1.0000
  Ag  Ag3       1.0  0.6527313493976551  0.9321108946176153  0.6233279544740216  1.0000
  H   H1        1.0  0.3144179500406993  0.2682242677164695  0.47212656806699743  1.0000
  H   H2        1.0  0.11129668751351571  0.24237063382091156  0.4102582488719337  1.0000
  H   H3        1.0  0.9218139832729265  0.27968710665685853  0.5842787835276086  1.0000
  H   H4        1.0  0.1245399414803572  0.26897893971756304  0.6580751958886213  1.0000
  H   H5        1.0  0.9005568484671399  0.49461860817299913  0.59911167065723  1.0000
  H   H6        1.0  0.12969258198086206  0.4898156998659503  0.6371655340878706  1.0000
  H   H7        1.0  0.10531576315254648  0.8677578262891428  0.21991638708817624  1.0000
  H   H8        1.0  0.2171414493106099  0.029413052969424296  0.0351983358188477  1.0000
  H   H9        1.0  0.43375670033306324  0.9709608952210048  0.8646953337120211  1.0000
  H   H10       1.0  0.5446556532251919  0.7474853176796684  0.8881162023234384  1.0000
  H   H11       1.0  0.43804980947469824  0.5853169172245816  0.07832212848117591  1.0000
  H   H12       1.0  0.6319696539555154  0.113638302455989  0.037594294067950805  1.0000
  H   H13       1.0  0.7750794888634188  0.1381717070375501  0.14760455779532583  1.0000
  H   H14       1.0  0.5111905262209575  0.2639027696946457  0.20675265716165825  1.0000
  H   H15       1.0  0.35816305259968567  0.17518610798294532  0.15144363754139795  1.0000
  H   H16       1.0  0.5014903438658322  0.1105210344363741  0.4039264695758933  1.0000
  H   H17       1.0  0.28405683268577764  0.07367309902246431  0.36391773433128805  1.0000
  H   H18       1.0  0.50922737142794  0.6002678708886438  0.5137215313296934  1.0000
  H   H19       1.0  0.5716658478544118  0.37018473260107504  0.5415237426767734  1.0000
  H   H20       1.0  0.7548534331034489  0.2863826086484523  0.3757103481087115  1.0000
  H   H21       1.0  0.8774626081322552  0.4366586304486618  0.17816531429572544  1.0000
  H   H22       1.0  0.8104859550149327  0.6655135916446541  0.1479597981266636  1.0000
  H   H23       1.0  0.8797800207676831  0.9360340057118323  0.00401106922264918  1.0000
  H   H24       1.0  0.7309009542809194  0.9261939637677943  0.8947595135377499  1.0000
  H   H25       1.0  0.8570635514219946  0.12094476316492832  0.7781889842750688  1.0000
  H   H26       1.0  0.054707122504950724  0.0996248024877033  0.858693385253176  1.0000
  H   H27       1.0  0.006267280486199003  0.0185434131439735  0.6239261217641074  1.0000
  H   H28       1.0  0.21472591353626314  0.0467961959266248  0.6806515823697412  1.0000
  H   H29       1.0  0.9353904717709794  0.4792192014441595  0.9430200151588938  1.0000
  H   H30       1.0  0.034126076272045204  0.2525338106310784  0.9743944628146938  1.0000
  H   H31       1.0  0.35025565638734696  0.19614990606677912  0.8842987172457132  1.0000
  H   H32       1.0  0.5665440767451885  0.36522148796439075  0.775314069836597  1.0000
  H   H33       1.0  0.47234055336254244  0.5910509579071926  0.7521536347607454  1.0000
  C   C1        1.0  0.1226330358647942  0.6409951782925842  0.37939103649617323  1.0000
  C   C2        1.0  0.1851875969982402  0.4375691601061433  0.3805502501789136  1.0000
  C   C3        1.0  0.17559614247984712  0.3056426385965594  0.4553496541483498  1.0000
  C   C4        1.0  0.058607935648225896  0.3194246869601045  0.5779200280260215  1.0000
  C   C5        1.0  0.04165972234382309  0.46204241156512893  0.576045529494664  1.0000
  C   C6        1.0  0.2676489358713354  0.7168095713449318  0.16091263421905214  1.0000
  C   C7        1.0  0.20445133890854808  0.8415951205327091  0.1485177313033361  1.0000
  C   C8        1.0  0.2671660483244409  0.9323373781468333  0.04315685885411824  1.0000
  C   C9        1.0  0.3884549887405058  0.8997483796833807  0.948444630999518  1.0000
  C   C10       1.0  0.44954136141637946  0.7744946163000322  0.9613064422175274  1.0000
  C   C11       1.0  0.3907501338374503  0.6829013622799495  0.06720866462969612  1.0000
  C   C12       1.0  0.5021117602025454  0.8405288278347742  0.3836922666591321  1.0000
  C   C13       1.0  0.623973088713001  0.9690578097774317  0.20807261777129335  1.0000
  C   C14       1.0  0.64118635170135  0.10264339285703981  0.13649485650086046  1.0000
  C   C15       1.0  0.47816115606510584  0.16818382913871233  0.2024117930244245  1.0000
  C   C16       1.0  0.43241481648875174  0.08219141262442523  0.3332427525231197  1.0000
  C   C17       1.0  0.6533610983693806  0.6469023870709024  0.32818269140720707  1.0000
  C   C18       1.0  0.5870146816719952  0.564109589396395  0.439268830666876  1.0000
  C   C19       1.0  0.6231141580436484  0.43511384267674913  0.4551077677691355  1.0000
  C   C20       1.0  0.7258475391748007  0.3876571735877902  0.36140381268057814  1.0000
  C   C21       1.0  0.7932383703228895  0.4713143391997007  0.25131443285945937  1.0000
  C   C22       1.0  0.7574517011990451  0.6007538256732091  0.23370468592928267  1.0000
  C   C23       1.0  0.19183114924418732  0.7719019355246105  0.7285059142906293  1.0000
  C   C24       1.0  0.9865762901038195  0.8300081443017079  0.8712955952699207  1.0000
  C   C25       1.0  0.8756905327404142  0.9358637387070063  0.906724350100504  1.0000
  C   C26       1.0  0.9632533060331455  0.0529545025516285  0.8136399578322868  1.0000
  C   C27       1.0  0.07755489613033009  0.004863543179404002  0.7069686646583266  1.0000
  C   C28       1.0  0.19631485073595914  0.5465996843476262  0.8439381677981505  1.0000
  C   C29       1.0  0.07348450316269611  0.4522682240700462  0.9082918258296931  1.0000
  C   C30       1.0  0.13031312196049777  0.32617412751431374  0.9247132398731001  1.0000
  C   C31       1.0  0.3067480223276958  0.294446045502383  0.8758663111772623  1.0000
  C   C32       1.0  0.42855225076966963  0.389842488010274  0.8129187899126153  1.0000
  C   C33       1.0  0.37524358940489577  0.5165181027290728  0.7978875582620195  1.0000
  N   N1        1.0  0.10899043229947843  0.5210481739269283  0.4479274867634617  1.0000
  N   N2        1.0  0.20974108197565042  0.6229814873941494  0.26928061066104914  1.0000
  N   N3        1.0  0.24942334479825942  0.4968937406306325  0.26834468453705546  1.0000
  N   N4        1.0  0.5092266440075263  0.9608364143717267  0.3158312531715028  1.0000
  N   N5        1.0  0.6148635083260247  0.7789453629192522  0.3091700318860476  1.0000
  N   N6        1.0  0.6922467349982567  0.8578932747131134  0.19972529272239833  1.0000
  N   N7        1.0  0.09553499890918718  0.8700079247457921  0.7613396766615069  1.0000
  N   N8        1.0  0.13689737104660793  0.6745003771630778  0.8256705302180267  1.0000
  N   N9        1.0  0.007979586447618198  0.7084423745718669  0.9149278197322986  1.0000
  Cl  Cl1       1.0  0.9264632454746645  0.024896778956105002  0.40266516823245285  1.0000
  Cl  Cl2       1.0  0.7653279420708614  0.7183424428303626  0.6566443531049304  1.0000
  Cl  Cl3       1.0  0.5400210631475701  0.13190956704730894  0.6530735679035831  1.0000
