data_image0
_chemical_formula_structural       La4Cu4H32C56N8O32
_chemical_formula_sum              "La4 Cu4 H32 C56 N8 O32"
_cell_length_a       9.332657688131437
_cell_length_b       9.690264109344588
_cell_length_c       21.654395369029867
_cell_angle_alpha    89.99999527229686
_cell_angle_beta     89.99982898629659
_cell_angle_gamma    114.86976333630922

_space_group_name_H-M_alt    "P 1"
_space_group_IT_number       1

loop_
  _space_group_symop_operation_xyz
  'x, y, z'

loop_
  _atom_site_type_symbol
  _atom_site_label
  _atom_site_symmetry_multiplicity
  _atom_site_fract_x
  _atom_site_fract_y
  _atom_site_fract_z
  _atom_site_occupancy
  La  La1       1.0  0.879970835976799  0.6420308302620439  0.0092386536227664  1.0000
  La  La2       1.0  0.6200297308571123  0.35796948574565585  0.5092384716062668  1.0000
  La  La3       1.0  0.12002994956131367  0.35796976333358527  0.9907608969991274  1.0000
  La  La4       1.0  0.37997362251764605  0.642034517543472  0.490762002613927  1.0000
  Cu  Cu1       1.0  0.5467013100011184  0.6939262114954443  0.14337422198794061  1.0000
  Cu  Cu2       1.0  0.9532981176884762  0.30607361870563204  0.6433740741061271  1.0000
  Cu  Cu3       1.0  0.4532942678174692  0.3060698402137518  0.8566262522374117  1.0000
  Cu  Cu4       1.0  0.04670423736383345  0.6939281097031865  0.3566264001147559  1.0000
  H   H1        1.0  0.28442674333574997  0.7738410111759746  0.1583103872647484  1.0000
  H   H2        1.0  0.2155765850780256  0.22615992662357334  0.6583100870140441  1.0000
  H   H3        1.0  0.7155724726803073  0.2261584476031118  0.8416900869581951  1.0000
  H   H4        1.0  0.7844263411719226  0.7738406617206549  0.3416899254064845  1.0000
  H   H5        1.0  0.2191061120140103  0.98762839903609  0.1255212392509293  1.0000
  H   H6        1.0  0.280892786303113  0.012369253071668099  0.6255217863972788  1.0000
  H   H7        1.0  0.7808931040040151  0.012371059743827597  0.874478773172008  1.0000
  H   H8        1.0  0.7191096407816812  0.9876301978307321  0.3744791496236104  1.0000
  H   H9        1.0  0.42564190461580154  0.2091009742023004  0.0693519236644207  1.0000
  H   H10       1.0  0.07435425964271751  0.7908968892108701  0.5693536315298999  1.0000
  H   H11       1.0  0.5743541723679328  0.7908962149487165  0.9306476269605709  1.0000
  H   H12       1.0  0.9256443851717935  0.20910370963113672  0.4306482280934247  1.0000
  H   H13       1.0  0.723972555981696  0.9688866494710026  0.0736538460639338  1.0000
  H   H14       1.0  0.7760337418903164  0.031117972504461  0.5736511661774416  1.0000
  H   H15       1.0  0.27603029821614916  0.031116216371280786  0.9263503225566794  1.0000
  H   H16       1.0  0.22397168017555913  0.9688883030447003  0.4263465372413151  1.0000
  H   H17       1.0  0.1306534051077648  0.4293231836469005  0.3556113145333271  1.0000
  H   H18       1.0  0.3693441103712729  0.5706724950659562  0.8556112649751384  1.0000
  H   H19       1.0  0.8693453117451141  0.5706751376911966  0.6443896214899709  1.0000
  H   H20       1.0  0.6306510403224976  0.42932014169834076  0.14438874745054162  1.0000
  H   H21       1.0  0.15647574587280386  0.261600768112828  0.2729315508195  1.0000
  H   H22       1.0  0.34352767947829216  0.738399751930828  0.7729315282703836  1.0000
  H   H23       1.0  0.843525610857057  0.7383986854156958  0.7270689234020721  1.0000
  H   H24       1.0  0.6564721077393258  0.2615985667853308  0.2270675605521859  1.0000
  H   H25       1.0  0.10662104581386694  0.3092864029553794  0.16169781362917487  1.0000
  H   H26       1.0  0.39337961395827387  0.690713390386591  0.6616972667994432  1.0000
  H   H27       1.0  0.893379240559092  0.6907130531984221  0.8383026605930793  1.0000
  H   H28       1.0  0.6066202452937973  0.309282650823981  0.3383018220231193  1.0000
  H   H29       1.0  0.9964656552183869  0.6723611138525881  0.2274751031411526  1.0000
  H   H30       1.0  0.5035252106586228  0.3276327376825633  0.7274741488353484  1.0000
  H   H31       1.0  0.0035277818844505243  0.3276349431063321  0.7725258328855916  1.0000
  H   H32       1.0  0.4964682984845367  0.6723610417732784  0.2725254017913628  1.0000
  C   C1        1.0  0.3686736474965285  0.8695987875042588  0.132295289405107  1.0000
  C   C2        1.0  0.13132726197454758  0.13040111232588453  0.6322951013379097  1.0000
  C   C3        1.0  0.6313271380356938  0.13040180608885515  0.8677056466168196  1.0000
  C   C4        1.0  0.8686745939184985  0.8695994786436215  0.3677049110833082  1.0000
  C   C5        1.0  0.3342739202694388  0.9902210721847237  0.1148974557406106  1.0000
  C   C6        1.0  0.16572877850520482  0.009777747965514998  0.6148972278406505  1.0000
  C   C7        1.0  0.6657263661054814  0.009778383969916095  0.8851025566816374  1.0000
  C   C8        1.0  0.8342773588154272  0.9902228325028656  0.38510278457780345  1.0000
  C   C9        1.0  0.4480548571603579  0.11180175515939077  0.08302350033713421  1.0000
  C   C10       1.0  0.051942261343420094  0.8881960561108  0.583026618854305  1.0000
  C   C11       1.0  0.5519412198253376  0.8881954339924645  0.9169755884878441  1.0000
  C   C12       1.0  0.9480590233421893  0.11180567491911828  0.4169761643673128  1.0000
  C   C13       1.0  0.5913676162097447  0.10627504735438006  0.0678440417387023  1.0000
  C   C14       1.0  0.9086308113561756  0.8937261990851935  0.5678462384539245  1.0000
  C   C15       1.0  0.4086305294474639  0.8937244140491455  0.9321568942849439  1.0000
  C   C16       1.0  0.09136933094200829  0.10627781207726629  0.4321556211683699  1.0000
  C   C17       1.0  0.6152827254118803  0.9788603278566793  0.0853868687881985  1.0000
  C   C18       1.0  0.8847181930583761  0.021141987241513498  0.5853863581696999  1.0000
  C   C19       1.0  0.38471748892467167  0.02114140580187039  0.9146140672340692  1.0000
  C   C20       1.0  0.11528458912464133  0.9788631561147197  0.41461319245082245  1.0000
  C   C21       1.0  0.7195766206432737  0.2364288209219935  0.0343800807378472  1.0000
  C   C22       1.0  0.7804248750540667  0.7635691238923812  0.5343833711898682  1.0000
  C   C23       1.0  0.2804205266934402  0.7635683656020688  0.9656203934864748  1.0000
  C   C24       1.0  0.21957855034141005  0.23643260188530482  0.46562033563039057  1.0000
  C   C25       1.0  0.10726427697878183  0.4448585042055838  0.3074201892644339  1.0000
  C   C26       1.0  0.3927372139257698  0.5551430336193872  0.8074201101344869  1.0000
  C   C27       1.0  0.8927375068798187  0.555144364269509  0.6925798231567839  1.0000
  C   C28       1.0  0.6072599334129052  0.44485415290550623  0.1925799022898218  1.0000
  C   C29       1.0  0.12191972244659864  0.35247923377120566  0.2607806895267331  1.0000
  C   C30       1.0  0.3780800958578609  0.6475202007131882  0.7607820112342978  1.0000
  C   C31       1.0  0.878081063093468  0.647521359825255  0.7392183992951472  1.0000
  C   C32       1.0  0.6219180497993478  0.3524792606903375  0.2392189247893484  1.0000
  C   C33       1.0  0.09375490025653475  0.37796910971499637  0.1994296522620829  1.0000
  C   C34       1.0  0.40624765182686656  0.6220282642152595  0.699429091414963  1.0000
  C   C35       1.0  0.9062491683827927  0.6220291984975218  0.8005708219577556  1.0000
  C   C36       1.0  0.5937522794576822  0.3779654994888943  0.3005704592076057  1.0000
  C   C37       1.0  0.046159573226276424  0.494316182132202  0.187358690299007  1.0000
  C   C38       1.0  0.4538403694623128  0.5056823808331001  0.6873576106519579  1.0000
  C   C39       1.0  0.9538422826608864  0.5056844088348027  0.8126427075222367  1.0000
  C   C40       1.0  0.5461568499166917  0.49431252818872196  0.312641016372325  1.0000
  C   C41       1.0  0.03345016615700289  0.5816611940914882  0.2364748223307132  1.0000
  C   C42       1.0  0.46654522204713084  0.4183326464737077  0.736475576770637  1.0000
  C   C43       1.0  0.9665491218993836  0.41833598718451964  0.7635242664921975  1.0000
  C   C44       1.0  0.5334499286446857  0.5816599902897507  0.2635248974550635  1.0000
  C   C45       1.0  0.0054220869705545  0.5315025153739724  0.12446432528538051  1.0000
  C   C46       1.0  0.4945758219992272  0.468492865681064  0.6244650417173075  1.0000
  C   C47       1.0  0.994581410478986  0.468496932906497  0.8755347635347802  1.0000
  C   C48       1.0  0.5054271762832059  0.5315054451567391  0.37553543250322  1.0000
  C   C49       1.0  0.4942230151856748  0.5223308621050929  0.0337877312258215  1.0000
  C   C50       1.0  0.00577216464836276  0.47767396525816247  0.5337876920141298  1.0000
  C   C51       1.0  0.5057757016711264  0.47766745923467363  0.9662122811974571  1.0000
  C   C52       1.0  0.9942229809674714  0.5223357514862028  0.4662118586112314  1.0000
  C   C53       1.0  0.0113779516664536  0.007663706288667497  0.03579826750571869  1.0000
  C   C54       1.0  0.48861614074484516  0.9923411164218757  0.5357962012227802  1.0000
  C   C55       1.0  0.9886222626759817  0.9923380273723905  0.9642012831165161  1.0000
  C   C56       1.0  0.5113759378888008  0.0076640531955334  0.46419873140453655  1.0000
  N   N1        1.0  0.5071458104837558  0.8626765611277986  0.11816827617570881  1.0000
  N   N2        1.0  0.992855827915946  0.13732791012547096  0.6181671600148491  1.0000
  N   N3        1.0  0.4928537606207185  0.13732859010092818  0.8818331216469275  1.0000
  N   N4        1.0  0.007149022948375561  0.8626795054866176  0.3818319288042886  1.0000
  N   N5        1.0  0.06530547042909508  0.5601589828890423  0.2955090064914927  1.0000
  N   N6        1.0  0.43469212834335025  0.4398334985550675  0.7955084157893495  1.0000
  N   N7        1.0  0.9346954591720191  0.4398370556929051  0.7044919295304197  1.0000
  N   N8        1.0  0.5653030943868343  0.560156860704481  0.2044911348363243  1.0000
  O   O1        1.0  0.7089557432346609  0.36291835925158  0.0353156920380968  1.0000
  O   O2        1.0  0.7910483123615534  0.6370829918710965  0.5353180499287902  1.0000
  O   O3        1.0  0.2910456134991222  0.6370810942786137  0.9646838585834488  1.0000
  O   O4        1.0  0.20895867920479816  0.36292441848540585  0.4646838096890277  1.0000
  O   O5        1.0  0.8284948524193964  0.21086059782646768  0.008830463656011  1.0000
  O   O6        1.0  0.6715067882285055  0.7891397170302807  0.5088325081545335  1.0000
  O   O7        1.0  0.1715037924029516  0.7891400010188859  0.9911695487672744  1.0000
  O   O8        1.0  0.3284902870600419  0.21085974699351331  0.4911711986698606  1.0000
  O   O9        1.0  0.9320004582959953  0.6155748114378665  0.12205405404878888  1.0000
  O   O10       1.0  0.5679919460902242  0.38441600433259987  0.622054861717892  1.0000
  O   O11       1.0  0.06799882976431341  0.384422369839818  0.8779441111741021  1.0000
  O   O12       1.0  0.43201205051465763  0.6155845813855052  0.37794561250194647  1.0000
  O   O13       1.0  0.04564150054682863  0.4794102593889561  0.0766804678923307  1.0000
  O   O14       1.0  0.45435988122818577  0.520589841862879  0.5766812342189596  1.0000
  O   O15       1.0  0.9543641376165084  0.5205891836409433  0.9233186209264447  1.0000
  O   O16       1.0  0.5456404051486957  0.47940961429259227  0.4233183164032752  1.0000
  O   O17       1.0  0.6210706694942161  0.620954835497855  0.05770611734644861  1.0000
  O   O18       1.0  0.8789309111811863  0.3790509947990656  0.557705600800773  1.0000
  O   O19       1.0  0.3789286185582554  0.37904234577648305  0.9422938950764816  1.0000
  O   O20       1.0  0.12107158286600136  0.620963258580339  0.4422934880197502  1.0000
  O   O21       1.0  0.3631621477084011  0.4611450299799529  0.0609795250377942  1.0000
  O   O22       1.0  0.13683865214424165  0.5388608232144277  0.5609797763873203  1.0000
  O   O23       1.0  0.6368371403479927  0.5388521512960479  0.9390195637851235  1.0000
  O   O24       1.0  0.8631660546511882  0.46115114740882746  0.4390193124318174  1.0000
  O   O25       1.0  0.9473941427959647  0.8871063495876043  0.067144170648298  1.0000
  O   O26       1.0  0.5526102137230638  0.1128937462073836  0.5671394667097757  1.0000
  O   O27       1.0  0.05260557238328539  0.11289424663246449  0.9328558417742912  1.0000
  O   O28       1.0  0.4473928566291078  0.8871022871398893  0.4328526951105686  1.0000
  O   O29       1.0  0.09250265178945224  0.13984923665927335  0.0571869420133666  1.0000
  O   O30       1.0  0.407488119936275  0.8601532389542185  0.5571863706524454  1.0000
  O   O31       1.0  0.9074976345835069  0.8601502194945282  0.9428135322088878  1.0000
  O   O32       1.0  0.5924950407439766  0.13984625921161606  0.4428099473807592  1.0000
