data_image0
_chemical_formula_structural       Zn4H24C38N12O14
_chemical_formula_sum              "Zn4 H24 C38 N12 O14"
_cell_length_a       10.497216856868729
_cell_length_b       11.035754750464973
_cell_length_c       10.771432556119182
_cell_angle_alpha    79.54911277258496
_cell_angle_beta     62.552264606962986
_cell_angle_gamma    69.50103907943931

_space_group_name_H-M_alt    "P 1"
_space_group_IT_number       1

loop_
  _space_group_symop_operation_xyz
  'x, y, z'

loop_
  _atom_site_type_symbol
  _atom_site_label
  _atom_site_symmetry_multiplicity
  _atom_site_fract_x
  _atom_site_fract_y
  _atom_site_fract_z
  _atom_site_occupancy
  Zn  Zn1       1.0  0.0792619953617759  0.22822345846756775  0.24842689070442964  1.0000
  Zn  Zn2       1.0  0.9207353912380682  0.7717738933518347  0.7515762399552698  1.0000
  Zn  Zn3       1.0  0.04850567490998976  0.796389427176777  0.2725498485028766  1.0000
  Zn  Zn4       1.0  0.9514981805903561  0.20361084716503794  0.7274489287432716  1.0000
  H   H1        1.0  0.5163085576252229  0.16219322203100012  0.8927024775743677  1.0000
  H   H2        1.0  0.48370284968562766  0.8378099454927221  0.10729517889925694  1.0000
  H   H3        1.0  0.5421215079434631  0.8628610830414586  0.5831813976285718  1.0000
  H   H4        1.0  0.45788230176699324  0.1371333122113896  0.4168268028356578  1.0000
  H   H5        1.0  0.29659092567700895  0.9673954143030202  0.7786646688318514  1.0000
  H   H6        1.0  0.7034186071606072  0.0325979829542788  0.2213457817125573  1.0000
  H   H7        1.0  0.5136697733076686  0.7345775668721044  0.37400879367552897  1.0000
  H   H8        1.0  0.4863223565310689  0.26542847490542704  0.6259970065908932  1.0000
  H   H9        1.0  0.7837598977070428  0.6801071262267443  0.21318079988643016  1.0000
  H   H10       1.0  0.21623762063216384  0.3199018596566106  0.786818342991296  1.0000
  H   H11       1.0  0.8931373985880814  0.4445404635503392  0.5364332449328444  1.0000
  H   H12       1.0  0.1068575493645981  0.5554637083605128  0.46356419568812873  1.0000
  H   H13       1.0  0.6244038841169725  0.4999717529977373  0.7001630875980143  1.0000
  H   H14       1.0  0.3755888572457523  0.5000265829909336  0.2998391682907524  1.0000
  H   H15       1.0  0.09911029674137241  0.6803190351167602  0.9485709186746547  1.0000
  H   H16       1.0  0.9008871773681124  0.3196870771576669  0.05142504215207558  1.0000
  H   H17       1.0  0.26134033519590355  0.73037066976061  0.5102984539641114  1.0000
  H   H18       1.0  0.7386612861047794  0.26962385398739025  0.4896949232250807  1.0000
  H   H19       1.0  0.3818838687650513  0.6107716496849916  0.84853058973939  1.0000
  H   H20       1.0  0.6181121520577336  0.38923252391384017  0.1514663688590615  1.0000
  H   H21       1.0  0.08567858088486696  0.9715239311636453  0.07071061331975415  1.0000
  H   H22       1.0  0.9143196449676977  0.028483072877328697  0.9292941352799747  1.0000
  H   H23       1.0  0.9838851360339192  0.8919303874726693  0.06735987279845543  1.0000
  H   H24       1.0  0.0161141526488606  0.10807664928478292  0.9326406791152096  1.0000
  C   C1        1.0  0.8154126438179576  0.8666161470623946  0.5262477691629498  1.0000
  C   C2        1.0  0.18459588859934678  0.13338605550469398  0.4737504215756871  1.0000
  C   C3        1.0  0.2639695361342121  0.7066649312776149  0.6115254926281467  1.0000
  C   C4        1.0  0.7360278303858436  0.29333248259877814  0.38847020870446153  1.0000
  C   C5        1.0  0.3872412512581605  0.6572428198928435  0.6423399383144996  1.0000
  C   C6        1.0  0.6127550423917826  0.3427545922955701  0.35765624504062293  1.0000
  C   C7        1.0  0.5478300576669071  0.6231357465399654  0.5500710693337681  1.0000
  C   C8        1.0  0.45216619677326264  0.3768587765252748  0.4499237893021331  1.0000
  C   C9        1.0  0.5961245150834175  0.6713280467778162  0.4109399698977684  1.0000
  C   C10       1.0  0.40386541474548204  0.32867514904333456  0.5890598976991513  1.0000
  C   C11       1.0  0.7484228076515366  0.6411586853813772  0.320124247388236  1.0000
  C   C12       1.0  0.2515678196508303  0.35884255962589146  0.6798775112671366  1.0000
  C   C13       1.0  0.8095793756209132  0.5103250533624502  0.5025410525524878  1.0000
  C   C14       1.0  0.190417276805661  0.48967135239052345  0.4974597909954143  1.0000
  C   C15       1.0  0.8570380490590993  0.5603509264100308  0.3650611360748004  1.0000
  C   C16       1.0  0.14295323399699106  0.43964548641730516  0.6349402602539271  1.0000
  C   C17       1.0  0.017989396567323002  0.5296908192276746  0.26774497655838303  1.0000
  C   C18       1.0  0.982000852828435  0.47030848103485573  0.7322582265120872  1.0000
  C   C19       1.0  0.7971015916007361  0.0641154692581338  0.7028934175534829  1.0000
  C   C20       1.0  0.20290724030363796  0.9358828998073393  0.29710067933161344  1.0000
  C   C21       1.0  0.2514038707463797  0.11981844242891529  0.9789245705195385  1.0000
  C   C22       1.0  0.7485974927869922  0.8801827961867659  0.021075153908306124  1.0000
  C   C23       1.0  0.3929305114287658  0.0665817069531656  0.8520735379752509  1.0000
  C   C24       1.0  0.6070747631684482  0.933417601426811  0.14792477411171495  1.0000
  C   C25       1.0  0.523088798073637  0.09492614961820318  0.825640149584011  1.0000
  C   C26       1.0  0.47691866398353977  0.9050760435037829  0.17435945184303142  1.0000
  C   C27       1.0  0.6618080954228631  0.03434399497777459  0.7182854298979892  1.0000
  C   C28       1.0  0.3381953922107643  0.9656543035908168  0.2817185064267989  1.0000
  C   C29       1.0  0.66942456628167  0.9452295589186118  0.6345352999341289  1.0000
  C   C30       1.0  0.3305853093229344  0.0547658916831608  0.36546070487277404  1.0000
  C   C31       1.0  0.5362013924272305  0.9264768813033865  0.6533589017136308  1.0000
  C   C32       1.0  0.4638049017202803  0.0735165729469713  0.3466455655712367  1.0000
  C   C33       1.0  0.3989326917479801  0.9852354255464277  0.7623413559255426  1.0000
  C   C34       1.0  0.6010740220258911  0.0147628548147196  0.2376639203293394  1.0000
  C   C35       1.0  0.6570541812015447  0.5419226511381794  0.5944177464797706  1.0000
  C   C36       1.0  0.3429452993788687  0.45807185371961606  0.40557845208623894  1.0000
  C   C37       1.0  0.17427001399128975  0.679422103652108  0.8382569954782397  1.0000
  C   C38       1.0  0.8257249289414476  0.3205820837729974  0.16173858781095865  1.0000
  N   N1        1.0  0.1334751312722702  0.7191702651781356  0.7336540089437237  1.0000
  N   N2        1.0  0.8665229568711863  0.2808281335503011  0.26633933617124256  1.0000
  N   N3        1.0  0.32592877259045844  0.6413281640473301  0.7871126014935186  1.0000
  N   N4        1.0  0.6740682527227763  0.35867020196463517  0.21288494030751795  1.0000
  N   N5        1.0  0.11037846260979484  0.41476322705901936  0.21014439179898403  1.0000
  N   N6        1.0  0.8896132450925978  0.5852379963648531  0.7898596708315253  1.0000
  N   N7        1.0  0.24647734393621323  0.43185070837350287  0.12333288516157377  1.0000
  N   N8        1.0  0.7535168315832266  0.5681466151105922  0.8766744775633412  1.0000
  N   N9        1.0  0.23832768766292386  0.5516513055170691  0.1277419994260214  1.0000
  N   N10       1.0  0.7616661441397312  0.4483469778597068  0.8722662751014382  1.0000
  N   N11       1.0  0.09557270219139015  0.616038401627726  0.21833789252261232  1.0000
  N   N12       1.0  0.9044211195713673  0.38395991277755565  0.7816666673413053  1.0000
  O   O1        1.0  0.7828723657727397  0.1849694817979213  0.7036020447336429  1.0000
  O   O2        1.0  0.21713184348428874  0.8150298016227069  0.2963995353735101  1.0000
  O   O3        1.0  0.8344704403033063  0.8833433440536356  0.39927235103102987  1.0000
  O   O4        1.0  0.16553273278341146  0.1166588345593169  0.6007301071519748  1.0000
  O   O5        1.0  0.9129828678540264  0.7833328344605518  0.5622148007105139  1.0000
  O   O6        1.0  0.08703071185694002  0.21667326434792494  0.4377785731078632  1.0000
  O   O7        1.0  0.9145674818022587  0.9744716912904675  0.6963013428735182  1.0000
  O   O8        1.0  0.085440996345433  0.025527668696199195  0.3036899511505738  1.0000
  O   O9        1.0  0.2639667509401776  0.1704547619862282  0.06836606290705297  1.0000
  O   O10       1.0  0.736034934670016  0.8295425733137092  0.9316379256602263  1.0000
  O   O11       1.0  0.12642683644450162  0.11075436665921497  0.9958556641088521  1.0000
  O   O12       1.0  0.8735762773526546  0.8892449848875543  0.004138040027832735  1.0000
  O   O13       1.0  0.07034908859960617  0.8849736458443757  0.08739804354337372  1.0000
  O   O14       1.0  0.9296494784597797  0.11503240606103297  0.9126048645879266  1.0000
