data_image0
_chemical_formula_structural       Cd2H36C32N12O10
_chemical_formula_sum              "Cd2 H36 C32 N12 O10"
_cell_length_a       10.483469184093522
_cell_length_b       10.484357143101215
_cell_length_c       11.075692281006193
_cell_angle_alpha    80.75253948315147
_cell_angle_beta     63.99628253997487
_cell_angle_gamma    69.2478846061684

_space_group_name_H-M_alt    "P 1"
_space_group_IT_number       1

loop_
  _space_group_symop_operation_xyz
  'x, y, z'

loop_
  _atom_site_type_symbol
  _atom_site_label
  _atom_site_symmetry_multiplicity
  _atom_site_fract_x
  _atom_site_fract_y
  _atom_site_fract_z
  _atom_site_occupancy
  Cd  Cd1       1.0  0.4389626151671919  0.4143815426091848  0.30743827956909103  1.0000
  Cd  Cd2       1.0  0.5610457449402232  0.5856168125058261  0.6925588230141672  1.0000
  H   H1        1.0  0.292318826574153  0.6008881157176305  0.545701503987182  1.0000
  H   H2        1.0  0.7076853321666334  0.39911332426952123  0.4542950166266309  1.0000
  H   H3        1.0  0.19345238765973963  0.6182971506474076  0.4637888909537153  1.0000
  H   H4        1.0  0.8065535777160874  0.3817022440351677  0.5362054014918486  1.0000
  H   H5        1.0  0.9342254267794701  0.3943378247822836  0.30924636128728616  1.0000
  H   H6        1.0  0.06577367155203724  0.6056656799402232  0.6907563887401622  1.0000
  H   H7        1.0  0.7621964612556908  0.6871754537378792  0.05237853148583587  1.0000
  H   H8        1.0  0.23780621171383837  0.3128300616892119  0.9476216009966407  1.0000
  H   H9        1.0  0.16173317022565228  0.6784768342180809  0.08132224898665187  1.0000
  H   H10       1.0  0.8382680228156758  0.3215236019091634  0.9186810159635358  1.0000
  H   H11       1.0  0.9938424231769286  0.8929945991924627  0.9835570088295571  1.0000
  H   H12       1.0  0.0061559322689462  0.10701094325001752  0.016447547132230508  1.0000
  H   H13       1.0  0.8879389441414816  0.846841174674431  0.920646021454566  1.0000
  H   H14       1.0  0.11205687957377106  0.15316234837118975  0.0793616413328095  1.0000
  H   H15       1.0  0.08566786074013781  0.7675708198612342  0.8568327291076873  1.0000
  H   H16       1.0  0.9143270481717208  0.2324388220517974  0.14316899107428332  1.0000
  H   H17       1.0  0.7185174703710829  0.08671926159957621  0.1720490220845576  1.0000
  H   H18       1.0  0.28148180359150393  0.9132812007736393  0.8279459721880685  1.0000
  H   H19       1.0  0.4483664295315606  0.3772472188817417  0.99798841088424  1.0000
  H   H20       1.0  0.5516349510878343  0.6227532272145807  0.002006650435092204  1.0000
  H   H21       1.0  0.7508557452580503  0.15197102831211143  0.7266711840797342  1.0000
  H   H22       1.0  0.2491367867122634  0.8480335507470824  0.27332679868754184  1.0000
  H   H23       1.0  0.5627771991494512  0.2597684206810769  0.7728951732177407  1.0000
  H   H24       1.0  0.4372181495743063  0.7402310509552095  0.22710243005248293  1.0000
  H   H25       1.0  0.4704647180824395  0.05958701487718092  0.8683827042192721  1.0000
  H   H26       1.0  0.5295334712887367  0.9404134539729582  0.13161362380181885  1.0000
  H   H27       1.0  0.6544038545564422  0.9528229197093978  0.8418856162576702  1.0000
  H   H28       1.0  0.34559427228870726  0.04717754581771061  0.15811344630704133  1.0000
  H   H29       1.0  0.7346540129281819  0.9902175220246152  0.5909691282087693  1.0000
  H   H30       1.0  0.2653469723544291  0.009777838294944302  0.40902773182980207  1.0000
  H   H31       1.0  0.603308167211999  0.9011346413824982  0.6692906592089259  1.0000
  H   H32       1.0  0.3966910322775804  0.0988627653493097  0.3307075174833614  1.0000
  H   H33       1.0  0.668608565423071  0.19542346950209577  0.44657444133223134  1.0000
  H   H34       1.0  0.33139693319492397  0.80457388729139  0.5534248480146999  1.0000
  H   H35       1.0  0.20993580087771593  0.24934234051197274  0.5876588390930664  1.0000
  H   H36       1.0  0.7900701556030894  0.7506601053813072  0.41233591699099775  1.0000
  C   C1        1.0  0.056513775802741875  0.5333575659281922  0.20365784548983612  1.0000
  C   C2        1.0  0.9434816973117034  0.46664697708508385  0.796349808750165  1.0000
  C   C3        1.0  0.938722506860785  0.48134866801474646  0.24102508600501693  1.0000
  C   C4        1.0  0.06127513543648896  0.5186558620446746  0.7589799007380621  1.0000
  C   C5        1.0  0.8311423436341203  0.5388346861702046  0.18829957931529856  1.0000
  C   C6        1.0  0.16885853159539016  0.4611698233507581  0.8117023176969341  1.0000
  C   C7        1.0  0.8453129130239319  0.6456058589786906  0.09443627158430691  1.0000
  C   C8        1.0  0.15468902595498693  0.35439864295766904  0.9055652031940086  1.0000
  C   C9        1.0  0.9642554421934335  0.6968649402842503  0.053135203248182196  1.0000
  C   C10       1.0  0.03574861233731503  0.3031364941645265  0.9468658749383322  1.0000
  C   C11       1.0  0.0677314161533787  0.6408542730303636  0.11058261587164249  1.0000
  C   C12       1.0  0.9322665470076713  0.35915228716442027  0.8894237545718441  1.0000
  C   C13       1.0  0.17296679948300667  0.47343543954239203  0.2598668931150528  1.0000
  C   C14       1.0  0.8270269295224182  0.5265711520984837  0.7401402547495834  1.0000
  C   C15       1.0  0.7014991254322355  0.4882124753613654  0.2301463243691515  1.0000
  C   C16       1.0  0.29850249268290696  0.5117899964396315  0.7698537667087566  1.0000
  C   C17       1.0  0.9834091696062471  0.806777953283337  0.9479998870054519  1.0000
  C   C18       1.0  0.016589515598425912  0.1932265680838086  0.05200558901825051  1.0000
  C   C19       1.0  0.6704398424221621  0.14027920271230704  0.10184594073621162  1.0000
  C   C20       1.0  0.3295576338004125  0.8597202537547733  0.8981508180661707  1.0000
  C   C21       1.0  0.5300146527491734  0.2885821857716452  0.017809223663590477  1.0000
  C   C22       1.0  0.46998246397757265  0.7114213418737949  0.9821879902299174  1.0000
  C   C23       1.0  0.6345212432153176  0.16530709701287805  0.7989105183682598  1.0000
  C   C24       1.0  0.3654737340656241  0.8346933934833985  0.20108798786912985  1.0000
  C   C25       1.0  0.5894702941556247  0.04100363549918029  0.8013327572585992  1.0000
  C   C26       1.0  0.4105275326677501  0.9589948010002374  0.19866401009115725  1.0000
  C   C27       1.0  0.6189595989034586  0.0003022142693537996  0.6631309379237039  1.0000
  C   C28       1.0  0.381041769768956  0.999695179508592  0.33686457127166136  1.0000
  C   C29       1.0  0.5579608571319953  0.1854579716633893  0.5021422730656157  1.0000
  C   C30       1.0  0.4420432688197949  0.8145404148977066  0.4978556069387848  1.0000
  C   C31       1.0  0.3253249766731869  0.21041795076400402  0.5763002963375428  1.0000
  C   C32       1.0  0.674680213028019  0.7895804282124884  0.4236971614329334  1.0000
  N   N1        1.0  0.5572490505506096  0.2619362889249075  0.1282947263113528  1.0000
  N   N2        1.0  0.4427515871831531  0.7380661948913885  0.8717021409423114  1.0000
  N   N3        1.0  0.7137707999295273  0.0903061511880665  0.9823029088910006  1.0000
  N   N4        1.0  0.286227389441649  0.9096943176620726  0.01769341913008301  1.0000
  N   N5        1.0  0.6232585286167733  0.1859646784589586  0.9305760374949659  1.0000
  N   N6        1.0  0.3767403739030044  0.814036802774233  0.06941985974482627  1.0000
  N   N7        1.0  0.5217717615947991  0.09844955211200099  0.6047013106685029  1.0000
  N   N8        1.0  0.4782306083009972  0.901547830758311  0.3952965108365591  1.0000
  N   N9        1.0  0.37314218066574517  0.11252607123405772  0.6535359948453207  1.0000
  N   N10       1.0  0.6268609023786524  0.8874723240193204  0.3464613958784568  1.0000
  N   N11       1.0  0.435775446703289  0.2580421471876448  0.4811196986694455  1.0000
  N   N12       1.0  0.5642282869636831  0.7419572571257619  0.5188799958166612  1.0000
  O   O1        1.0  0.27175497189708153  0.5350164515314617  0.22253601690164262  1.0000
  O   O2        1.0  0.7282451573948377  0.4649839921803861  0.7774676702824692  1.0000
  O   O3        1.0  0.171258960208597  0.37057911817478845  0.33651744563491093  1.0000
  O   O4        1.0  0.8287278511734754  0.6294346325013722  0.6635004464791835  1.0000
  O   O5        1.0  0.6831313866436375  0.3960399892773765  0.3223577132480385  1.0000
  O   O6        1.0  0.316871324957944  0.6039594248359849  0.6776405804428977  1.0000
  O   O7        1.0  0.6102477805257465  0.5374211123519788  0.17493902786960552  1.0000
  O   O8        1.0  0.3897484057373007  0.4625844430443565  0.8250681955890968  1.0000
  O   O9        1.0  0.29366357590185294  0.6089547826972392  0.4528621224422054  1.0000
  O   O10       1.0  0.706342018031151  0.39104563084531924  0.5471330729705175  1.0000
