data_image0
_chemical_formula_structural       Na2H42C48N12O16
_chemical_formula_sum              "Na2 H42 C48 N12 O16"
_cell_length_a       7.2464876371492535
_cell_length_b       11.80010358740848
_cell_length_c       15.0756
_cell_angle_alpha    95.42686484028562
_cell_angle_beta     102.96534436152298
_cell_angle_gamma    102.64771371446518

_space_group_name_H-M_alt    "P 1"
_space_group_IT_number       1

loop_
  _space_group_symop_operation_xyz
  'x, y, z'

loop_
  _atom_site_type_symbol
  _atom_site_label
  _atom_site_symmetry_multiplicity
  _atom_site_fract_x
  _atom_site_fract_y
  _atom_site_fract_z
  _atom_site_occupancy
  Na  Na1       1.0  0.24281805702148765  0.4661043595509753  0.029507446055937702  1.0000
  Na  Na2       1.0  0.7571835379752656  0.5338940248487845  0.9704899530655879  1.0000
  H   H1        1.0  0.16618867552472236  0.6937179024501319  0.9915069120529765  1.0000
  H   H2        1.0  0.8338214785123197  0.30628751088258355  0.00850121697912698  1.0000
  H   H3        1.0  0.13321694217811603  0.6881413227644941  0.08928610454039192  1.0000
  H   H4        1.0  0.8667772105762452  0.3118561830186408  0.9107190501342616  1.0000
  H   H5        1.0  0.1958950823927097  0.2237687165710724  0.9848588366635695  1.0000
  H   H6        1.0  0.8040987085218774  0.7762279105954449  0.015146877270808493  1.0000
  H   H7        1.0  0.9714197476477365  0.5522562335852045  0.2273258113543264  1.0000
  H   H8        1.0  0.028578653348198167  0.44774127219793064  0.7726725049149294  1.0000
  H   H9        1.0  0.4249617635268733  0.2560772069129982  0.027405106426812202  1.0000
  H   H10       1.0  0.5750331441856102  0.7439255705698642  0.9726005199128096  1.0000
  H   H11       1.0  0.43375035063560563  0.5962608683694128  0.42066855127703917  1.0000
  H   H12       1.0  0.5662526917202442  0.4037410304968247  0.5793292640996484  1.0000
  H   H13       1.0  0.69826107843069  0.6476520330759641  0.5668440181812927  1.0000
  H   H14       1.0  0.3017456136014829  0.3523621664229495  0.43315311140010937  1.0000
  H   H15       1.0  0.039351555569695065  0.6564232627910586  0.5641045684801825  1.0000
  H   H16       1.0  0.9606558288634515  0.34358917947461987  0.4358925056914059  1.0000
  H   H17       1.0  0.12961831991764677  0.6138753743624221  0.4157950817103071  1.0000
  H   H18       1.0  0.8703853835606024  0.3861212528041023  0.5842030780426839  1.0000
  H   H19       1.0  0.5402775872027377  0.939633908155571  0.05916045488591951  1.0000
  H   H20       1.0  0.45970912330923847  0.06036271901095351  0.9408272490482403  1.0000
  H   H21       1.0  0.11725185890062309  0.4182276613234778  0.269182152344861  1.0000
  H   H22       1.0  0.8827482574584593  0.5817636941433264  0.730810587043031  1.0000
  H   H23       1.0  0.08569988846585368  0.17209112284648143  0.3714815196208576  1.0000
  H   H24       1.0  0.9142959170944989  0.827893203687367  0.628506917921392  1.0000
  H   H25       1.0  0.06110895104846752  0.9853087931339459  0.43755098849938173  1.0000
  H   H26       1.0  0.9388730555464377  0.0146764120165201  0.5624426591642191  1.0000
  H   H27       1.0  0.8326116859607848  0.8014292711001049  0.3501525809031135  1.0000
  H   H28       1.0  0.16735757590940636  0.1985559340503542  0.6498363756830585  1.0000
  H   H29       1.0  0.6271985453239282  0.7969298753902976  0.1919811664513702  1.0000
  H   H30       1.0  0.3727870796687184  0.2030641159263595  0.8080042353208796  1.0000
  H   H31       1.0  0.1734021618236667  0.1184884801079846  0.08485737219168499  1.0000
  H   H32       1.0  0.8266070005297832  0.8815248407743113  0.9151572051728678  1.0000
  H   H33       1.0  0.2717617490749049  0.682821299131831  0.2845223626317619  1.0000
  H   H34       1.0  0.7282324349580306  0.3171797211177889  0.7154777489921572  1.0000
  H   H35       1.0  0.490453413269833  0.9625359289663109  0.3977939240423467  1.0000
  H   H36       1.0  0.5095543017245134  0.03747387744950711  0.6022169204494787  1.0000
  H   H37       1.0  0.664344633108378  0.169375318874792  0.46933828640904107  1.0000
  H   H38       1.0  0.335664104848142  0.8306300944579235  0.5306723431993632  1.0000
  H   H39       1.0  0.6295378198861243  0.33410539168090037  0.3808328870858233  1.0000
  H   H40       1.0  0.37048083063405807  0.6659000216518223  0.6191781482233836  1.0000
  H   H41       1.0  0.4203181234069077  0.2962176858034837  0.21949874289163054  1.0000
  H   H42       1.0  0.5796984186317785  0.7037894847624742  0.7805161750507281  1.0000
  C   C1        1.0  0.6639393826839707  0.5351434176820861  0.1837540884519484  1.0000
  C   C2        1.0  0.3360601038312864  0.4648567239509164  0.8162452033321871  1.0000
  C   C3        1.0  0.5216574434570304  0.5468966722046531  0.2408105088035768  1.0000
  C   C4        1.0  0.4783370711371047  0.4531017121951066  0.7591901066702462  1.0000
  C   C5        1.0  0.6331158910985976  0.5779021740994638  0.3364222887563173  1.0000
  C   C6        1.0  0.3668867581389036  0.42209533168367136  0.6635771489897379  1.0000
  C   C7        1.0  0.5846254552994735  0.6008999641217585  0.4196785467146499  1.0000
  C   C8        1.0  0.4153715608945062  0.39910105612786145  0.5803205436977521  1.0000
  C   C9        1.0  0.7333896531221099  0.6291799972620709  0.5012743899757623  1.0000
  C   C10       1.0  0.2666130899511217  0.3708280519205047  0.4987225217648827  1.0000
  C   C11       1.0  0.9269874614168854  0.6342065629437315  0.4993857438353473  1.0000
  C   C12       1.0  0.0730149198165719  0.3658006076222264  0.5006117271650226  1.0000
  C   C13       1.0  0.9787299226293553  0.610691267732399  0.416538074574312  1.0000
  C   C14       1.0  0.021266731724850305  0.3893088739006033  0.5834589218037535  1.0000
  C   C15       1.0  0.8304652713564449  0.5826923919104132  0.3357611672233958  1.0000
  C   C16       1.0  0.1695334914792639  0.4173059924893466  0.664239906403715  1.0000
  C   C17       1.0  0.695288342938582  0.1188829789702552  0.09929862537823199  1.0000
  C   C18       1.0  0.3047104198971268  0.8811154054295046  0.9006964783372311  1.0000
  C   C19       1.0  0.845493594665548  0.1788476846524532  0.18572763496450048  1.0000
  C   C20       1.0  0.15451538001644852  0.8211445494309687  0.8142654614702209  1.0000
  C   C21       1.0  0.8692862086069296  0.08990268838400081  0.24511701785070267  1.0000
  C   C22       1.0  0.13071950951709246  0.9100816381498475  0.7548691720982815  1.0000
  C   C23       1.0  0.9851617986135821  0.09131726114181761  0.3328052777900936  1.0000
  C   C24       1.0  0.01484925327132905  0.9086697012418838  0.6671843357976002  1.0000
  C   C25       1.0  0.970196652790456  0.9860775826762379  0.3695220981419851  1.0000
  C   C26       1.0  0.0297924967642089  0.013914651407184  0.63046753359707  1.0000
  C   C27       1.0  0.8423699117539981  0.8818218131917918  0.3196392355422972  1.0000
  C   C28       1.0  0.1576164056396223  0.1181704208916301  0.6803494274377186  1.0000
  C   C29       1.0  0.7266635094242131  0.8784145379403512  0.2307710041964839  1.0000
  C   C30       1.0  0.27332777989052903  0.121579453376313  0.7692150084468068  1.0000
  C   C31       1.0  0.7423187608357651  0.9830841358527068  0.19504729785081307  1.0000
  C   C32       1.0  0.25767671416339505  0.0169028265310018  0.8049353292533895  1.0000
  C   C33       1.0  0.1409355517973054  0.9479992169923293  0.120713679461339  1.0000
  C   C34       1.0  0.859064028553682  0.05201146804010651  0.8792956894641933  1.0000
  C   C35       1.0  0.23792876087782838  0.908958766109791  0.2076910382443486  1.0000
  C   C36       1.0  0.7620714805955514  0.0910466472229317  0.7923166850869451  1.0000
  C   C37       1.0  0.35735446817800204  0.014220409990862503  0.2699235164825211  1.0000
  C   C38       1.0  0.642650352098151  0.9857823674919928  0.7300845055284526  1.0000
  C   C39       1.0  0.4746903624716764  0.0352421912353122  0.3598614897734507  1.0000
  C   C40       1.0  0.5253112950822327  0.9647632220974103  0.640144396305061  1.0000
  C   C41       1.0  0.5716674790207108  0.15135664923669623  0.3992603836137647  1.0000
  C   C42       1.0  0.42835120277804606  0.8486522785625041  0.6007482619387687  1.0000
  C   C43       1.0  0.5525612879751733  0.24410956993520472  0.3493053830483177  1.0000
  C   C44       1.0  0.4474513676617207  0.7558984792473711  0.6507071908340052  1.0000
  C   C45       1.0  0.43616475895658613  0.2245366274967466  0.258692421718095  1.0000
  C   C46       1.0  0.563847566119108  0.7754740575356891  0.7413236282554152  1.0000
  C   C47       1.0  0.3394546005148342  0.10937986161090413  0.22062898451881102  1.0000
  C   C48       1.0  0.660547780718616  0.8906273089550538  0.7793830795989224  1.0000
  N   N1        1.0  0.8432703971036588  0.5576966276947815  0.24504264430772343  1.0000
  N   N2        1.0  0.1567241174904765  0.4423017567049783  0.7549559811955575  1.0000
  N   N3        1.0  0.3369327969634597  0.527868472070452  0.19982262068342038  1.0000
  N   N4        1.0  0.6630656353110496  0.47213254817916817  0.8001759591232228  1.0000
  N   N5        1.0  0.6422233807475805  0.0036269294063800005  0.10917218861764157  1.0000
  N   N6        1.0  0.35777782113082407  0.9963670619102771  0.890816219696994  1.0000
  N   N7        1.0  0.9259271397970963  0.2901253581620438  0.1927261644387173  1.0000
  N   N8        1.0  0.0740754781618307  0.7098686331546133  0.8072690298288449  1.0000
  N   N9        1.0  0.21216241086186466  0.0672150500284801  0.1332306898612856  1.0000
  N   N10       1.0  0.7878410558909079  0.932794756387338  0.8667816864478084  1.0000
  N   N11       1.0  0.20843747851998273  0.7972242119579179  0.21159779850223262  1.0000
  N   N12       1.0  0.7915606231933265  0.20277944414155516  0.7884082373366963  1.0000
  O   O1        1.0  0.1108762161553045  0.638824571897203  0.029343574315824104  1.0000
  O   O2        1.0  0.8891208000386823  0.3611764483524098  0.970660159361195  1.0000
  O   O3        1.0  0.30433108181594537  0.2780241714580498  0.0318166894401344  1.0000
  O   O4        1.0  0.6956623785374417  0.7219750915583276  0.9681898472913701  1.0000
  O   O5        1.0  0.6286985979787616  0.5118504124755532  0.09876970530309141  1.0000
  O   O6        1.0  0.371302666456792  0.4881506077740667  0.9012311699096216  1.0000
  O   O7        1.0  0.22146882336130597  0.5452167572276707  0.25698753370743793  1.0000
  O   O8        1.0  0.7785242438737325  0.4547781127056112  0.743008685570139  1.0000
  O   O9        1.0  0.6277402778764766  0.16375656559140592  0.030651062585555205  1.0000
  O   O10       1.0  0.37225035031586623  0.8362426974249716  0.9693478721517507  1.0000
  O   O11       1.0  0.056934272655126975  0.3337407657836948  0.2754881421568314  1.0000
  O   O12       1.0  0.9430753944278436  0.6662497110664845  0.7245042355445576  1.0000
  O   O13       1.0  0.021107539166010245  0.8871804959557252  0.05141866589701749  1.0000
  O   O14       1.0  0.9788856531833331  0.11282843184347512  0.9485932006474869  1.0000
  O   O15       1.0  0.3015598643489525  0.7724278937149691  0.2939679163793301  1.0000
  O   O16       1.0  0.6984410382468268  0.227572247918026  0.7060341814166264  1.0000
