data_image0
_chemical_formula_structural       UZnH10C12O18
_chemical_formula_sum              "U1 Zn1 H10 C12 O18"
_cell_length_a       6.4428721576072645
_cell_length_b       8.393079366505075
_cell_length_c       8.602195013699221
_cell_angle_alpha    95.36168530291657
_cell_angle_beta     93.35582918763245
_cell_angle_gamma    104.02995143947975

_space_group_name_H-M_alt    "P 1"
_space_group_IT_number       1

loop_
  _space_group_symop_operation_xyz
  'x, y, z'

loop_
  _atom_site_type_symbol
  _atom_site_label
  _atom_site_symmetry_multiplicity
  _atom_site_fract_x
  _atom_site_fract_y
  _atom_site_fract_z
  _atom_site_occupancy
  U   U1        1.0  0.4999829532802592  0.49998623057466307  0.999982117403725  1.0000
  Zn  Zn1       1.0  1.9876743572018137e-05  0.500031675264502  0.49995838993518044  1.0000
  H   H1        1.0  0.3962137552110647  0.5471826240766758  0.4274445292063333  1.0000
  H   H2        1.0  0.604186075499257  0.4527614380166226  0.5728899410681692  1.0000
  H   H3        1.0  0.4169232184800648  0.6888596692442233  0.5677427834397191  1.0000
  H   H4        1.0  0.5830656401442057  0.31121780388988884  0.4323875987183072  1.0000
  H   H5        1.0  0.0895227747861327  0.6519539762811631  0.24507007695773098  1.0000
  H   H6        1.0  0.9104890001165556  0.34807575788476425  0.7549033100904481  1.0000
  H   H7        1.0  0.8751209564022274  0.6799940179891664  0.29693027601786776  1.0000
  H   H8        1.0  0.12485047559233212  0.3200317812444879  0.7029728862043995  1.0000
  H   H9        1.0  0.42083052915168656  0.05295522597424447  0.688507124153908  1.0000
  H   H10       1.0  0.5791301073369226  0.9469983915454987  0.3114900038163028  1.0000
  C   C1        1.0  0.8737572531033209  0.7112071229987434  0.7702700640588913  1.0000
  C   C2        1.0  0.1262361802967646  0.28879416311990264  0.22969845167584416  1.0000
  C   C3        1.0  0.942274330830088  0.8646837159362163  0.8858471424092185  1.0000
  C   C4        1.0  0.05769825116620102  0.1352984593454281  0.11414654252283898  1.0000
  C   C5        1.0  0.2375379911571258  0.7417600127659013  0.9861426348814671  1.0000
  C   C6        1.0  0.7624427713113491  0.2582200708337298  0.0138324490870261  1.0000
  C   C7        1.0  0.6569884810287192  0.9715595252176353  0.7550492201222666  1.0000
  C   C8        1.0  0.342997119501419  0.02842874357452979  0.24495366426389603  1.0000
  C   C9        1.0  0.8264311998488553  0.9873263713394563  0.8869592194964537  1.0000
  C   C10       1.0  0.1735440824373171  0.012654605911812694  0.11303324761103538  1.0000
  C   C11       1.0  0.11817647128309261  0.8774423159946068  0.9953062591915156  1.0000
  C   C12       1.0  0.8817979864211196  0.12254116491337899  0.004684137441131498  1.0000
  O   O1        1.0  0.6453624612748143  0.8814665630966728  0.6318215301998079  1.0000
  O   O2        1.0  0.3546312755352546  0.11852458876631998  0.36816098118229945  1.0000
  O   O3        1.0  0.33919649994685847  0.5753273955803236  0.5269124545446643  1.0000
  O   O4        1.0  0.6607369910517988  0.424775208244668  0.473176090851048  1.0000
  O   O5        1.0  0.9998059658041994  0.6955515587854035  0.6677258304435867  1.0000
  O   O6        1.0  0.00019009745708589335  0.3044831472949666  0.3322406760347149  1.0000
  O   O7        1.0  0.5232015875973133  0.06896806931604965  0.7811982672710656  1.0000
  O   O8        1.0  0.47676780116502476  0.9310042831644549  0.21879074006812965  1.0000
  O   O9        1.0  0.699910515815681  0.604243696527028  0.7895219669543322  1.0000
  O   O10       1.0  0.3000897422741886  0.39572726647342177  0.21041661852009944  1.0000
  O   O11       1.0  0.38260491471876884  0.7406130439952462  0.8934929302892625  1.0000
  O   O12       1.0  0.617384930916309  0.25938055347901195  0.10648974051056108  1.0000
  O   O13       1.0  0.18878461451453885  0.624064706538803  0.07185521029385457  1.0000
  O   O14       1.0  0.8111924211748446  0.3759044418782833  0.9281080791536593  1.0000
  O   O15       1.0  0.018753834056035035  0.6777908678898253  0.3410538755323173  1.0000
  O   O16       1.0  0.9812071102174188  0.32225269370366744  0.6588893376300573  1.0000
  O   O17       1.0  0.327809317355495  0.34532568242794065  0.8556788155193116  1.0000
  O   O18       1.0  0.6721443612555335  0.6546350351627906  0.14426424644009467  1.0000
