data_image0
_chemical_formula_structural       Sm2H26C34O24
_chemical_formula_sum              "Sm2 H26 C34 O24"
_cell_length_a       10.191922000302943
_cell_length_b       10.432391387495024
_cell_length_c       11.096030420177522
_cell_angle_alpha    96.30609734884942
_cell_angle_beta     112.41873459321185
_cell_angle_gamma    103.90858380082604

_space_group_name_H-M_alt    "P 1"
_space_group_IT_number       1

loop_
  _space_group_symop_operation_xyz
  'x, y, z'

loop_
  _atom_site_type_symbol
  _atom_site_label
  _atom_site_symmetry_multiplicity
  _atom_site_fract_x
  _atom_site_fract_y
  _atom_site_fract_z
  _atom_site_occupancy
  Sm  Sm1       1.0  0.09250380279348028  0.8548499580436156  0.49069937159576693  1.0000
  Sm  Sm2       1.0  0.9074962262791573  0.1451396318120572  0.5092926565728817  1.0000
  H   H1        1.0  0.5741891595687036  0.8665487058362017  0.45466073864441386  1.0000
  H   H2        1.0  0.4258088272405232  0.13344095134748105  0.545331572526898  1.0000
  H   H3        1.0  0.1666210634030207  0.6032815610133966  0.1373988555365458  1.0000
  H   H4        1.0  0.8333650923733844  0.3967165376609145  0.8625897962231337  1.0000
  H   H5        1.0  0.5878417857513513  0.594456422496613  0.1377308493766166  1.0000
  H   H6        1.0  0.4121550543092667  0.4055445203189478  0.8622631788864512  1.0000
  H   H7        1.0  0.10305705419514764  0.5367896285548354  0.9084578609475287  1.0000
  H   H8        1.0  0.8969323529713835  0.4632136094465126  0.0915377345189867  1.0000
  H   H9        1.0  0.12845673005027441  0.38668749577841777  0.8335877469335745  1.0000
  H   H10       1.0  0.8715355456563787  0.6133134483926954  0.1663994661333632  1.0000
  H   H11       1.0  0.9917924169373934  0.2740839625068503  0.16206404121574994  1.0000
  H   H12       1.0  0.00819968569405919  0.7259138841957764  0.8379209935853924  1.0000
  H   H13       1.0  0.2032950556127702  0.9624780097848885  0.1802366291302918  1.0000
  H   H14       1.0  0.7967146539318861  0.03753307635094671  0.8197741281391872  1.0000
  H   H15       1.0  0.4480651736985309  0.9157813778761581  0.05051211546430791  1.0000
  H   H16       1.0  0.5519714588607272  0.08422283800933882  0.9495016780411236  1.0000
  H   H17       1.0  0.25003779285465555  0.24715262521115736  0.933965390480424  1.0000
  H   H18       1.0  0.7499958306277605  0.7528629936218962  0.06605317106998135  1.0000
  H   H19       1.0  0.3405533422480713  0.9609040120341772  0.7805055227599242  1.0000
  H   H20       1.0  0.6594548569284697  0.0390978236914847  0.21949930253858693  1.0000
  H   H21       1.0  0.40399173830668644  0.9250771463274817  0.675871297706948  1.0000
  H   H22       1.0  0.5960038762083856  0.0749167639099682  0.32412614045601634  1.0000
  H   H23       1.0  0.19648131213296685  0.6573591336699068  0.6486830086788161  1.0000
  H   H24       1.0  0.8035477898039503  0.3426336073365094  0.35130653066454454  1.0000
  H   H25       1.0  0.10826495627087945  0.5671172226303155  0.5029207027169919  1.0000
  H   H26       1.0  0.8916268299159855  0.43279269067848963  0.4971047964353232  1.0000
  C   C1        1.0  0.7652351606280662  0.7838207129326663  0.3652592904681597  1.0000
  C   C2        1.0  0.23475638577902205  0.21617515788386749  0.6347280770907348  1.0000
  C   C3        1.0  0.5990735694737025  0.736360856537111  0.30235021046346594  1.0000
  C   C4        1.0  0.4009214888170122  0.263631077814246  0.6976495604572508  1.0000
  C   C5        1.0  0.5181203284514027  0.7889876947341463  0.3618061999865177  1.0000
  C   C6        1.0  0.48187424180274974  0.21100319335521786  0.6381915080374371  1.0000
  C   C7        1.0  0.36252067231116314  0.7359203865811352  0.3028482009036182  1.0000
  C   C8        1.0  0.6374741854644413  0.26408064022498223  0.6971470330123  1.0000
  C   C9        1.0  0.27192810098114256  0.7751234665338345  0.37111879646881374  1.0000
  C   C10       1.0  0.7280627473154199  0.22487557707157893  0.6288731974826618  1.0000
  C   C11       1.0  0.28756513254285215  0.6398124762975074  0.18096817293736936  1.0000
  C   C12       1.0  0.7124281329568732  0.36018446543597094  0.8190243452925972  1.0000
  C   C13       1.0  0.36964333589810394  0.5930853576983495  0.12009063736665132  1.0000
  C   C14       1.0  0.6303583248488708  0.40691747633496783  0.8799032600838786  1.0000
  C   C15       1.0  0.5253728330903797  0.636832887117244  0.18327873450506624  1.0000
  C   C16       1.0  0.4746218502605828  0.36316108177804557  0.8167202291345036  1.0000
  C   C17       1.0  0.15023141145725558  0.45299230540919666  0.9272445040086341  1.0000
  C   C18       1.0  0.8497638226075283  0.5470106472953447  0.07274562919897665  1.0000
  C   C19       1.0  0.1150872832625609  0.273427712781718  0.04097999547867911  1.0000
  C   C20       1.0  0.884912475757723  0.7265660794622804  0.9590177993291392  1.0000
  C   C21       1.0  0.059345103331061494  0.2245911085861252  0.1298535108274876  1.0000
  C   C22       1.0  0.9406605724054913  0.7754067007247302  0.8701501242616773  1.0000
  C   C23       1.0  0.08956557739140442  0.11201937588194262  0.17824549613541765  1.0000
  C   C24       1.0  0.9104376060942061  0.8879826531575717  0.8217614206450322  1.0000
  C   C25       1.0  0.027820896015725807  0.06031377879926231  0.272705026440697  1.0000
  C   C26       1.0  0.9721680913020452  0.9396893425641794  0.7272841104745426  1.0000
  C   C27       1.0  0.17891106247220287  0.04909671296501731  0.14076561767279122  1.0000
  C   C28       1.0  0.8211024166379062  0.9509162897212988  0.8592446889603951  1.0000
  C   C29       1.0  0.23599742513955854  0.09993975413235032  0.053241047139430016  1.0000
  C   C30       1.0  0.7640226619373536  0.9000771403127531  0.9467698836977689  1.0000
  C   C31       1.0  0.3344431285088945  0.03988002039541531  0.014187064125294973  1.0000
  C   C32       1.0  0.6655610323992676  0.9601280616104404  0.9858180704592244  1.0000
  C   C33       1.0  0.20393172744601884  0.21143846212923728  0.0020511833232461987  1.0000
  C   C34       1.0  0.7960966404318982  0.788577283367431  0.9979657791083557  1.0000
  O   O1        1.0  0.8375195325697434  0.7033650059588015  0.35239808700455905  1.0000
  O   O2        1.0  0.1624712232099483  0.29662181439824314  0.6475944203855593  1.0000
  O   O3        1.0  0.8345925150641449  0.9066307747761119  0.43319051039927114  1.0000
  O   O4        1.0  0.16540018735123851  0.09336723855208363  0.5668037509036951  1.0000
  O   O5        1.0  0.32871301669496245  0.8827354907121931  0.4645252189614696  1.0000
  O   O6        1.0  0.6712911771636529  0.11725339344724972  0.5354887720362599  1.0000
  O   O7        1.0  0.13865141108806966  0.6988378714654999  0.3358987999022532  1.0000
  O   O8        1.0  0.861327887136305  0.301174245088454  0.6640666337148248  1.0000
  O   O9        1.0  0.30768475110402704  0.5009776625071681  0.9990916311290123  1.0000
  O   O10       1.0  0.6923155572806438  0.49902115310373335  0.0009032412362940161  1.0000
  O   O11       1.0  0.0776893685481213  0.38376947588501054  0.9992637479526112  1.0000
  O   O12       1.0  0.9223126452092315  0.6162365056044619  0.0007350957142618396  1.0000
  O   O13       1.0  0.9645757524910721  0.13184604446056616  0.3180706304275133  1.0000
  O   O14       1.0  0.03541630628163949  0.8681621662422285  0.6819226822440215  1.0000
  O   O15       1.0  0.04334763958227934  0.9483893112225984  0.3006514540192243  1.0000
  O   O16       1.0  0.9566687323970271  0.051632691257758344  0.6993543524302553  1.0000
  O   O17       1.0  0.3901926643201605  0.08608501557974081  0.9386536018275964  1.0000
  O   O18       1.0  0.6098350654256421  0.9139339193683682  0.06136890964677381  1.0000
  O   O19       1.0  0.36151775655476115  0.9350353096993871  0.06535438912383282  1.0000
  O   O20       1.0  0.6384934976578975  0.06496978944256432  0.9346652485403627  1.0000
  O   O21       1.0  0.3261306323804049  0.8907024601228526  0.705651739251792  1.0000
  O   O22       1.0  0.6738628360341397  0.1093018647802211  0.2943533371340409  1.0000
  O   O23       1.0  0.10333360891043236  0.6343588732906015  0.5683627583651474  1.0000
  O   O24       1.0  0.8966790521323774  0.36565726885947925  0.4316503293602593  1.0000
