data_image0
_chemical_formula_structural       Ni3P4H22C10N4O18
_chemical_formula_sum              "Ni3 P4 H22 C10 N4 O18"
_cell_length_a       6.802971153141512
_cell_length_b       9.848915568935482
_cell_length_c       9.2650004479318
_cell_angle_alpha    79.15182699663357
_cell_angle_beta     80.01625814968523
_cell_angle_gamma    90.50135035652877

_space_group_name_H-M_alt    "P 1"
_space_group_IT_number       1

loop_
  _space_group_symop_operation_xyz
  'x, y, z'

loop_
  _atom_site_type_symbol
  _atom_site_label
  _atom_site_symmetry_multiplicity
  _atom_site_fract_x
  _atom_site_fract_y
  _atom_site_fract_z
  _atom_site_occupancy
  Ni  Ni1       1.0  9.742223490201527e-06  5.044388068100211e-06  0.5000045250220851  1.0000
  Ni  Ni2       1.0  0.8088441040471392  0.059655555171950383  0.04738819953848151  1.0000
  Ni  Ni3       1.0  0.1911472546509572  0.9403500530182782  0.9526084402008622  1.0000
  P   P1        1.0  0.9705764928763543  0.20338869058729608  0.7270081022915419  1.0000
  P   P2        1.0  0.02945083101696609  0.7966206569630285  0.272986212280948  1.0000
  P   P3        1.0  0.6371959405133509  0.9916369071667286  0.7728410581283783  1.0000
  P   P4        1.0  0.3628281305321863  0.008361043096037699  0.2271593238333693  1.0000
  H   H1        1.0  0.33714635511071817  0.8593368074703491  0.6615531872817044  1.0000
  H   H2        1.0  0.6628133787347604  0.14065895154033103  0.3384486449913382  1.0000
  H   H3        1.0  0.17671614779082026  0.8244885940003143  0.5687673719781685  1.0000
  H   H4        1.0  0.8232370569908695  0.17547727673163385  0.43126320198147994  1.0000
  H   H5        1.0  0.8929574702652587  0.23344584224228979  0.2016882618311016  1.0000
  H   H6        1.0  0.10702975158638135  0.7665620113676678  0.7983343611418762  1.0000
  H   H7        1.0  0.0909567155805675  0.1847444360638377  0.1027768042944643  1.0000
  H   H8        1.0  0.9090274601115738  0.8152673576569143  0.8972302827363308  1.0000
  H   H9        1.0  0.5002274475442617  0.1596331974219893  0.9753030664215531  1.0000
  H   H10       1.0  0.499760450165482  0.8403598214573192  0.024683727791476436  1.0000
  H   H11       1.0  0.8065562410334834  0.7147761011943103  0.5558464369802679  1.0000
  H   H12       1.0  0.1934910887680203  0.2852105795024399  0.4441230022394081  1.0000
  H   H13       1.0  0.8029010077502574  0.4863882573100398  0.4697179061513239  1.0000
  H   H14       1.0  0.19709040528881155  0.5135706493294946  0.5302701985753729  1.0000
  H   H15       1.0  0.5783768136052386  0.7028855987980903  0.8130794304729961  1.0000
  H   H16       1.0  0.42164740113425114  0.29713773866080834  0.18686701914124632  1.0000
  H   H17       1.0  0.41209083260226004  0.4341775077154607  0.890065904316515  1.0000
  H   H18       1.0  0.5879175319455355  0.5658501000459637  0.1099238497102064  1.0000
  H   H19       1.0  0.5916965331234323  0.25653721452670203  0.5640269083807183  1.0000
  H   H20       1.0  0.40827670552356204  0.7434557941094794  0.4359866616386867  1.0000
  H   H21       1.0  0.40459573241425756  0.24471839326115935  0.7263513675341643  1.0000
  H   H22       1.0  0.5954296422494137  0.7552693117272966  0.27365855199889927  1.0000
  C   C1        1.0  0.721833624794172  0.5057564992070949  0.5749627159654694  1.0000
  C   C2        1.0  0.2781540447450864  0.4942292473314609  0.42502239982464124  1.0000
  C   C3        1.0  0.6017021487382975  0.6164284731635448  0.7566158415493476  1.0000
  C   C4        1.0  0.3982951462452462  0.38358023392458307  0.24336856378119623  1.0000
  C   C5        1.0  0.5211765428127818  0.48433243214378047  0.7953896929220364  1.0000
  C   C6        1.0  0.4788132633406262  0.5156771413501104  0.204591207192216  1.0000
  C   C7        1.0  0.5633521385075113  0.27086620355113666  0.6803404518851508  1.0000
  C   C8        1.0  0.4366481082902353  0.7291354497110232  0.31965907737995286  1.0000
  C   C9        1.0  0.691517708916855  0.17758942744146822  0.7745897972471738  1.0000
  C   C10       1.0  0.3084916654720756  0.8224226264289526  0.22539661745081935  1.0000
  N   N1        1.0  0.5982159925402326  0.41719228113022666  0.6806846761120725  1.0000
  N   N2        1.0  0.4017646585892861  0.5828058573530512  0.3193095597693159  1.0000
  N   N3        1.0  0.7243484867602487  0.6270672079567488  0.6195756801959363  1.0000
  N   N4        1.0  0.2756643888785817  0.3729137528164512  0.38040277655397864  1.0000
  O   O1        1.0  0.030123901852370197  0.16394968042894212  0.5682889649300478  1.0000
  O   O2        1.0  0.9699033176806893  0.8360535132475204  0.4317120548811459  1.0000
  O   O3        1.0  0.2638621028031807  0.7809133258796095  0.6371304066822105  1.0000
  O   O4        1.0  0.7360842896771087  0.21906915847105068  0.36291700743026223  1.0000
  O   O5        1.0  0.026793077488996193  0.0911420215564576  0.8535717494703902  1.0000
  O   O6        1.0  0.9732133860179175  0.908863985675367  0.14643791194772154  1.0000
  O   O7        1.0  0.9552274359326489  0.21919573037401113  0.0996803662060515  1.0000
  O   O8        1.0  0.044735805783858495  0.7808086169429843  0.9003461792936065  1.0000
  O   O9        1.0  0.0435309918494156  0.3486731776715216  0.7183933938950418  1.0000
  O   O10       1.0  0.9565070088414485  0.6513415917971557  0.28160591815087344  1.0000
  O   O11       1.0  0.7622422014548389  0.9466325783597399  0.6364955554730473  1.0000
  O   O12       1.0  0.23779982446564665  0.0533606493185346  0.3635185468017923  1.0000
  O   O13       1.0  0.6880249131069858  0.9130415235935417  0.9241037407705903  1.0000
  O   O14       1.0  0.3119400075766094  0.08696806296041609  0.0759257974768417  1.0000
  O   O15       1.0  0.4141270174289317  0.970664213505067  0.7692724275282927  1.0000
  O   O16       1.0  0.585897466413229  0.029353295830041797  0.230714071163554  1.0000
  O   O17       1.0  0.642823242252909  0.1974066225303872  0.9273290577690646  1.0000
  O   O18       1.0  0.3571801965767136  0.8025952597546463  0.07268834946123093  1.0000
