data_image0
_chemical_formula_structural       Zn2H45C51I5N4O17
_chemical_formula_sum              "Zn2 H45 C51 I5 N4 O17"
_cell_length_a       9.34035411122915
_cell_length_b       10.878386964194986
_cell_length_c       23.42241297338152
_cell_angle_alpha    91.32973642471467
_cell_angle_beta     88.87507832925476
_cell_angle_gamma    72.32618301144109

_space_group_name_H-M_alt    "P 1"
_space_group_IT_number       1

loop_
  _space_group_symop_operation_xyz
  'x, y, z'

loop_
  _atom_site_type_symbol
  _atom_site_label
  _atom_site_symmetry_multiplicity
  _atom_site_fract_x
  _atom_site_fract_y
  _atom_site_fract_z
  _atom_site_occupancy
  Zn  Zn1       1.0  0.6550031776732724  0.4400815571801361  0.500710189759687  1.0000
  Zn  Zn2       1.0  0.3425097726189464  0.5211801266427756  0.5033242262056492  1.0000
  H   H1        1.0  0.47491593824344835  0.826404506819671  0.9674920762372283  1.0000
  H   H2        1.0  0.7361052979671426  0.48994031791745846  0.6698168221491871  1.0000
  H   H3        1.0  0.7679399890206966  0.48171207716273295  0.7755630734749632  1.0000
  H   H4        1.0  0.636359231767223  0.047532055331331015  0.5201497750655408  1.0000
  H   H5        1.0  0.37914292062696825  0.8712977980307245  0.5566900224113313  1.0000
  H   H6        1.0  0.8498721950469987  0.4945454250115091  0.583465105303816  1.0000
  H   H7        1.0  0.14830858398320151  0.4610694566310655  0.5817699457926582  1.0000
  H   H8        1.0  0.608967990851184  0.1649605272780121  0.03917038477866441  1.0000
  H   H9        1.0  0.334475260537431  0.3736590136176687  0.20846676687251897  1.0000
  H   H10       1.0  0.6952116710489092  0.48824263761478903  0.3355784929131716  1.0000
  H   H11       1.0  0.2775453827026695  0.9552210969792585  0.044939621714476616  1.0000
  H   H12       1.0  0.45454230934046075  0.9793836401375559  0.02772694393953401  1.0000
  H   H13       1.0  0.330568960698308  0.0026989223730851074  0.15030985006373507  1.0000
  H   H14       1.0  0.4751731805929039  0.06128113788786754  0.12368879833010034  1.0000
  H   H15       1.0  0.279596498673662  0.22190861618577182  0.06378620317514112  1.0000
  H   H16       1.0  0.24430197060689096  0.2461149625793837  0.13845110245531345  1.0000
  H   H17       1.0  0.1379213088645628  0.1680603831376786  0.09731931244960634  1.0000
  H   H18       1.0  0.9721251223719988  0.7398367249840379  0.4052015855259656  1.0000
  H   H19       1.0  0.16576457213383117  0.677533104007111  0.4221853137469723  1.0000
  H   H20       1.0  0.9235223499157926  0.893888152990435  0.488323745193803  1.0000
  H   H21       1.0  0.1140632266350536  0.8315870041302065  0.5085468776621981  1.0000
  H   H22       1.0  0.19990539542615685  0.9016187159456311  0.41534508782489626  1.0000
  H   H23       1.0  0.07650741206107628  0.034888846126222006  0.4545043329156473  1.0000
  H   H24       1.0  0.009425948178211626  0.9659763692752252  0.39531703346726504  1.0000
  H   H25       1.0  0.40492485791902766  0.130934381990194  0.3104892668875011  1.0000
  H   H26       1.0  0.3213213037097944  0.20256585179461697  0.24677245558961408  1.0000
  H   H27       1.0  0.15492685827542374  0.16220593915578263  0.3553786325550379  1.0000
  H   H28       1.0  0.06573781841906622  0.2539231371690533  0.29700833254011644  1.0000
  H   H29       1.0  0.15809482504936764  0.05583097349785502  0.23208675613314977  1.0000
  H   H30       1.0  0.0487454788849888  0.029203141890597806  0.29047398344381054  1.0000
  H   H31       1.0  0.24756580972248093  0.9641539978108115  0.2903630512742056  1.0000
  H   H32       1.0  0.9658366933351701  0.48172835873693043  0.21736205173424147  1.0000
  H   H33       1.0  0.8975571999904444  0.44498587268370215  0.2842310408737419  1.0000
  H   H34       1.0  0.8132548781111025  0.7179584410848111  0.23764078980163827  1.0000
  H   H35       1.0  0.7838680017808528  0.6770414404357157  0.3085958792165188  1.0000
  H   H36       1.0  0.070169671726056  0.5898879094063005  0.3190654900864161  1.0000
  H   H37       1.0  0.010475973359824238  0.7561209943717987  0.3027291459487672  1.0000
  H   H38       1.0  0.09390705377052204  0.6382413559150423  0.24873924623502575  1.0000
  H   H39       1.0  0.27593788727502755  0.4441496987210058  0.838454963518757  1.0000
  H   H40       1.0  0.16853141844731565  0.4901387700702743  0.7760603796402779  1.0000
  H   H41       1.0  0.08204633621899392  0.6282214528465107  0.8930459962952855  1.0000
  H   H42       1.0  0.9729567656360342  0.6566849393721984  0.831133871496377  1.0000
  H   H43       1.0  0.9616799656565292  0.4235124899655106  0.8338826443254208  1.0000
  H   H44       1.0  0.8792064925387779  0.5164910419184637  0.8960935938248159  1.0000
  H   H45       1.0  0.061795230150344965  0.4034640131310854  0.8980679482762856  1.0000
  C   C1        1.0  0.5052968927670207  0.7089637689190412  0.4786956104559153  1.0000
  C   C2        1.0  0.49236303617682603  0.7332604186623473  0.9870131599440274  1.0000
  C   C3        1.0  0.48632484277945304  0.7234763962803966  0.047115095980935016  1.0000
  C   C4        1.0  0.5113410549396136  0.6006785727552  0.07095373810444983  1.0000
  C   C5        1.0  0.5424424134083168  0.4902178960894048  0.03377028524565871  1.0000
  C   C6        1.0  0.5688880841761516  0.36526939914971734  0.05591318832492222  1.0000
  C   C7        1.0  0.590024549664875  0.25845106902522735  0.019818588522866807  1.0000
  C   C8        1.0  0.5856019095635361  0.2693804362385634  0.9601078198445169  1.0000
  C   C9        1.0  0.49448660647898623  0.5862110760028189  0.13322865066890446  1.0000
  C   C10       1.0  0.5728771726702746  0.3448182385609329  0.11819773086548226  1.0000
  C   C11       1.0  0.4138996472802674  0.39756665566799404  0.23678379941118527  1.0000
  C   C12       1.0  0.49177478237951505  0.4246822676756852  0.3947753580591141  1.0000
  C   C13       1.0  0.4044227204177347  0.3808698069314147  0.2955437031715179  1.0000
  C   C14       1.0  0.5046797581764223  0.4183682268868126  0.33088001568348363  1.0000
  C   C15       1.0  0.618855683566366  0.46169830898117675  0.30664011076044784  1.0000
  C   C16       1.0  0.6329676155717081  0.47177473510210177  0.24764080549348225  1.0000
  C   C17       1.0  0.5247926282852619  0.44295819154357474  0.21324214294809718  1.0000
  C   C18       1.0  0.3850990145858332  0.5927518589672758  0.7715253987153334  1.0000
  C   C19       1.0  0.36843377805855937  0.6029395506338133  0.7120680541542301  1.0000
  C   C20       1.0  0.49580560837596016  0.5616508891270016  0.674976012893943  1.0000
  C   C21       1.0  0.6386505446900441  0.5206943913057671  0.6988688173225911  1.0000
  C   C22       1.0  0.6567046623863037  0.5152497990922171  0.7575112271854397  1.0000
  C   C23       1.0  0.5106776682043375  0.2501547051071641  0.5286020854043587  1.0000
  C   C24       1.0  0.5299005881735327  0.5486877073370949  0.7934802611206354  1.0000
  C   C25       1.0  0.41545620568637537  0.05533771571975881  0.5389693982045716  1.0000
  C   C26       1.0  0.5232858548271082  0.1118068899138791  0.530156466253864  1.0000
  C   C27       1.0  0.4342543197497195  0.9203470164282094  0.5271914003822646  1.0000
  C   C28       1.0  0.5020620918664207  0.8476609154997234  0.4809958102501783  1.0000
  C   C29       1.0  0.9270371836663003  0.47134686268861264  0.5458833094424593  1.0000
  C   C30       1.0  0.0685505906045947  0.50153528333086  0.5485956812182098  1.0000
  C   C31       1.0  0.4893548734247447  0.5470558836831786  0.6110385059248957  1.0000
  C   C32       1.0  0.5636077197222064  0.4073994368005956  0.8735207901372706  1.0000
  C   C33       1.0  0.5259404120950606  0.6445143669369743  0.888604531934661  1.0000
  C   C34       1.0  0.5214822592978194  0.6254946499546463  0.9509891986563377  1.0000
  C   C35       1.0  0.5451314014751956  0.5006858475122159  0.9731233894846131  1.0000
  C   C36       1.0  0.5666270972704623  0.39010911935783105  0.9361162755041621  1.0000
  C   C37       1.0  0.38676341232353206  0.954927902652379  0.06220848403990692  1.0000
  C   C38       1.0  0.36643900909992067  0.0478162346459925  0.11336118844910464  1.0000
  C   C39       1.0  0.250750244341944  0.1779260518938273  0.10245010139644962  1.0000
  C   C40       1.0  0.052097587333186354  0.7250526246419043  0.43997972697960125  1.0000
  C   C41       1.0  0.03970412790149421  0.8508650253902843  0.47187496096158565  1.0000
  C   C42       1.0  0.08383024238666079  0.9434959888748369  0.43198529271146685  1.0000
  C   C43       1.0  0.30589199317260807  0.20341138676099757  0.2935625030389631  1.0000
  C   C44       1.0  0.16238353401875114  0.17229432727314992  0.30873583854062764  1.0000
  C   C45       1.0  0.15424416788032141  0.0482967334603472  0.27878697039238903  1.0000
  C   C46       1.0  0.8734749346823634  0.5142778731405926  0.24947800141850254  1.0000
  C   C47       1.0  0.8619658362550027  0.6500416113658218  0.2713210086679468  1.0000
  C   C48       1.0  0.017297733138334954  0.6589637872488581  0.2864411730470665  1.0000
  C   C49       1.0  0.19496237776237985  0.5256473431638896  0.8178537489293876  1.0000
  C   C50       1.0  0.05369720001807112  0.5809758044453374  0.8546679013509435  1.0000
  C   C51       1.0  0.9852454094726039  0.47554149112566096  0.8716182439301081  1.0000
  I   I1        1.0  0.1474144055462432  0.6924582691872702  0.6853543696995249  1.0000
  I   I2        1.0  0.19476112194971051  0.15112126192797606  0.5713533567986249  1.0000
  I   I3        1.0  0.6024125501456367  0.9088694839135912  0.41063810318242855  1.0000
  I   I4        1.0  0.008011372674985792  0.3579986840087131  0.4296176178947278  1.0000
  I   I5        1.0  0.6023808025588264  0.09573238450366264  0.9149538204061972  1.0000
  N   N1        1.0  0.5432911909317539  0.5334269296039764  0.8542145903942359  1.0000
  N   N2        1.0  0.5319859872953572  0.4571671578832338  0.15258781688051937  1.0000
  N   N3        1.0  0.8787687228132767  0.4198379135956075  0.5032846307317131  1.0000
  N   N4        1.0  0.11003895612692105  0.5758872233943891  0.5138860026674907  1.0000
  O   O1        1.0  0.626795060686085  0.622937765192603  0.46489796384333476  1.0000
  O   O2        1.0  0.5157317715658819  0.7491528857406563  0.8675289860814248  1.0000
  O   O3        1.0  0.44833295745390706  0.6757545607119085  0.16822914053769725  1.0000
  O   O4        1.0  0.6069436181327957  0.23653454714760608  0.13850972681175483  1.0000
  O   O5        1.0  0.3812679700361556  0.6918751306461104  0.4938511861537338  1.0000
  O   O6        1.0  0.6128917877197607  0.3793824917659663  0.42165370139323965  1.0000
  O   O7        1.0  0.36265736224842027  0.48235757460086154  0.41708168131562945  1.0000
  O   O8        1.0  0.6331661905424469  0.2778271893102798  0.534994045676342  1.0000
  O   O9        1.0  0.3833159078862138  0.3289603486161853  0.5177561394114394  1.0000
  O   O10       1.0  0.609162968676877  0.537171633611834  0.5816099880299677  1.0000
  O   O11       1.0  0.3673083257054941  0.5399311264917303  0.5908147690414511  1.0000
  O   O12       1.0  0.5765160893163568  0.3188669600979708  0.8382814969349116  1.0000
  O   O13       1.0  0.4601044588063985  0.8268906043742205  0.08257673982338792  1.0000
  O   O14       1.0  0.005479084901061474  0.6336604135828312  0.4748248530452488  1.0000
  O   O15       1.0  0.2979415530964785  0.32915391231018293  0.31795854228862214  1.0000
  O   O16       1.0  0.7427286706545713  0.507041829315476  0.2195649394876399  1.0000
  O   O17       1.0  0.2639476518435587  0.6271447790275745  0.8090132579563305  1.0000
