data_image0
_chemical_formula_structural       Zn4H28C32N20O8
_chemical_formula_sum              "Zn4 H28 C32 N20 O8"
_cell_length_a       9.6061559327462
_cell_length_b       12.00907736987632
_cell_length_c       12.00915605750916
_cell_angle_alpha    90.417522293372
_cell_angle_beta     109.35841323425068
_cell_angle_gamma    109.35794615671398

_space_group_name_H-M_alt    "P 1"
_space_group_IT_number       1

loop_
  _space_group_symop_operation_xyz
  'x, y, z'

loop_
  _atom_site_type_symbol
  _atom_site_label
  _atom_site_symmetry_multiplicity
  _atom_site_fract_x
  _atom_site_fract_y
  _atom_site_fract_z
  _atom_site_occupancy
  Zn  Zn1       1.0  0.8481896610564731  0.37418631358018206  0.1550956617517585  1.0000
  Zn  Zn2       1.0  0.6518070642426179  0.8449029398028213  0.6258126913494806  1.0000
  Zn  Zn3       1.0  0.15181102242370773  0.6258137596122707  0.8449038614431927  1.0000
  Zn  Zn4       1.0  0.3481931973709179  0.15509624305349226  0.37418671125487174  1.0000
  H   H1        1.0  0.19354205022286652  0.7340103183052232  0.48517463178585263  1.0000
  H   H2        1.0  0.3064497241324062  0.5148280815813138  0.26598925422787545  1.0000
  H   H3        1.0  0.8064563363993215  0.2659897430405778  0.5148309276121239  1.0000
  H   H4        1.0  0.693547396444309  0.4851737864590148  0.7340093099263142  1.0000
  H   H5        1.0  0.9874048040873404  0.7560969088915213  0.1119393956737582  1.0000
  H   H6        1.0  0.5125955475850147  0.8880653361801336  0.24390000645387028  1.0000
  H   H7        1.0  0.012604669281444098  0.24390313121614324  0.8880641870435967  1.0000
  H   H8        1.0  0.48740667111344743  0.11193562617137329  0.7560991078479162  1.0000
  H   H9        1.0  0.3321152778052791  0.9575943312039851  0.5166652859415136  1.0000
  H   H10       1.0  0.1678828468546243  0.48333526770550617  0.0424044318976513  1.0000
  H   H11       1.0  0.6678844800944573  0.04240394474854269  0.4833398028469915  1.0000
  H   H12       1.0  0.8321158089403651  0.5166674894938693  0.9575937233633808  1.0000
  H   H13       1.0  0.12971144311720897  0.9774514267293238  0.15722356042613228  1.0000
  H   H14       1.0  0.3702870052826129  0.8427786345484661  0.022548960506632888  1.0000
  H   H15       1.0  0.8702970925331215  0.022551291474556492  0.8427797839520466  1.0000
  H   H16       1.0  0.629713842138308  0.15722411319630675  0.977450624404625  1.0000
  H   H17       1.0  0.22268812127829563  0.34606478572204213  0.4826071878855558  1.0000
  H   H18       1.0  0.2773050927222087  0.5173884193413443  0.6539270341445018  1.0000
  H   H19       1.0  0.7773114605426985  0.6539352910143066  0.5173920352539056  1.0000
  H   H20       1.0  0.7226845271498732  0.4826090384058189  0.3460611313867545  1.0000
  H   H21       1.0  0.045876781164814376  0.22048310421456557  0.4506111505466848  1.0000
  H   H22       1.0  0.45412081585979547  0.5493842360117042  0.7795092566177004  1.0000
  H   H23       1.0  0.9541238789304601  0.77951696424428  0.5493900317267659  1.0000
  H   H24       1.0  0.5458703864459266  0.4506096426587901  0.2204818153353756  1.0000
  H   H25       1.0  0.036656175659175026  0.3641578610909804  0.41921316799383135  1.0000
  H   H26       1.0  0.46333702056872283  0.580786778081503  0.635835220758402  1.0000
  H   H27       1.0  0.9633407575918936  0.6358413276634136  0.5807869935225582  1.0000
  H   H28       1.0  0.5366540877518274  0.4192115593574925  0.36415585403668876  1.0000
  C   C1        1.0  0.9963874401577539  0.5963542323068437  0.2788740783014773  1.0000
  C   C2        1.0  0.5036097728272252  0.7211357210896949  0.4036402497468288  1.0000
  C   C3        1.0  0.0036140987481658718  0.4036476239246979  0.7211248565354181  1.0000
  C   C4        1.0  0.49639004353476673  0.27886256669686554  0.5963606913454242  1.0000
  C   C5        1.0  0.10466977195534351  0.2795145403968888  0.2997390134285496  1.0000
  C   C6        1.0  0.3953269991688658  0.7002582870043667  0.7204808579358186  1.0000
  C   C7        1.0  0.8953275948548194  0.7204855410604477  0.7002604391391856  1.0000
  C   C8        1.0  0.6046691605036328  0.2997391352785782  0.2795140851638677  1.0000
  C   C9        1.0  0.07814718317083462  0.7295431894356171  0.2971432305283059  1.0000
  C   C10       1.0  0.42185013242824  0.7028593275485377  0.27045741425807535  1.0000
  C   C11       1.0  0.921859348624764  0.2704577398058489  0.7028637203094377  1.0000
  C   C12       1.0  0.5781484999818499  0.29714342491723034  0.7295424000814633  1.0000
  C   C13       1.0  0.1770844310958849  0.7865399246453176  0.4116705169802941  1.0000
  C   C14       1.0  0.3229104260935856  0.5883328170128121  0.21345534054467663  1.0000
  C   C15       1.0  0.8229139789112094  0.2134601414340976  0.5883333833391831  1.0000
  C   C16       1.0  0.6770877961423167  0.41166904748362027  0.786543523665003  1.0000
  C   C17       1.0  0.06025817159270728  0.797708848871622  0.20294352253615233  1.0000
  C   C18       1.0  0.43974135129846553  0.7970595079641993  0.20228919749867197  1.0000
  C   C19       1.0  0.9397495437092472  0.2022920933935879  0.7970579215823292  1.0000
  C   C20       1.0  0.5602586406967163  0.20294145674148462  0.7977109757706345  1.0000
  C   C21       1.0  0.253987260821802  0.9090030560744538  0.4290221922364452  1.0000
  C   C22       1.0  0.24601584278716615  0.5709820229921972  0.09099938642408029  1.0000
  C   C23       1.0  0.7460178880037986  0.09099965619347472  0.5709860587500231  1.0000
  C   C24       1.0  0.7539825433894692  0.4290225160565554  0.9089995395019131  1.0000
  C   C25       1.0  0.14030985252831132  0.920127942748735  0.22733737853395297  1.0000
  C   C26       1.0  0.35968990808854057  0.772666413451908  0.0798735908052564  1.0000
  C   C27       1.0  0.8596971128263816  0.07987387919568079  0.7726688633551432  1.0000
  C   C28       1.0  0.6403102595398309  0.22733722817289953  0.9201258146411108  1.0000
  C   C29       1.0  0.10116628778325779  0.3040400984288141  0.4197416394776567  1.0000
  C   C30       1.0  0.39882833289883024  0.5802536764828828  0.6959533699101499  1.0000
  C   C31       1.0  0.8988328721710913  0.6959590879714028  0.5802574630712057  1.0000
  C   C32       1.0  0.6011632795810866  0.4197410901569468  0.3040386521727712  1.0000
  N   N1        1.0  0.021904248820533215  0.30788452606726924  0.1969963774243695  1.0000
  N   N2        1.0  0.478092038967553  0.8030013195310772  0.6921121993971228  1.0000
  N   N3        1.0  0.9780940790929833  0.6921128820274659  0.8030016544040421  1.0000
  N   N4        1.0  0.5219069687385129  0.19699519468362328  0.3078860118961728  1.0000
  N   N5        1.0  0.23498995666288627  0.9747511731801307  0.33826666092292607  1.0000
  N   N6        1.0  0.2650092941444271  0.6617350057079959  0.02524788864290169  1.0000
  N   N7        1.0  0.7650126371324146  0.0252506700402861  0.6617358921264652  1.0000
  N   N8        1.0  0.7349904516172997  0.3382677455806729  0.9747513962128735  1.0000
  N   N9        1.0  0.061613479599237964  0.2688963192086715  0.10921330079434449  1.0000
  N   N10       1.0  0.43838552941532766  0.8907856533362587  0.731101487410946  1.0000
  N   N11       1.0  0.9383863601476603  0.731101973311503  0.8907859812194019  1.0000
  N   N12       1.0  0.5616171817500373  0.10921173584927858  0.2688994037179242  1.0000
  N   N13       1.0  0.19417987509969947  0.22455087130935414  0.2752053076733674  1.0000
  N   N14       1.0  0.3058200079585305  0.7247927624437194  0.7754477873438077  1.0000
  N   N15       1.0  0.8058192614697433  0.7754483103572412  0.7247954539539947  1.0000
  N   N16       1.0  0.6941790114399851  0.2752037541377845  0.22454959441024158  1.0000
  N   N17       1.0  0.1648777767326024  0.21897929159927537  0.15601839011247157  1.0000
  N   N18       1.0  0.3351231825546392  0.8439805382125484  0.7810196614636951  1.0000
  N   N19       1.0  0.8351216294552019  0.7810181082179497  0.8439816008499291  1.0000
  N   N20       1.0  0.6648795169182762  0.1560168486061713  0.21898205920442135  1.0000
  O   O1        1.0  0.9179610823135247  0.5485609692534792  0.1686525314584273  1.0000
  O   O2        1.0  0.5820367494138737  0.8313478816385996  0.45143911962780703  1.0000
  O   O3        1.0  0.08204769957025346  0.4514399623674094  0.8313517013332898  1.0000
  O   O4        1.0  0.41796741467705795  0.16865485784128248  0.5485605359106671  1.0000
  O   O5        1.0  0.00815002471946261  0.5406860521006107  0.3666198070383899  1.0000
  O   O6        1.0  0.4918373723680459  0.6333770606572243  0.45931221297704644  1.0000
  O   O7        1.0  0.9918474830920869  0.45931222147249406  0.6333879997961418  1.0000
  O   O8        1.0  0.5081592674342089  0.3666283829158772  0.5406837448108206  1.0000
