data_image0
_chemical_formula_structural       Cd2H24C28N2O10
_chemical_formula_sum              "Cd2 H24 C28 N2 O10"
_cell_length_a       9.357786608880627
_cell_length_b       10.119153291205523
_cell_length_c       9.973096792113564
_cell_angle_alpha    91.43983273590891
_cell_angle_beta     90.39871370005919
_cell_angle_gamma    122.78377839122932

_space_group_name_H-M_alt    "P 1"
_space_group_IT_number       1

loop_
  _space_group_symop_operation_xyz
  'x, y, z'

loop_
  _atom_site_type_symbol
  _atom_site_label
  _atom_site_symmetry_multiplicity
  _atom_site_fract_x
  _atom_site_fract_y
  _atom_site_fract_z
  _atom_site_occupancy
  Cd  Cd1       1.0  0.4058662237191655  0.24360977353629917  0.9833219525684315  1.0000
  Cd  Cd2       1.0  0.5941256349761446  0.7563711035257726  0.0166744091274609  1.0000
  H   H1        1.0  0.29711026643369814  0.9402208939948125  0.09100474616073481  1.0000
  H   H2        1.0  0.7028786764267281  0.0597710784592635  0.908999735618373  1.0000
  H   H3        1.0  0.11455126889418894  0.9210899821069771  0.057092669326785  1.0000
  H   H4        1.0  0.8854328786865437  0.07889939205940517  0.9429216783676965  1.0000
  H   H5        1.0  0.33285943140768376  0.12259156519738922  0.5323129534847127  1.0000
  H   H6        1.0  0.6671447223386267  0.8774184310657063  0.46767414478417635  1.0000
  H   H7        1.0  0.6787415183735562  0.005899364247405008  0.688827733811664  1.0000
  H   H8        1.0  0.3212674215630146  0.9941177499672664  0.3111606001818075  1.0000
  H   H9        1.0  0.7875673674225752  0.44454936536842377  0.8203208391725667  1.0000
  H   H10       1.0  0.21243758280984074  0.5554392148547578  0.17970305584188404  1.0000
  H   H11       1.0  0.9400477138144793  0.3029430993122232  0.8178887610477262  1.0000
  H   H12       1.0  0.059966065490392934  0.6970540139672965  0.18213248362238232  1.0000
  H   H13       1.0  0.514874259483534  0.46324061655965915  0.24235268706541999  1.0000
  H   H14       1.0  0.4851218229332019  0.5367563796221121  0.7576420264242004  1.0000
  H   H15       1.0  0.6964650577869448  0.5369997685229106  0.4506648717110054  1.0000
  H   H16       1.0  0.3035470681885215  0.46301304990566905  0.5493194659169447  1.0000
  H   H17       1.0  0.8591038029467342  0.2351281497539617  0.30221587486425255  1.0000
  H   H18       1.0  0.1408941506425662  0.7648723686269037  0.697777938175463  1.0000
  H   H19       1.0  0.6710799073278012  0.1731691433219353  0.10151323053543851  1.0000
  H   H20       1.0  0.3289073460164713  0.8268193198034907  0.8984841332985312  1.0000
  H   H21       1.0  0.9054742309116788  0.3305937945982435  0.5489718206400129  1.0000
  H   H22       1.0  0.09454014851219471  0.669421442835116  0.4510166238113698  1.0000
  H   H23       1.0  0.8625735014333459  0.4747320229370971  0.5987780355690973  1.0000
  H   H24       1.0  0.13743875169499378  0.5252853248082019  0.40121138990253513  1.0000
  C   C1        1.0  0.5053102870375312  0.1433590131054245  0.757180226660438  1.0000
  C   C2        1.0  0.49467687013314077  0.8566350937926899  0.24281020164820427  1.0000
  C   C3        1.0  0.5074728136522779  0.07365547787638599  0.6233437352299376  1.0000
  C   C4        1.0  0.49252837966224666  0.9263509194165992  0.376643231463227  1.0000
  C   C5        1.0  0.40561214160257464  0.06852528793968558  0.5168144548237238  1.0000
  C   C6        1.0  0.594385294931996  0.931484234826918  0.4831744696863751  1.0000
  C   C7        1.0  0.6020687591420855  0.00467240109095  0.6054347164827902  1.0000
  C   C8        1.0  0.39792809984259475  0.9953336907268239  0.3945471198084363  1.0000
  C   C9        1.0  0.825451556139221  0.6630708436125586  0.0018352790683166963  1.0000
  C   C10       1.0  0.1745531707667141  0.336918851066585  0.9981765925771313  1.0000
  C   C11       1.0  0.9175992089030421  0.5806869474702766  0.9997309219021417  1.0000
  C   C12       1.0  0.08241073869190527  0.41931102582010027  0.00029023781274869966  1.0000
  C   C13       1.0  0.8817036797608608  0.46835265251483094  0.8979287624823941  1.0000
  C   C14       1.0  0.11831120470147743  0.5316422785081586  0.10208746224368072  1.0000
  C   C15       1.0  0.9641953603153155  0.3883939297122864  0.8978717345363663  1.0000
  C   C16       1.0  0.03581554029653939  0.6116041106962485  0.1021564710004483  1.0000
  C   C17       1.0  0.5928093511887482  0.4150553694577184  0.2606252593773775  1.0000
  C   C18       1.0  0.4071836814313982  0.5849459321629881  0.7393674366814835  1.0000
  C   C19       1.0  0.694690590398629  0.4556618751760553  0.3756928974571849  1.0000
  C   C20       1.0  0.3053154398656446  0.5443459930782171  0.6243042450846445  1.0000
  C   C21       1.0  0.7927787940712961  0.3909771927167895  0.3945500095388184  1.0000
  C   C22       1.0  0.20722902562677348  0.6090296716374652  0.6054391401106614  1.0000
  C   C23       1.0  0.785256203844348  0.28884057452707873  0.29361006491937763  1.0000
  C   C24       1.0  0.21474078082979986  0.7111621357631607  0.7063827542680841  1.0000
  C   C25       1.0  0.6805930852979785  0.2532511049206789  0.18119535523974412  1.0000
  C   C26       1.0  0.319400118425733  0.7467468183901075  0.8188063191165895  1.0000
  C   C27       1.0  0.9076916241903917  0.4344527686955431  0.515545270282459  1.0000
  C   C28       1.0  0.09232119287020862  0.5655634887258926  0.4844411440674676  1.0000
  N   N1        1.0  0.5852255276430753  0.3145259098800964  0.16531886004668916  1.0000
  N   N2        1.0  0.4147651819440838  0.6854650570651586  0.8346786311394395  1.0000
  O   O1        1.0  0.24065899394699383  0.9891036158853836  0.049710521140298204  1.0000
  O   O2        1.0  0.7593258969418031  0.010891461127826591  0.9503089483476899  1.0000
  O   O3        1.0  0.4299278207551893  0.2183039216303939  0.7626243205227041  1.0000
  O   O4        1.0  0.5700406866483617  0.7816753094556077  0.2373714169217465  1.0000
  O   O5        1.0  0.5708548103015332  0.12287988976755321  0.8600103081295742  1.0000
  O   O6        1.0  0.4291430698212154  0.8771262739948044  0.139975567085429  1.0000
  O   O7        1.0  0.6755983402265643  0.5897153415308621  0.9475422829500247  1.0000
  O   O8        1.0  0.3244212660489083  0.4102878331613128  0.05245613803596431  1.0000
  O   O9        1.0  0.893456863095359  0.7983858288505417  0.05876979779488779  1.0000
  O   O10       1.0  0.1065478479123385  0.20160612485614854  0.9412481258202305  1.0000
