data_image0
_chemical_formula_structural       CdH42C36N18Cl2O8
_chemical_formula_sum              "Cd1 H42 C36 N18 Cl2 O8"
_cell_length_a       8.673928683546755
_cell_length_b       10.1904242710938
_cell_length_c       13.179934759630797
_cell_angle_alpha    107.03254240929392
_cell_angle_beta     94.3565598125572
_cell_angle_gamma    112.59756103788882

_space_group_name_H-M_alt    "P 1"
_space_group_IT_number       1

loop_
  _space_group_symop_operation_xyz
  'x, y, z'

loop_
  _atom_site_type_symbol
  _atom_site_label
  _atom_site_symmetry_multiplicity
  _atom_site_fract_x
  _atom_site_fract_y
  _atom_site_fract_z
  _atom_site_occupancy
  Cd  Cd1       1.0  3.5097703940137275e-07  1.0902715601011969e-06  0.499999912949157  1.0000
  H   H1        1.0  0.2229051112510092  0.3272043137685614  0.47934609933173533  1.0000
  H   H2        1.0  0.7771022604918657  0.672795619253698  0.5206471310886017  1.0000
  H   H3        1.0  0.1766946619573773  0.5160093128644121  0.4077710117593725  1.0000
  H   H4        1.0  0.8233094945269245  0.4839962036012366  0.5922301412979466  1.0000
  H   H5        1.0  0.7115842355682676  0.027082455109720613  0.3514908254829193  1.0000
  H   H6        1.0  0.2884217068998326  0.9729219378541248  0.6485094137343881  1.0000
  H   H7        1.0  0.489810403464638  0.012682050519060805  0.1397194191906479  1.0000
  H   H8        1.0  0.5101977840576454  0.9873223059947664  0.8602839749727452  1.0000
  H   H9        1.0  0.5015322232570584  0.9934900491627733  0.2695875317294211  1.0000
  H   H10       1.0  0.4984734804800084  0.0065188235572791065  0.7304182711390225  1.0000
  H   H11       1.0  0.3022729788176833  0.09576760900527863  0.31903922436756466  1.0000
  H   H12       1.0  0.6977272153180536  0.9042344925569098  0.680961680479733  1.0000
  H   H13       1.0  0.21721985384263598  0.9582102731479911  0.18544187741193252  1.0000
  H   H14       1.0  0.7827855788789861  0.04179069778690091  0.8145590677408877  1.0000
  H   H15       1.0  0.4216130940378662  0.4103089625637466  0.20455853559361975  1.0000
  H   H16       1.0  0.5783826273300506  0.589690914960933  0.7954378114642466  1.0000
  H   H17       1.0  0.4416098235069867  0.37844447842439183  0.32922632560811854  1.0000
  H   H18       1.0  0.5583833457226818  0.6215621837143531  0.6707729450161963  1.0000
  H   H19       1.0  0.7158169875723388  0.4384694921802891  0.2745678170435824  1.0000
  H   H20       1.0  0.28417963425940956  0.5615371628329558  0.7254324077262738  1.0000
  H   H21       1.0  0.6187095685622523  0.2997304226567439  0.14256416846779277  1.0000
  H   H22       1.0  0.3812848772411215  0.7002693875037806  0.8574374020094951  1.0000
  H   H23       1.0  0.9848229121699462  0.9536483252356265  0.16903685414971664  1.0000
  H   H24       1.0  0.015176313485312702  0.0463469607983669  0.8309631956044541  1.0000
  H   H25       1.0  0.7088112909214744  0.12427003063923794  0.01946303135696333  1.0000
  H   H26       1.0  0.29118296922364817  0.8757196188381969  0.9805324108885785  1.0000
  H   H27       1.0  0.9803187806133808  0.3559205126610722  0.044719830174472085  1.0000
  H   H28       1.0  0.01967348882523377  0.6440747590941883  0.9552805782527757  1.0000
  H   H29       1.0  0.19409255369689762  0.8036066675974  0.3836685791948896  1.0000
  H   H30       1.0  0.8059105656175093  0.19639660819533594  0.616329725873257  1.0000
  H   H31       1.0  0.14953280856231294  0.59339378374073  0.20934504498183068  1.0000
  H   H32       1.0  0.8504697153120305  0.4066106353684306  0.7906527287804935  1.0000
  H   H33       1.0  0.7364097359482503  0.8064800570078037  0.2684059902806057  1.0000
  H   H34       1.0  0.2635792012629566  0.19350606265247455  0.7315982054479306  1.0000
  H   H35       1.0  0.5653125063201473  0.7393202284622549  0.14345824319722322  1.0000
  H   H36       1.0  0.43468656528850147  0.2606818913249426  0.8565410841770317  1.0000
  H   H37       1.0  0.5953437087023161  0.7192351347944952  0.009315079414591384  1.0000
  H   H38       1.0  0.40465379898579107  0.2807613127809319  0.9906828615607282  1.0000
  H   H39       1.0  0.6829100474798723  0.5039501717834016  0.9132977601111493  1.0000
  H   H40       1.0  0.31708604760122944  0.49605305169097863  0.08670392624894425  1.0000
  H   H41       1.0  0.7124051647919388  0.39730010835491925  0.992591629016907  1.0000
  H   H42       1.0  0.28759164509474283  0.6026997319249361  0.007407806823437108  1.0000
  C   C1        1.0  0.09911996633647392  0.30265776607817685  0.4337461422848179  1.0000
  C   C2        1.0  0.9008867589538527  0.6973432817307741  0.5662488237938634  1.0000
  C   C3        1.0  0.0716541177039716  0.40581596638222095  0.3939881509171387  1.0000
  C   C4        1.0  0.9283512976771038  0.5941873014902157  0.6060110421329413  1.0000
  C   C5        1.0  0.7881884635116594  0.24285753588388573  0.3221803506801352  1.0000
  C   C6        1.0  0.2118162370638361  0.757149115183083  0.6778210928896942  1.0000
  C   C7        1.0  0.8150071685265985  0.1354663348124703  0.36135603026070123  1.0000
  C   C8        1.0  0.18499828086279993  0.8645369520797817  0.6386416514799437  1.0000
  C   C9        1.0  0.4889987432656611  0.06609554958374284  0.2257459824178909  1.0000
  C   C10       1.0  0.5110053622061558  0.93390993835218  0.7742574376035877  1.0000
  C   C11       1.0  0.31631537354063244  0.07147254772737453  0.23385992039303727  1.0000
  C   C12       1.0  0.6836871336659343  0.9285295554244187  0.7661411167814691  1.0000
  C   C13       1.0  0.4406631741627224  0.3337346843422183  0.24212222903042158  1.0000
  C   C14       1.0  0.5593335503667661  0.6662674148355522  0.7578784773260594  1.0000
  C   C15       1.0  0.6103843757572633  0.32783328871972384  0.22896625035949827  1.0000
  C   C16       1.0  0.38961457648586173  0.6721710709455737  0.771035858840314  1.0000
  C   C17       1.0  0.1409506841099173  0.1695942742823533  0.1499740364977029  1.0000
  C   C18       1.0  0.8590473166568913  0.83040327936466  0.8500264619542719  1.0000
  C   C19       1.0  0.9857660474472638  0.04216530891016391  0.1383640529594174  1.0000
  C   C20       1.0  0.014233705295027013  0.9578311022152309  0.8616370429619881  1.0000
  C   C21       1.0  0.8327355734127765  0.13684642294765584  0.056956623316168006  1.0000
  C   C22       1.0  0.1672625640601027  0.8631465938836983  0.9430428454129897  1.0000
  C   C23       1.0  0.9826846972169108  0.2641870958298114  0.07089308358431622  1.0000
  C   C24       1.0  0.017308270023114997  0.7358047832210206  0.9291058299778996  1.0000
  C   C25       1.0  0.08294831373448379  0.7571995374961633  0.3182237419022301  1.0000
  C   C26       1.0  0.917050282136003  0.24279917928188874  0.6817747800980953  1.0000
  C   C27       1.0  0.056601342804292284  0.6414799489170451  0.22157932061755772  1.0000
  C   C28       1.0  0.9434006029705344  0.358523316570981  0.7784196739416984  1.0000
  C   C29       1.0  0.8032277646932898  0.6409066315398209  0.1547527832768553  1.0000
  C   C30       1.0  0.1967690795381075  0.3590909213123938  0.8452476490115189  1.0000
  C   C31       1.0  0.8290777629049232  0.7595500345182701  0.2532060487142261  1.0000
  C   C32       1.0  0.17091855457582744  0.24044408679507262  0.7467958451643782  1.0000
  C   C33       1.0  0.5520281276997141  0.6564554876910694  0.0648763096796686  1.0000
  C   C34       1.0  0.44796982171822464  0.34354434387368127  0.935123947979001  1.0000
  C   C35       1.0  0.6356297606820931  0.4551687656322798  0.9754535237292289  1.0000
  C   C36       1.0  0.3643681717316838  0.5448310564225594  0.02454748958416532  1.0000
  N   N1        1.0  0.9673541745873707  0.16717669857489176  0.41686326485614705  1.0000
  N   N2        1.0  0.032652533698801355  0.8328243397241551  0.5831324568772517  1.0000
  N   N3        1.0  0.9197980366150846  0.378117416923523  0.3392247288350347  1.0000
  N   N4        1.0  0.08020780349166066  0.6218892254283336  0.6607775365531198  1.0000
  N   N5        1.0  0.6311797610424962  0.21605327302531666  0.26985561371164835  1.0000
  N   N6        1.0  0.36882310253670886  0.7839544730137222  0.7301490106623518  1.0000
  N   N7        1.0  0.2981493730664724  0.18346395412793026  0.19228263170024462  1.0000
  N   N8        1.0  0.7018491034384979  0.8165370025282287  0.8077186721256525  1.0000
  N   N9        1.0  0.13515427226747082  0.28201835935876574  0.11763014437841691  1.0000
  N   N10       1.0  0.8648413984243462  0.7179791831887388  0.8823709774010668  1.0000
  N   N11       1.0  0.8349159601044819  0.026512394921127207  0.09257096680080683  1.0000
  N   N12       1.0  0.16508103783714762  0.9734806306253393  0.9074276801100184  1.0000
  N   N13       1.0  0.9660753042601801  0.8144348326036027  0.3324184251010538  1.0000
  N   N14       1.0  0.03392385304204741  0.18556272183820977  0.6675821395145363  1.0000
  N   N15       1.0  0.9208722423932374  0.5840911899864311  0.14031967394102207  1.0000
  N   N16       1.0  0.07912745866379114  0.41590980550416395  0.8596786734296131  1.0000
  N   N17       1.0  0.6592704062156187  0.5779548604206185  0.07511886866475244  1.0000
  N   N18       1.0  0.3407263526585851  0.4220449513295109  0.9248828341397514  1.0000
  Cl  Cl1       1.0  0.4727317362638247  0.21843907403138027  0.5648692731533131  1.0000
  Cl  Cl2       1.0  0.527269716768686  0.7815607789375963  0.4351296716867382  1.0000
  O   O1        1.0  0.3050814708664263  0.09133501852344494  0.503552930696209  1.0000
  O   O2        1.0  0.6949169372855053  0.9086682065405398  0.4964488879911003  1.0000
  O   O3        1.0  0.5100325570532647  0.2106120989721418  0.6727012203381975  1.0000
  O   O4        1.0  0.4899683348838907  0.7893866098856182  0.3272981896440684  1.0000
  O   O5        1.0  0.6018534225602465  0.20166277020885562  0.5056222560284027  1.0000
  O   O6        1.0  0.3981424528542875  0.79833027356262  0.4943748134093796  1.0000
  O   O7        1.0  0.4644695130061152  0.3612360630078798  0.5751232465678058  1.0000
  O   O8        1.0  0.5355387938816919  0.6387660536278404  0.4248773657700228  1.0000
