data_image0
_chemical_formula_structural       MnH36C48N4Cl2O8
_chemical_formula_sum              "Mn1 H36 C48 N4 Cl2 O8"
_cell_length_a       7.356591683882924
_cell_length_b       11.446279437089325
_cell_length_c       13.304996766861763
_cell_angle_alpha    106.9562075619339
_cell_angle_beta     99.22951027366837
_cell_angle_gamma    100.22224444928625

_space_group_name_H-M_alt    "P 1"
_space_group_IT_number       1

loop_
  _space_group_symop_operation_xyz
  'x, y, z'

loop_
  _atom_site_type_symbol
  _atom_site_label
  _atom_site_symmetry_multiplicity
  _atom_site_fract_x
  _atom_site_fract_y
  _atom_site_fract_z
  _atom_site_occupancy
  Mn  Mn1       1.0  0.00043081506506580005  4.456236730019999e-05  0.00010406288620860006  1.0000
  H   H1        1.0  0.702637331602098  0.18686200264325947  0.6161545105459041  1.0000
  H   H2        1.0  0.29737075556619175  0.8131369905938185  0.38384266535435074  1.0000
  H   H3        1.0  0.2659726082629277  0.5474859626922706  0.42907258985729163  1.0000
  H   H4        1.0  0.7340181974186563  0.4525111796575487  0.5709413565122645  1.0000
  H   H5        1.0  0.27534810750341165  0.1410364433917195  0.6366514039617784  1.0000
  H   H6        1.0  0.7246572087396855  0.8589550353860174  0.36334137034399566  1.0000
  H   H7        1.0  0.9799675134314896  0.4676719940144523  0.1672037926098399  1.0000
  H   H8        1.0  0.020209390060976752  0.5323590217618416  0.8328241490091275  1.0000
  H   H9        1.0  0.0900143877169768  0.5716779042746011  0.5770392311330995  1.0000
  H   H10       1.0  0.9100098771205792  0.4283501397371481  0.42298702831400453  1.0000
  H   H11       1.0  0.1713807014987409  0.9279782371678348  0.6556867102633533  1.0000
  H   H12       1.0  0.8286167031692458  0.0720104611390582  0.3443038996211812  1.0000
  H   H13       1.0  0.03188326356923448  0.3629659684984786  0.8342542242708151  1.0000
  H   H14       1.0  0.968298362030623  0.6370593266629001  0.16578547382039946  1.0000
  H   H15       1.0  0.5986271267336322  0.9717765557148821  0.6271992761354924  1.0000
  H   H16       1.0  0.40138438241334734  0.028224288212435097  0.3728031841379931  1.0000
  H   H17       1.0  0.994794153327156  0.25238164799905144  0.16104141434880867  1.0000
  H   H18       1.0  0.004772016478405346  0.7475246374219751  0.8388866439407394  1.0000
  H   H19       1.0  0.03444407656557048  0.14965975719272956  0.841157727215844  1.0000
  H   H20       1.0  0.9650451324035315  0.8502431973124157  0.15875806815091648  1.0000
  H   H21       1.0  0.25468162711688075  0.7072164419368575  0.7630309310338321  1.0000
  H   H22       1.0  0.7453523365372378  0.29281911541161065  0.23698907791150964  1.0000
  H   H23       1.0  0.6016289781926502  0.666275164182501  0.468889656258277  1.0000
  H   H24       1.0  0.3983741921019472  0.3337031192709005  0.5311048537821463  1.0000
  H   H25       1.0  0.2996843908606194  0.9248469738525456  0.8956815880318133  1.0000
  H   H26       1.0  0.7005253055038735  0.07515367405999031  0.10435365440001483  1.0000
  H   H27       1.0  0.3434664310626587  0.0602440129136568  0.9781716544323803  1.0000
  H   H28       1.0  0.656836495162672  0.9398033944709211  0.02183341392312599  1.0000
  H   H29       1.0  0.5469940179053836  0.4850981797470766  0.7001516139978677  1.0000
  H   H30       1.0  0.45298037119831486  0.5149028607395394  0.2998498168910829  1.0000
  H   H31       1.0  0.5176423127034724  0.2881450364745888  0.9805027309896135  1.0000
  H   H32       1.0  0.48240943319629537  0.7118678218090937  0.019510135509946777  1.0000
  H   H33       1.0  0.5069191559013008  0.6124291059690279  0.875091271101667  1.0000
  H   H34       1.0  0.49308754371040203  0.38757364372563785  0.12491274175935277  1.0000
  H   H35       1.0  0.5601305799143858  0.17616198984798356  0.8014262052096087  1.0000
  H   H36       1.0  0.43988643429310775  0.8238388287585253  0.19857523988743256  1.0000
  C   C1        1.0  0.8031597887349166  0.12824198030823913  0.6216637963380977  1.0000
  C   C2        1.0  0.1968448764546693  0.8717551622386068  0.37832809518892674  1.0000
  C   C3        1.0  0.3363259112098547  0.6081841272390918  0.5109482907493048  1.0000
  C   C4        1.0  0.663681058165409  0.3918119964827582  0.4890630920354085  1.0000
  C   C5        1.0  0.8796302571554759  0.9374542252371467  0.6433884443004346  1.0000
  C   C6        1.0  0.12037197718967012  0.0625438530974733  0.35660947807073035  1.0000
  C   C7        1.0  0.6162521001406134  0.7527954936415213  0.6379187298542989  1.0000
  C   C8        1.0  0.3837625150028146  0.24720252405787588  0.3620780343449398  1.0000
  C   C9        1.0  0.5181063065158115  0.7645716800385856  0.7214648084981692  1.0000
  C   C10       1.0  0.4819221321672699  0.2354451019272261  0.2785386881164911  1.0000
  C   C11       1.0  0.1283540334203366  0.10271168101834859  0.6355948559323253  1.0000
  C   C12       1.0  0.8716451100607543  0.8972817184048909  0.3643970974798949  1.0000
  C   C13       1.0  0.002934977801736327  0.43594243751963563  0.00018480783123214387  1.0000
  C   C14       1.0  0.9972411874406999  0.5640829122698107  0.9998468976357844  1.0000
  C   C15       1.0  0.9913872546171375  0.40134885441455037  0.09228205692745924  1.0000
  C   C16       1.0  0.008754526464294112  0.5986729108293786  0.9077471582755551  1.0000
  C   C17       1.0  0.23855546436926292  0.6197407965717119  0.5935556829019007  1.0000
  C   C18       1.0  0.7614666825749195  0.3802703129785455  0.4064623511879617  1.0000
  C   C19       1.0  0.0703193470125072  0.9850426171792321  0.64551888043588  1.0000
  C   C20       1.0  0.9296801089569371  0.014947941811506401  0.3544761416409089  1.0000
  C   C21       1.0  0.9943376656076024  0.17381111487500786  0.6256456806594528  1.0000
  C   C22       1.0  0.005667689635018343  0.8261841470007739  0.3743435430372416  1.0000
  C   C23       1.0  0.0206144283015561  0.343642469806106  0.9086018302950623  1.0000
  C   C24       1.0  0.9794884847260193  0.6563710273209082  0.09142255740436417  1.0000
  C   C25       1.0  0.7470724068672467  0.009099539477269  0.6297434726920843  1.0000
  C   C26       1.0  0.2529346611116736  0.9909004064189588  0.3702523490826908  1.0000
  C   C27       1.0  0.8233538252893736  0.8131744807823579  0.6573246424596351  1.0000
  C   C28       1.0  0.176653194261192  0.1868254333643478  0.34268093776583447  1.0000
  C   C29       1.0  0.9969436747980254  0.27999285690403036  0.08924422876746267  1.0000
  C   C30       1.0  0.0027174172608184373  0.7199430257227561  0.9107088492858113  1.0000
  C   C31       1.0  0.6126846119969899  0.8479568450961492  0.8343309545497918  1.0000
  C   C32       1.0  0.3874294773706879  0.15211987614182473  0.1656607997389941  1.0000
  C   C33       1.0  0.022154337016388595  0.22356137905763518  0.9113366560750651  1.0000
  C   C34       1.0  0.9774774447080786  0.7763586261658728  0.08861654380896773  1.0000
  C   C35       1.0  0.32962379393192975  0.6969437418815331  0.6980475521379648  1.0000
  C   C36       1.0  0.6704108023807577  0.3030786245780916  0.30196843040343424  1.0000
  C   C37       1.0  0.5244932213423112  0.6746967916214288  0.5330814778549923  1.0000
  C   C38       1.0  0.4755172020233757  0.32528993118738464  0.46691581512804003  1.0000
  C   C39       1.0  0.5409757749706188  0.4438833259622824  0.7643540972512569  1.0000
  C   C40       1.0  0.4590223453644953  0.556118538586219  0.23564591511851782  1.0000
  C   C41       1.0  0.510274498571711  0.46316116540010194  0.9462157529218019  1.0000
  C   C42       1.0  0.489749724235132  0.5368405483461699  0.05378882048551506  1.0000
  C   C43       1.0  0.5239432616311888  0.33742083301458353  0.921899378731901  1.0000
  C   C44       1.0  0.4760833992392576  0.6625874647368449  0.07810632496413923  1.0000
  C   C45       1.0  0.5175860051061817  0.5158638689049438  0.8634727218751339  1.0000
  C   C46       1.0  0.4824224278464158  0.48413982078846374  0.13652942927217998  1.0000
  C   C47       1.0  0.5474909327565881  0.273584094630607  0.8202745634234534  1.0000
  C   C48       1.0  0.4525188894995367  0.7264195972805467  0.1797247066545539  1.0000
  N   N1        1.0  0.009871171512877228  0.19167252009940236  0.9999709272205665  1.0000
  N   N2        1.0  0.9892277890190115  0.8081554263064491  0.9998861106163377  1.0000
  N   N3        1.0  0.5571461684548494  0.3244265941741061  0.7415247573167181  1.0000
  N   N4        1.0  0.4428457550197606  0.6755734176909414  0.25847498216836584  1.0000
  Cl  Cl1       1.0  0.0692478833435928  0.32405809579503136  0.6203884068512268  1.0000
  Cl  Cl2       1.0  0.9307615894029623  0.6759408972175223  0.37960663862978095  1.0000
  O   O1        1.0  0.7800652268942513  0.9144352997577057  0.8495664007741653  1.0000
  O   O2        1.0  0.22002926130987527  0.0855992464316344  0.1503783672701076  1.0000
  O   O3        1.0  0.940193951530091  0.7516096388964613  0.674059311999308  1.0000
  O   O4        1.0  0.059809731954075594  0.24838096582384844  0.32591505646871616  1.0000
  O   O5        1.0  0.5211008187982529  0.8468666162401278  0.9081448921891  1.0000
  O   O6        1.0  0.47899768573181234  0.15326857830393692  0.09186774700899043  1.0000
  O   O7        1.0  0.24315332138466764  0.9977750147738431  0.9145962160042275  1.0000
  O   O8        1.0  0.7570309752818785  0.0022171087803500023  0.08549096233716111  1.0000
