data_image0
_chemical_formula_structural       Zn4H40C68N4O16
_chemical_formula_sum              "Zn4 H40 C68 N4 O16"
_cell_length_a       13.103336039340462
_cell_length_b       13.23182599278675
_cell_length_c       13.892937107825116
_cell_angle_alpha    84.45705220897085
_cell_angle_beta     70.273604112885
_cell_angle_gamma    82.1991995784373

_space_group_name_H-M_alt    "P 1"
_space_group_IT_number       1

loop_
  _space_group_symop_operation_xyz
  'x, y, z'

loop_
  _atom_site_type_symbol
  _atom_site_label
  _atom_site_symmetry_multiplicity
  _atom_site_fract_x
  _atom_site_fract_y
  _atom_site_fract_z
  _atom_site_occupancy
  Zn  Zn1       1.0  0.18618639197967468  0.3187341276083443  0.6672365051323582  1.0000
  Zn  Zn2       1.0  0.1252328189822478  0.3241730357699736  0.8846962887379705  1.0000
  Zn  Zn3       1.0  0.8138147284159486  0.6812626918565668  0.3327638053180522  1.0000
  Zn  Zn4       1.0  0.8747639372731087  0.6758269048429426  0.11530440447743474  1.0000
  H   H1        1.0  0.7589536521393897  0.35038928464940244  0.9811601026489712  1.0000
  H   H2        1.0  0.5670465074216934  0.3490524193024171  0.9872746300823252  1.0000
  H   H3        1.0  0.8739809136033119  0.3052987654335624  0.6581524755853677  1.0000
  H   H4        1.0  0.4338304272236044  0.33283068287011003  0.8971980936495427  1.0000
  H   H5        1.0  0.5488758338526835  0.29125143903946327  0.5738726419867604  1.0000
  H   H6        1.0  0.7413514924797865  0.290859203198515  0.568692087446401  1.0000
  H   H7        1.0  0.1899442595068592  0.9946302342463793  0.6406979498848244  1.0000
  H   H8        1.0  0.10585872371528636  0.8139319610987383  0.9865108749620788  1.0000
  H   H9        1.0  0.11297360040836682  0.002483709450068297  0.9660115631575721  1.0000
  H   H10       1.0  0.12263111102169688  0.6497575838423372  0.9090886814332607  1.0000
  H   H11       1.0  0.19112745329278621  0.6405708415433863  0.5849313783305021  1.0000
  H   H12       1.0  0.20130727833334552  0.8291667148875275  0.5630974424973019  1.0000
  H   H13       1.0  0.1221282913463  0.16509755201694523  0.0508281539473572  1.0000
  H   H14       1.0  0.1324324282998219  0.15354069558634353  0.22760035836901693  1.0000
  H   H15       1.0  0.13344314566235485  0.4820734711956404  0.2011203982493086  1.0000
  H   H16       1.0  0.11585648258856204  0.47985611585933435  0.028996422807864495  1.0000
  H   H17       1.0  0.22323927490110412  0.16024598118197275  0.33276324125996853  1.0000
  H   H18       1.0  0.24617078207522522  0.16774587919216088  0.5031464061088045  1.0000
  H   H19       1.0  0.1145763856449236  0.4696429288540428  0.5277106392835975  1.0000
  H   H20       1.0  0.07854731896059522  0.47493421401444624  0.36172100946402  1.0000
  H   H21       1.0  0.24104885960691289  0.6496182376064682  0.018833110539226518  1.0000
  H   H22       1.0  0.43295151092553397  0.6509673553960337  0.012721115050297339  1.0000
  H   H23       1.0  0.12601828299546008  0.694701144736868  0.34184673654901593  1.0000
  H   H24       1.0  0.5661717178322475  0.6671722458036551  0.10279850124729957  1.0000
  H   H25       1.0  0.4511229274522535  0.7087446526963176  0.42612846827007195  1.0000
  H   H26       1.0  0.25864426441404487  0.709134662157197  0.4313079916009954  1.0000
  H   H27       1.0  0.8100603485997765  0.005364256910290497  0.35930002574772874  1.0000
  H   H28       1.0  0.8941349215775316  0.18606647735407475  0.01349379804004512  1.0000
  H   H29       1.0  0.8870174842000934  0.9975163323745518  0.0339887372721393  1.0000
  H   H30       1.0  0.8773672271537974  0.35024227611709335  0.0909187216775963  1.0000
  H   H31       1.0  0.8088634060484169  0.35942306206285923  0.4150745493599787  1.0000
  H   H32       1.0  0.7986893339074825  0.1708263293353979  0.4369081967042733  1.0000
  H   H33       1.0  0.8778894239368569  0.8349036033803043  0.9491658765835  1.0000
  H   H34       1.0  0.8675821074174266  0.8464597327982516  0.77239616836237  1.0000
  H   H35       1.0  0.8665424293197007  0.517932725179932  0.7988847064378674  1.0000
  H   H36       1.0  0.8841416708590587  0.5201460978354786  0.9710029214430945  1.0000
  H   H37       1.0  0.7767582807472239  0.8397539304214232  0.6672393636626381  1.0000
  H   H38       1.0  0.7538241749406824  0.8322555848555592  0.49685832082374043  1.0000
  H   H39       1.0  0.8854258280143057  0.5303592246722815  0.4722874391994408  1.0000
  H   H40       1.0  0.9214503052911026  0.5250649224415013  0.6382830790447757  1.0000
  C   C1        1.0  0.9433945321365159  0.3302917004174688  0.8126869053962906  1.0000
  C   C2        1.0  0.8274491365873117  0.328286651673096  0.8181269404436408  1.0000
  C   C3        1.0  0.7403225475605736  0.34035282716533277  0.9121556802579251  1.0000
  C   C4        1.0  0.6342848701390056  0.33948513316725837  0.9152861643336081  1.0000
  C   C5        1.0  0.6099129750220056  0.325926020980276  0.8253717742412974  1.0000
  C   C6        1.0  0.6979349939989204  0.31335313086633215  0.7303360348187341  1.0000
  C   C7        1.0  0.8058087240441267  0.31501072672098457  0.7294089489862119  1.0000
  C   C8        1.0  0.5021181973958093  0.32405316883781393  0.8259755908843545  1.0000
  C   C9        1.0  0.4807891426954072  0.31149108647748136  0.7370034485455433  1.0000
  C   C10       1.0  0.5678776420395693  0.3000583239194298  0.6429562127600761  1.0000
  C   C11       1.0  0.6737823992287632  0.3002474934767391  0.6403305720944701  1.0000
  C   C12       1.0  0.3647593076898801  0.31134152707200247  0.7416237418970085  1.0000
  C   C13       1.0  0.1578678126141853  0.12227671417925723  0.7903264265480487  1.0000
  C   C14       1.0  0.1535312451796003  0.0089323125494332  0.8013343231540587  1.0000
  C   C15       1.0  0.17184463254232438  0.9543002089771377  0.7158289698394712  1.0000
  C   C16       1.0  0.167024154300961  0.8475899838926108  0.7247966476518571  1.0000
  C   C17       1.0  0.1445860054736272  0.795842052534617  0.8243102920762766  1.0000
  C   C18       1.0  0.12537537663234843  0.8535803445715898  0.9110132836916947  1.0000
  C   C19       1.0  0.12915256016401597  0.9576067359455745  0.8997373435199947  1.0000
  C   C20       1.0  0.14018958637569776  0.6889615266066325  0.8335483152061444  1.0000
  C   C21       1.0  0.1558949829201879  0.6344927035200597  0.7485627366947228  1.0000
  C   C22       1.0  0.1778120663456377  0.6859651669824982  0.6503202050415027  1.0000
  C   C23       1.0  0.1834714439367389  0.7896824623971596  0.6387403587374224  1.0000
  C   C24       1.0  0.15019386123391593  0.5214111105036919  0.7593932238427784  1.0000
  C   C25       1.0  0.12420423282413397  0.2329974624952769  0.0884584336836269  1.0000
  C   C26       1.0  0.1312517894833434  0.22769212796876553  0.1863230386475792  1.0000
  C   C27       1.0  0.1350785894613793  0.3177540470053728  0.230194565916122  1.0000
  C   C28       1.0  0.14807209926416934  0.31723008747539433  0.33177920707142056  1.0000
  C   C29       1.0  0.12931389064220863  0.4098097463899465  0.17232337474854384  1.0000
  C   C30       1.0  0.12095661792525897  0.4093877356627971  0.07543480877365737  1.0000
  C   C31       1.0  0.1954793344048014  0.23026411741880534  0.3737379434918823  1.0000
  C   C32       1.0  0.2104266876339622  0.23387457897545252  0.46766274441997524  1.0000
  C   C33       1.0  0.13580779090825248  0.4029485467156917  0.4815806639083462  1.0000
  C   C34       1.0  0.11703931426588099  0.40501111274252094  0.38885757998616544  1.0000
  C   C35       1.0  0.05660443756986669  0.6697105069022554  0.1873114640808211  1.0000
  C   C36       1.0  0.172553256443166  0.6717140081444337  0.18186688900915737  1.0000
  C   C37       1.0  0.2596799726186346  0.6596547064077496  0.08783608968975187  1.0000
  C   C38       1.0  0.36571983397607966  0.6605246275023686  0.0847083332176127  1.0000
  C   C39       1.0  0.3900869338754235  0.6740830480613054  0.17462428257710627  1.0000
  C   C40       1.0  0.302067497150091  0.686646793414013  0.2696542268784228  1.0000
  C   C41       1.0  0.19418815984491292  0.68498851796501  0.27058312513170796  1.0000
  C   C42       1.0  0.497884332841423  0.6759459406848263  0.1740212057408356  1.0000
  C   C43       1.0  0.5192127000569114  0.6885064678081388  0.26299873326640016  1.0000
  C   C44       1.0  0.4321200718977564  0.6999400656821209  0.3570457512336064  1.0000
  C   C45       1.0  0.32621646862760656  0.6997478740390759  0.359665527166193  1.0000
  C   C46       1.0  0.6352430141458995  0.6886514668666947  0.2583757955079022  1.0000
  C   C47       1.0  0.8421339140136297  0.8777224186942902  0.20966917999019336  1.0000
  C   C48       1.0  0.8464679429862727  0.9910675863037849  0.1986663322208528  1.0000
  C   C49       1.0  0.8281572872462701  0.04569658147825348  0.28417325231814783  1.0000
  C   C50       1.0  0.8329785215759244  0.15240758665235885  0.2752016729051903  1.0000
  C   C51       1.0  0.8554153418143785  0.20415246978101453  0.17569086103140552  1.0000
  C   C52       1.0  0.8746185124186567  0.14641581936637485  0.08898934548664537  1.0000
  C   C53       1.0  0.8708451664226686  0.04239167063179389  0.10026245561289221  1.0000
  C   C54       1.0  0.8598067135035663  0.3110345672785825  0.16645788423302593  1.0000
  C   C55       1.0  0.8441011027160528  0.36550570449027475  0.25144045522638697  1.0000
  C   C56       1.0  0.8221803526932876  0.31402949336240477  0.34968301113534744  1.0000
  C   C57       1.0  0.8165264884600704  0.21031361873787796  0.3612638911540528  1.0000
  C   C58       1.0  0.8498072296465509  0.4785856693509628  0.24061213794946926  1.0000
  C   C59       1.0  0.8758164995194734  0.7670059362578596  0.9115344631958848  1.0000
  C   C60       1.0  0.8687579763149599  0.7723076427394345  0.8136707176294067  1.0000
  C   C61       1.0  0.8649245860962721  0.6822465611681918  0.7698040617249264  1.0000
  C   C62       1.0  0.8519305243901839  0.6827758505339289  0.6682213030107391  1.0000
  C   C63       1.0  0.8706874898924396  0.5901923908770285  0.8276785649893912  1.0000
  C   C64       1.0  0.879039838617892  0.5906152715882412  0.9245642798185403  1.0000
  C   C65       1.0  0.8045216007779813  0.7697426254639622  0.6262608676909951  1.0000
  C   C66       1.0  0.7895633285246361  0.7661277324218927  0.5323420178478814  1.0000
  C   C67       1.0  0.8641884176602589  0.597056729391589  0.5184211901278956  1.0000
  C   C68       1.0  0.882960296544475  0.5949925875695213  0.6111433421270718  1.0000
  N   N1        1.0  0.11943702832652996  0.3222055347172485  0.033805643109488415  1.0000
  N   N2        1.0  0.1817568349998524  0.3189958778861453  0.5205210396670878  1.0000
  N   N3        1.0  0.880571775573344  0.6777957813437112  0.9661875640094877  1.0000
  N   N4        1.0  0.8182457200511236  0.6810108352706195  0.4794779868288829  1.0000
  O   O1        1.0  0.9619459956960767  0.3367322837051104  0.8963449010364216  1.0000
  O   O2        1.0  0.015053718116355705  0.3266844556515308  0.724163254567067  1.0000
  O   O3        1.0  0.29353495092884424  0.3106141435451021  0.8305367669343937  1.0000
  O   O4        1.0  0.34587621344707736  0.312615931159705  0.6572198240744386  1.0000
  O   O5        1.0  0.18884679482596312  0.1633482028123581  0.6998342111154159  1.0000
  O   O6        1.0  0.1291465190148031  0.16923700210941206  0.872891920214677  1.0000
  O   O7        1.0  0.1681489786952852  0.4758293642502521  0.6774624928786822  1.0000
  O   O8        1.0  0.12740704244552603  0.4791042343233939  0.8494028992719151  1.0000
  O   O9        1.0  0.03805416280111729  0.6632660811125671  0.10365486025597193  1.0000
  O   O10       1.0  0.9849458800446415  0.6733192276846863  0.27583983240696597  1.0000
  O   O11       1.0  0.706465938357944  0.6893849674104897  0.16946342247901203  1.0000
  O   O12       1.0  0.6541182750283524  0.6873740995020082  0.3427860143503097  1.0000
  O   O13       1.0  0.8111499576979071  0.8366441624594639  0.30016064412788523  1.0000
  O   O14       1.0  0.8708597817798633  0.8307566898324193  0.12710703269690526  1.0000
  O   O15       1.0  0.8318602885624176  0.5241665031441654  0.3225439858247014  1.0000
  O   O16       1.0  0.8725917579476319  0.520891042654675  0.1506047459129505  1.0000
