data_image0
_chemical_formula_structural       Zr6H28C52O32
_chemical_formula_sum              "Zr6 H28 C52 O32"
_cell_length_a       15.542302246811238
_cell_length_b       19.345628232241612
_cell_length_c       19.335531389329766
_cell_angle_alpha    91.37463555509939
_cell_angle_beta     89.89048526764016
_cell_angle_gamma    90.09285436139925

_space_group_name_H-M_alt    "P 1"
_space_group_IT_number       1

loop_
  _space_group_symop_operation_xyz
  'x, y, z'

loop_
  _atom_site_type_symbol
  _atom_site_label
  _atom_site_symmetry_multiplicity
  _atom_site_fract_x
  _atom_site_fract_y
  _atom_site_fract_z
  _atom_site_occupancy
  Zr  Zr1       1.0  0.008269249535018699  0.10053028207253333  0.9899471427649833  1.0000
  Zr  Zr2       1.0  0.0040845844929223  0.9619751460345258  0.11146542864935333  1.0000
  Zr  Zr3       1.0  0.005856248318785601  0.9750270025921215  0.8502721813622786  1.0000
  Zr  Zr4       1.0  0.004952183334829401  0.8405669553739163  0.971036543769721  1.0000
  Zr  Zr5       1.0  0.1661153565387323  0.9686302525028838  0.9817536600818787  1.0000
  Zr  Zr6       1.0  0.8453287214385342  0.9701366055531155  0.9811029273631324  1.0000
  H   H1        1.0  0.6443123667233834  0.3547317328378271  0.975940062127741  1.0000
  H   H2        1.0  0.5039854458448899  0.1623232864490802  0.9829955962963414  1.0000
  H   H3        1.0  0.3666437695536402  0.3560861862393169  0.9891843020298483  1.0000
  H   H4        1.0  0.36599527517288527  0.580141539050132  0.9760849648189664  1.0000
  H   H5        1.0  0.50200478261781  0.7749887311658415  0.9781237886696137  1.0000
  H   H6        1.0  0.643652278015736  0.5834719972192417  0.9854084492916332  1.0000
  H   H7        1.0  0.6441058525805587  0.9675392385414842  0.36944301991511014  1.0000
  H   H8        1.0  0.5071165542795484  0.9729928211992702  0.17578161052384905  1.0000
  H   H9        1.0  0.3662233480973427  0.974434536688193  0.36852047704687874  1.0000
  H   H10       1.0  0.6441711826175691  0.9718628947597242  0.5941052736901542  1.0000
  H   H11       1.0  0.507906911140161  0.9697049956979031  0.7889049189470684  1.0000
  H   H12       1.0  0.36623743894020316  0.9668768373616102  0.5970437175035885  1.0000
  H   H13       1.0  0.8872285817592882  0.07659148803574574  0.08987224442686433  1.0000
  H   H14       1.0  0.1260162009730763  0.8581047610165055  0.0819304475822591  1.0000
  H   H15       1.0  0.8790620447044049  0.8655795828261649  0.875103999152373  1.0000
  H   H16       1.0  0.13287201147315392  0.07432101764349142  0.8816266574358027  1.0000
  H   H17       1.0  0.0632995266406411  0.877648423635975  0.2095393007437566  1.0000
  H   H18       1.0  0.9475903549663515  0.7277574993501336  0.03731869213899591  1.0000
  H   H19       1.0  0.05083326187006781  0.7510133578346158  0.8718128441749687  1.0000
  H   H20       1.0  0.0055227115113539  0.8321098425000669  0.818157042304691  1.0000
  H   H21       1.0  0.9605769772253082  0.07057883098633513  0.7620458225130023  1.0000
  H   H22       1.0  0.003896541372292  0.12839988984669762  0.848404809105674  1.0000
  H   H23       1.0  0.04217056630554341  0.2003717714816631  0.07897932268328843  1.0000
  H   H24       1.0  0.9597023087010612  0.03269055568033251  0.23065103204913845  1.0000
  H   H25       1.0  0.9573440524718819  0.8689265946351058  0.7536193652263139  1.0000
  H   H26       1.0  0.949271261358753  0.18523667065599625  0.89317256108955  1.0000
  H   H27       1.0  0.059870465395285094  0.04248116601695531  0.2185726639534664  1.0000
  H   H28       1.0  0.04851983611194301  0.7130500901413016  0.029456719558524507  1.0000
  C   C1        1.0  0.5055259333338996  0.36387259020946067  0.9824545245876383  1.0000
  C   C2        1.0  0.5834668344656251  0.3269341462003652  0.9787521314047044  1.0000
  C   C3        1.0  0.5831299613000952  0.25430344052517023  0.9787474214145893  1.0000
  C   C4        1.0  0.5044777957218473  0.21861178052557062  0.982828973492879  1.0000
  C   C5        1.0  0.4263808238796615  0.25510141361101557  0.9868126447187396  1.0000
  C   C6        1.0  0.4270431966164523  0.32770045626677563  0.9863898664121752  1.0000
  C   C7        1.0  0.5049365105079674  0.5733010153947903  0.9811075017774517  1.0000
  C   C8        1.0  0.4262241139767369  0.6089923605002099  0.9778363877297881  1.0000
  C   C9        1.0  0.42494066364522354  0.6815958061571622  0.9765910079762679  1.0000
  C   C10       1.0  0.5028733468161661  0.7187374568334876  0.9789521088779554  1.0000
  C   C11       1.0  0.5818788949340075  0.683516631399833  0.9821848173097651  1.0000
  C   C12       1.0  0.5826051147875405  0.6108965075275563  0.9831783209540251  1.0000
  C   C13       1.0  0.5050498793246518  0.9707138372758735  0.3774564123627898  1.0000
  C   C14       1.0  0.5836907056404713  0.9692821734866469  0.34110911461145593  1.0000
  C   C15       1.0  0.5845831716706587  0.9700650895923251  0.26849141259945963  1.0000
  C   C16       1.0  0.5064570078292547  0.9724689768775935  0.23207016583655368  1.0000
  C   C17       1.0  0.42765056430396  0.974229713510411  0.26790410513675783  1.0000
  C   C18       1.0  0.42712751500112495  0.9732611979423212  0.34056311325853983  1.0000
  C   C19       1.0  0.5051133231911891  0.9692416917625054  0.587001214790938  1.0000
  C   C20       1.0  0.583882131420623  0.9707297981246795  0.6228662585519943  1.0000
  C   C21       1.0  0.585154865454392  0.9709993800595175  0.6955634966208778  1.0000
  C   C22       1.0  0.5071037115431382  0.9694886903110528  0.7325827546682435  1.0000
  C   C23       1.0  0.42802047585200853  0.9677819564492156  0.6971932450342494  1.0000
  C   C24       1.0  0.4273877630201143  0.9678448497344478  0.6244773744328074  1.0000
  C   C25       1.0  0.2165986294215543  0.12972840795747942  0.9939795663297275  1.0000
  C   C26       1.0  0.7951483878947556  0.965934166131369  0.14330270462048134  1.0000
  C   C27       1.0  0.21779834364473066  0.9749340912409895  0.14248285011619546  1.0000
  C   C28       1.0  0.7934059427230127  0.1292433968588114  0.9746490508823626  1.0000
  C   C29       1.0  0.7992927993171863  0.9749718036779955  0.8161815158256476  1.0000
  C   C30       1.0  0.2125401942082803  0.803646739772809  0.9695486210902832  1.0000
  C   C31       1.0  0.7935045174909947  0.8076871259883307  0.9824017748122319  1.0000
  C   C32       1.0  0.21477345992784788  0.9659924791664029  0.8199388910195327  1.0000
  C   C33       1.0  0.7290602887882898  0.9746833656396919  0.7675309033245556  1.0000
  C   C34       1.0  0.6639641949688342  0.9729281135868749  0.7325245079207934  1.0000
  C   C35       1.0  0.3501002252306692  0.9661967987871806  0.7355597591945726  1.0000
  C   C36       1.0  0.2855428832243234  0.9649780481353222  0.7713231766355053  1.0000
  C   C37       1.0  0.6624721994090168  0.9685042336730734  0.23022235923184553  1.0000
  C   C38       1.0  0.7249966210756044  0.9670951046019173  0.19222618423277996  1.0000
  C   C39       1.0  0.3503662378337324  0.9765042521727455  0.22910747028921466  1.0000
  C   C40       1.0  0.28802828442797324  0.9777701917540329  0.19108320237484125  1.0000
  C   C41       1.0  0.504501755532374  0.9699308813985256  0.45070450486149144  1.0000
  C   C42       1.0  0.5044411835893925  0.9694591104973966  0.5137467373351328  1.0000
  C   C43       1.0  0.7232157648109946  0.7590171757640221  0.984893266888719  1.0000
  C   C44       1.0  0.6594567619016517  0.7223051818981717  0.9839172970434051  1.0000
  C   C45       1.0  0.3464430424962118  0.7186968194752269  0.9729931710591089  1.0000
  C   C46       1.0  0.2822787031967451  0.7545599033498862  0.9699659546200298  1.0000
  C   C47       1.0  0.6603911184573619  0.21547693294661488  0.9752457814216843  1.0000
  C   C48       1.0  0.7228375743461086  0.17759013345048666  0.9729966778500057  1.0000
  C   C49       1.0  0.28641859462931046  0.17883994851710133  0.9940190590965091  1.0000
  C   C50       1.0  0.34870148132916506  0.2168698431232983  0.9909337305622049  1.0000
  C   C51       1.0  0.5059049143877488  0.4371070588768193  0.9821664933151698  1.0000
  C   C52       1.0  0.5057504837514913  0.5001041655620143  0.9818977097006399  1.0000
  O   O1        1.0  0.14022216589184922  0.15295500551871302  0.9971156416897887  1.0000
  O   O2        1.0  0.23941455050026417  0.0662435420069656  0.9896489183405497  1.0000
  O   O3        1.0  0.8715128431717434  0.9678491143156195  0.16699238197546157  1.0000
  O   O4        1.0  0.7731355941270265  0.9635988413594139  0.07980665682968893  1.0000
  O   O5        1.0  0.14148640834176257  0.9821672431527876  0.16561932768769347  1.0000
  O   O6        1.0  0.23930407005657633  0.9631209967872254  0.07953473385830992  1.0000
  O   O7        1.0  0.8693734345385452  0.1518109874646782  0.9679086442994492  1.0000
  O   O8        1.0  0.7711200525367872  0.06633944948497122  0.9844285728413387  1.0000
  O   O9        1.0  0.9931796815144625  0.17198862978106183  0.06546929263547702  1.0000
  O   O10       1.0  0.0056392422410099  0.16290146200018543  0.890512575171144  1.0000
  O   O11       1.0  0.0028223504737781  0.0496925682347111  0.19831860395208886  1.0000
  O   O12       1.0  0.0118758278024345  0.8916232654378293  0.18538567365617106  1.0000
  O   O13       1.0  0.07507901682063789  0.020448545762320705  0.039165102637071014  1.0000
  O   O14       1.0  0.9178678096148759  0.04425392164405651  0.05952128038136812  1.0000
  O   O15       1.0  0.8764865148728447  0.9746578999029227  0.7925654622836122  1.0000
  O   O16       1.0  0.7765424561431687  0.9745569701287168  0.8794272930006743  1.0000
  O   O17       1.0  0.13526955255541404  0.7803119503678816  0.9661202823129645  1.0000
  O   O18       1.0  0.2350570938342358  0.8666883930003666  0.9739088237239532  1.0000
  O   O19       1.0  0.8704688806513091  0.78448127653121  0.9852107744779561  1.0000
  O   O20       1.0  0.7716172304593982  0.8705660979856306  0.9759402720891047  1.0000
  O   O21       1.0  0.13832730167822402  0.9656516526750354  0.7970612647820591  1.0000
  O   O22       1.0  0.2380383418905581  0.9683297025614482  0.8835265179850613  1.0000
  O   O23       1.0  0.0066587689118052  0.8737659864323177  0.7842316099050495  1.0000
  O   O24       1.0  0.006827256488833199  0.06728587143734191  0.7955924652612227  1.0000
  O   O25       1.0  0.0016971804802424003  0.7818461149737459  0.8768641681620369  1.0000
  O   O26       1.0  0.0056397172814258  0.746525328990714  0.045483854385409514  1.0000
  O   O27       1.0  0.9151602236626815  0.8959612895342278  0.9032479025092572  1.0000
  O   O28       1.0  0.07355071273067888  0.9161855791483123  0.9240546564012251  1.0000
  O   O29       1.0  0.9388635379667462  0.02266583124447411  0.929891826196297  1.0000
  O   O30       1.0  0.09145654518270868  0.8878020159529785  0.05338892857163562  1.0000
  O   O31       1.0  0.09657898966784732  0.045920274536939615  0.9104510188251073  1.0000
  O   O32       1.0  0.935372087174784  0.9116891806300912  0.03380169533632231  1.0000
