data_image0
_chemical_formula_structural       Zn2H32C40N12O8
_chemical_formula_sum              "Zn2 H32 C40 N12 O8"
_cell_length_a       5.4275441085083305
_cell_length_b       10.516124204707989
_cell_length_c       16.63867568193208
_cell_angle_alpha    90.00132026615881
_cell_angle_beta     89.99815658595674
_cell_angle_gamma    89.99999586721064

_space_group_name_H-M_alt    "P 1"
_space_group_IT_number       1

loop_
  _space_group_symop_operation_xyz
  'x, y, z'

loop_
  _atom_site_type_symbol
  _atom_site_label
  _atom_site_symmetry_multiplicity
  _atom_site_fract_x
  _atom_site_fract_y
  _atom_site_fract_z
  _atom_site_occupancy
  Zn  Zn1       1.0  0.12545383167063312  0.9999991358746528  0.5000002926274405  1.0000
  Zn  Zn2       1.0  0.8745267292930521  0.5000254736044597  0.999998820640151  1.0000
  H   H1        1.0  0.0646283808668073  0.2575764026626289  0.6066634644424767  1.0000
  H   H2        1.0  0.0646091504810613  0.7424194206272859  0.3933339360999213  1.0000
  H   H3        1.0  0.9354207151260072  0.2424400740453337  0.1066659470777509  1.0000
  H   H4        1.0  0.9353798165418966  0.7575965730226245  0.8933278857647693  1.0000
  H   H5        1.0  0.6645212625529737  0.005105689262059301  0.5901564193625646  1.0000
  H   H6        1.0  0.6645388530741201  0.9948701195189716  0.4098476447111493  1.0000
  H   H7        1.0  0.33545600656956515  0.49486454566416455  0.0901553403361461  1.0000
  H   H8        1.0  0.3354648239635837  0.5051255517172778  0.9098456519573972  1.0000
  H   H9        1.0  0.23486282267331396  0.3965174799350991  0.7206385394970097  1.0000
  H   H10       1.0  0.23486940824660957  0.6034745267903647  0.2793573409067989  1.0000
  H   H11       1.0  0.7652046760117912  0.1034869567844865  0.2206387009588227  1.0000
  H   H12       1.0  0.7651251076786281  0.8965354394519527  0.7793620608671858  1.0000
  H   H13       1.0  0.5016435775437884  0.33760600374665023  0.7716295564878096  1.0000
  H   H14       1.0  0.501672525264823  0.6623878846769601  0.2283663458259468  1.0000
  H   H15       1.0  0.49840524363909827  0.16239362246364664  0.2716377722203163  1.0000
  H   H16       1.0  0.49835356544235054  0.8376135791519774  0.7283611645124282  1.0000
  H   H17       1.0  0.34145326052492214  0.5075243987522244  0.5766178002095615  1.0000
  H   H18       1.0  0.34141404190583563  0.4924609433889202  0.4233729215557602  1.0000
  H   H19       1.0  0.6586139822092606  0.9924506519953487  0.0766246188870454  1.0000
  H   H20       1.0  0.6585180867408696  0.007561292190239002  0.9233776956753559  1.0000
  H   H21       1.0  0.5825080069011648  0.6931917054623185  0.5269873328823991  1.0000
  H   H22       1.0  0.5824502639740531  0.30680027520041625  0.4730186659478619  1.0000
  H   H23       1.0  0.41754459435068714  0.8067834506318197  0.026996585666403  1.0000
  H   H24       1.0  0.41742280731632053  0.19322565893524063  0.9730024723754056  1.0000
  H   H25       1.0  0.08913927956566431  0.6526223527635154  0.7237597059498313  1.0000
  H   H26       1.0  0.089148060149661  0.3473515975929402  0.2762428845376519  1.0000
  H   H27       1.0  0.9108891743076769  0.8473827484596798  0.2237801741534113  1.0000
  H   H28       1.0  0.9108339117408588  0.15262632380872532  0.7762162816265814  1.0000
  H   H29       1.0  0.8426134249620105  0.46735728168467716  0.7752536733588826  1.0000
  H   H30       1.0  0.842629885839571  0.5326185135123253  0.2247427904704296  1.0000
  H   H31       1.0  0.15742761591891963  0.032653886662032505  0.2752564193960012  1.0000
  H   H32       1.0  0.15737634904176193  0.9673580950741327  0.7247299356595036  1.0000
  C   C1        1.0  0.244488360989763  0.21363637210108524  0.613243992838477  1.0000
  C   C2        1.0  0.24448461641390648  0.7863632412510315  0.38675120071301444  1.0000
  C   C3        1.0  0.7555415646329208  0.286372735421658  0.1132451198960922  1.0000
  C   C4        1.0  0.7555161513337297  0.7136430049577029  0.8867479147978514  1.0000
  C   C5        1.0  0.5521158755912694  0.08633839851516001  0.6070494863181537  1.0000
  C   C6        1.0  0.552113271452619  0.9136412223674599  0.3929507734479358  1.0000
  C   C7        1.0  0.4478705332996498  0.4136305461063615  0.10705041914668809  1.0000
  C   C8        1.0  0.4478665261852371  0.586365248380872  0.8929543775900299  1.0000
  C   C9        1.0  0.42811270836799054  0.36765119034000554  0.7132306255596247  1.0000
  C   C10       1.0  0.4281129269103588  0.6323417527385831  0.2867665344298729  1.0000
  C   C11       1.0  0.5719298356688186  0.13235773282529814  0.2132305320318295  1.0000
  C   C12       1.0  0.5718881192941297  0.8676608742422829  0.7867659452229745  1.0000
  C   C13       1.0  0.579662019620919  0.47509318869089173  0.6788674251687894  1.0000
  C   C14       1.0  0.5796233362677514  0.5248826263173216  0.3211265786817634  1.0000
  C   C15       1.0  0.42041021326377864  0.024907834330249998  0.1788779268323708  1.0000
  C   C16       1.0  0.4203351237750398  0.9751174407241978  0.8211241105797242  1.0000
  C   C17       1.0  0.5073496916396181  0.5377946764335277  0.6084864044743625  1.0000
  C   C18       1.0  0.5073177694916424  0.4621887515527805  0.3915160581885502  1.0000
  C   C19       1.0  0.4927231508742197  0.9621843807171265  0.1084960634456777  1.0000
  C   C20       1.0  0.49261612837364044  0.037824723280664316  0.891508934376276  1.0000
  C   C21       1.0  0.6413419089693662  0.6415196383909177  0.5803052375931514  1.0000
  C   C22       1.0  0.6413031071797519  0.3584618776484448  0.41969783172007163  1.0000
  C   C23       1.0  0.35871386078874684  0.8584574477665188  0.0803169756335222  1.0000
  C   C24       1.0  0.3585815353039621  0.14155071535342503  0.9196838097570817  1.0000
  C   C25       1.0  0.8512650755374408  0.6833532835646708  0.6217688447138698  1.0000
  C   C26       1.0  0.851240186050724  0.3166367748330146  0.3782299461929668  1.0000
  C   C27       1.0  0.14879704873900576  0.8166424201656926  0.1217854496774322  1.0000
  C   C28       1.0  0.14867679392418148  0.18336861149035852  0.8782111998993188  1.0000
  C   C29       1.0  0.9264424575708998  0.6192824577374125  0.6914761110702016  1.0000
  C   C30       1.0  0.9264273121911302  0.3807066440400747  0.3085214075302574  1.0000
  C   C31       1.0  0.07361729247139691  0.8807262294789525  0.1914967312063638  1.0000
  C   C32       1.0  0.0735270484383364  0.1192857588612384  0.8085047965766989  1.0000
  C   C33       1.0  0.7908380843280939  0.5160310571254174  0.7198111470207351  1.0000
  C   C34       1.0  0.7908206233162646  0.4839647114661717  0.2801935925218261  1.0000
  C   C35       1.0  0.20924240648285058  0.9839843610828115  0.2198200506156383  1.0000
  C   C36       1.0  0.2091627425283207  0.016027616973190103  0.7801790641270259  1.0000
  C   C37       1.0  0.9941489465860087  0.7972588112654152  0.5940991717747792  1.0000
  C   C38       1.0  0.9941172343166188  0.202745500512215  0.4059193788084343  1.0000
  C   C39       1.0  0.0058720957405569  0.7027453998965287  0.09410576586886779  1.0000
  C   C40       1.0  0.0057892375354882  0.2972646917061895  0.9058951647342964  1.0000
  N   N1        1.0  0.3201562696185007  0.10608089250650478  0.5777682881093681  1.0000
  N   N2        1.0  0.3201577161702076  0.893910156942674  0.4222322398235292  1.0000
  N   N3        1.0  0.679850040297957  0.3939164707587255  0.0777710674134653  1.0000
  N   N4        1.0  0.6798353449876657  0.6060973735821805  0.922226850121497  1.0000
  N   N5        1.0  0.6235265113257213  0.17614521533135993  0.6578465371585125  1.0000
  N   N6        1.0  0.6235480890742052  0.8238305965513747  0.3421578929328177  1.0000
  N   N7        1.0  0.37647809155479456  0.3238398318769172  0.15784799238140576  1.0000
  N   N8        1.0  0.3764669457381941  0.676161673449542  0.8421526338054761  1.0000
  N   N9        1.0  0.4252045746508273  0.25561087379578856  0.6612911880318891  1.0000
  N   N10       1.0  0.42520259092852086  0.7443801677159458  0.3387090029665956  1.0000
  N   N11       1.0  0.5748235897755336  0.2443904637223682  0.1612909089115533  1.0000
  N   N12       1.0  0.5747925673821898  0.7556252904725869  0.8387115525304409  1.0000
  O   O1        1.0  0.19728953898520277  0.824356840942926  0.6252520416926116  1.0000
  O   O2        1.0  0.1972834679940192  0.17563516880003505  0.3747537904033322  1.0000
  O   O3        1.0  0.8027371842577012  0.6756456451871741  0.1252613404108445  1.0000
  O   O4        1.0  0.8026081114214066  0.3243491715114645  0.87473908631231  1.0000
  O   O5        1.0  0.8921889320593835  0.8647512813179149  0.5371328477327849  1.0000
  O   O6        1.0  0.892176557070833  0.1352416270059251  0.4628800019615937  1.0000
  O   O7        1.0  0.1078201431452754  0.6352461130780966  0.0371351374375664  1.0000
  O   O8        1.0  0.1077584651126458  0.36476301964995633  0.9628516605804975  1.0000
