data_image0
_chemical_formula_structural       Zn2H50C68N4Cl2O12
_chemical_formula_sum              "Zn2 H50 C68 N4 Cl2 O12"
_cell_length_a       14.627667553486168
_cell_length_b       16.049389839707047
_cell_length_c       27.920257268042292
_cell_angle_alpha    89.98358087982619
_cell_angle_beta     90.06520226603489
_cell_angle_gamma    89.94409460965649

_space_group_name_H-M_alt    "P 1"
_space_group_IT_number       1

loop_
  _space_group_symop_operation_xyz
  'x, y, z'

loop_
  _atom_site_type_symbol
  _atom_site_label
  _atom_site_symmetry_multiplicity
  _atom_site_fract_x
  _atom_site_fract_y
  _atom_site_fract_z
  _atom_site_occupancy
  Zn  Zn1       1.0  0.40665119304993896  0.49936126251431295  0.500279701413895  1.0000
  Zn  Zn2       1.0  0.5946372154600469  0.4995633501240987  0.5001872023844243  1.0000
  H   H1        1.0  0.3654677251749093  0.4399332214032298  0.35716521964243253  1.0000
  H   H2        1.0  0.3445747729036982  0.4332782334294619  0.2681781852445155  1.0000
  H   H3        1.0  0.42609539498661775  0.28827591678466286  0.12324197089380111  1.0000
  H   H4        1.0  0.35606230373799974  0.47238621730699737  0.6493950039892695  1.0000
  H   H5        1.0  0.3508296401489731  0.4740472173407611  0.7396050281666363  1.0000
  H   H6        1.0  0.5417073222488896  0.3019122309692932  0.8810982386928004  1.0000
  H   H7        1.0  0.5151259403147534  0.29538672912259756  0.9686271384403896  1.0000
  H   H8        1.0  0.6025271752443973  0.5565318856114844  0.2501779453881241  1.0000
  H   H9        1.0  0.4391158751628412  0.7045131308136942  0.12296027948795542  1.0000
  H   H10       1.0  0.39190588830661005  0.7021844029795901  0.9650019054254031  1.0000
  H   H11       1.0  0.6412487605565219  0.5301162310377591  0.6540571485187314  1.0000
  H   H12       1.0  0.4041790579594463  0.7010528753491057  0.8763953103900448  1.0000
  H   H13       1.0  0.4276008612522163  0.7062812180794821  0.0343429592222364  1.0000
  H   H14       1.0  0.39707613174364553  0.9264753940293246  0.5554276307952222  1.0000
  H   H15       1.0  0.5688973468132164  0.9257674743146322  0.5682496692641408  1.0000
  H   H16       1.0  0.39721567789025175  0.0724330683464416  0.5557328292458408  1.0000
  H   H17       1.0  0.5694026456091947  0.07166088060002099  0.5685778485103086  1.0000
  H   H18       1.0  0.6435054774314182  0.0718470221000445  0.5187458264865086  1.0000
  H   H19       1.0  0.3523907871587682  0.07304432075799379  0.49701152691935147  1.0000
  H   H20       1.0  0.6431308225904575  0.9258046539145112  0.5184442891856875  1.0000
  H   H21       1.0  0.3519531202392656  0.926985716391968  0.4967743848601671  1.0000
  H   H22       1.0  0.45902874163027735  0.073086975515082  0.4256459475250196  1.0000
  H   H23       1.0  0.5785122167549662  0.0728823732741262  0.4344674790911114  1.0000
  H   H24       1.0  0.4592552587588516  0.927242780978858  0.4251384610025043  1.0000
  H   H25       1.0  0.5786443877222996  0.9269980515125766  0.43431481987843773  1.0000
  H   H26       1.0  0.08033392436798441  0.37055146897742475  0.519402204534309  1.0000
  H   H27       1.0  0.9200253376452353  0.3697922391248554  0.517802399270515  1.0000
  H   H28       1.0  0.92029186679018  0.5976339084278735  0.5498550990159217  1.0000
  H   H29       1.0  0.08026374130570701  0.5988641806616144  0.5490863818831855  1.0000
  H   H30       1.0  0.9214118921673632  0.4957823718179525  0.5737367007804366  1.0000
  H   H31       1.0  0.08122677972812652  0.497714795285276  0.5739048179778409  1.0000
  H   H32       1.0  0.9246437902650442  0.6206208327554776  0.4628316940563195  1.0000
  H   H33       1.0  0.0788307582580927  0.619367962155593  0.4613748599958356  1.0000
  H   H34       1.0  0.9219256741739774  0.38519891981149357  0.4550926365322425  1.0000
  H   H35       1.0  0.08123101426880913  0.3835266217469879  0.4565094849446893  1.0000
  H   H36       1.0  0.7679124372199769  0.5029086178500178  0.7021604397440697  1.0000
  H   H37       1.0  0.7400143982059576  0.610712213301703  0.7020598520314538  1.0000
  H   H38       1.0  0.8056849171628501  0.5679229253579547  0.7496283037888672  1.0000
  H   H39       1.0  0.6465332833716106  0.5897633620799922  0.7774530977864131  1.0000
  H   H40       1.0  0.6738511077515171  0.48301702104468797  0.7770276821068053  1.0000
  H   H41       1.0  0.3203236643085888  0.21014501485540646  0.09080611915815241  1.0000
  H   H42       1.0  0.2536085304902401  0.26547014338837727  0.048232489575639206  1.0000
  H   H43       1.0  0.2945556924247655  0.1638264539559557  0.0347968508293519  1.0000
  H   H44       1.0  0.3853951574337914  0.26831990274114054  0.9912295482268833  1.0000
  H   H45       1.0  0.4549598052204475  0.21501513510936124  0.0327091857848814  1.0000
  H   H46       1.0  0.7409040877425428  0.5762364030921675  0.2819680070802875  1.0000
  H   H47       1.0  0.6751836735014578  0.6681854467280883  0.2907403040325179  1.0000
  H   H48       1.0  0.7701562678808715  0.6464727437743177  0.32837886338650435  1.0000
  H   H49       1.0  0.6303818724482896  0.6144883663128693  0.3736502954146701  1.0000
  H   H50       1.0  0.6904898292890426  0.5229684925808583  0.36325516861844426  1.0000
  C   C1        1.0  0.49878225552061667  0.3373990167206102  0.5000005913877033  1.0000
  C   C2        1.0  0.5016169132420387  0.49978480931453373  0.4071311722306917  1.0000
  C   C3        1.0  0.49886498643284233  0.6616358706583652  0.4998038162102248  1.0000
  C   C4        1.0  0.5023621522642331  0.5001280818373389  0.5933389221082023  1.0000
  C   C5        1.0  0.45614066595688035  0.4167857105682557  0.1798607032329755  1.0000
  C   C6        1.0  0.45240088130583456  0.5728624783331637  0.18034839856662901  1.0000
  C   C7        1.0  0.5520090872561598  0.5296617077248839  0.2742435486462753  1.0000
  C   C8        1.0  0.5660096046918639  0.5322331751641227  0.32384904522113805  1.0000
  C   C9        1.0  0.41768867802977644  0.46425025860826696  0.3331679789168334  1.0000
  C   C10       1.0  0.40553187274328206  0.46111496210497893  0.28382100600197196  1.0000
  C   C11       1.0  0.4731847086553957  0.4946873823706425  0.2546439949622297  1.0000
  C   C12       1.0  0.44246711087087237  0.49557513451208723  0.10207017173532759  1.0000
  C   C13       1.0  0.44380139881783276  0.4191142004419248  0.1272446795178936  1.0000
  C   C14       1.0  0.43097913611747185  0.34552537457977917  0.1023591145184781  1.0000
  C   C15       1.0  0.4441524565140187  0.5716636985705958  0.1275093569007026  1.0000
  C   C16       1.0  0.496646000091218  0.49889196237998573  0.3534195141258181  1.0000
  C   C17       1.0  0.49938563790085083  0.5011558576668305  0.6470643429735432  1.0000
  C   C18       1.0  0.4605400002550014  0.4199463164550465  0.9745121942214254  1.0000
  C   C19       1.0  0.4284494440591759  0.5725453984732312  0.9738812793268322  1.0000
  C   C20       1.0  0.44896600840031203  0.4968598708146814  0.9492413824572524  1.0000
  C   C21       1.0  0.4968384943739467  0.3518894280966903  0.9493804292241564  1.0000
  C   C22       1.0  0.5134285107430332  0.35534417377165534  0.9001105381923793  1.0000
  C   C23       1.0  0.4937173069534283  0.4270172689559857  0.8742202889712303  1.0000
  C   C24       1.0  0.46195738884183885  0.49893322808292595  0.8984994665693904  1.0000
  C   C25       1.0  0.4454217099695939  0.5734991358019031  0.872762844411305  1.0000
  C   C26       1.0  0.45730622537399074  0.5767959485683176  0.8202042281768414  1.0000
  C   C27       1.0  0.5091143725306111  0.42803085595531337  0.8219090795910803  1.0000
  C   C28       1.0  0.41425714122377866  0.4862158542992318  0.720379298425307  1.0000
  C   C29       1.0  0.4168789105907751  0.4853222275978408  0.6706054517219115  1.0000
  C   C30       1.0  0.5784097014085818  0.5179371842094582  0.6737072634009496  1.0000
  C   C31       1.0  0.5774249621468925  0.5192639158065332  0.7237799539492757  1.0000
  C   C32       1.0  0.49355011242743546  0.5028805518080829  0.7462796887581504  1.0000
  C   C33       1.0  0.44087683042921827  0.41685332269452147  0.0258734228766855  1.0000
  C   C34       1.0  0.43924691997261084  0.49487868676431646  0.051006301974148  1.0000
  C   C35       1.0  0.4327132799494678  0.5725691376700793  0.026145382020715098  1.0000
  C   C36       1.0  0.4255287371141848  0.3425801839141939  0.0519643905339038  1.0000
  C   C37       1.0  0.4382924839324717  0.6465271124301069  0.1026507605572675  1.0000
  C   C38       1.0  0.41077456423935405  0.6444954943816867  0.9469833839830885  1.0000
  C   C39       1.0  0.41787271583936575  0.644788633134574  0.8971005516901229  1.0000
  C   C40       1.0  0.43182129695941285  0.6465880820654418  0.052771231763905704  1.0000
  C   C41       1.0  0.40774758887818063  0.047879380606545396  0.5194104328510605  1.0000
  C   C42       1.0  0.5782988280634528  0.04715372525652129  0.5321300022279232  1.0000
  C   C43       1.0  0.5780551794173905  0.950751170374886  0.5319185123642995  1.0000
  C   C44       1.0  0.40756271258700866  0.9514961275839722  0.5192011614598258  1.0000
  C   C45       1.0  0.4992578444047241  0.7517300300687424  0.499218589000499  1.0000
  C   C46       1.0  0.5000563827560996  0.0811620261819215  0.5001661347057579  1.0000
  C   C47       1.0  0.49959236859842104  0.9178879717505241  0.499721528813872  1.0000
  C   C48       1.0  0.5138312118549067  0.9516980496764517  0.4482502805571968  1.0000
  C   C49       1.0  0.5138287002204579  0.0481317986842029  0.4484740247597188  1.0000
  C   C50       1.0  0.4995948644128419  0.827465491577442  0.4993272495414516  1.0000
  C   C51       1.0  0.5001984233224804  0.1715892034667235  0.5000799262650872  1.0000
  C   C52       1.0  0.49986310976212434  0.2473118485005301  0.5000137425429472  1.0000
  C   C53       1.0  0.9480751472526808  0.4091667857820837  0.4892388502604419  1.0000
  C   C54       1.0  0.05367138160932682  0.40891771492424317  0.4899756518010179  1.0000
  C   C55       1.0  0.9480310711999568  0.5346834928408272  0.5445833560008566  1.0000
  C   C56       1.0  0.05355440761300661  0.5354345103101605  0.5444526888624495  1.0000
  C   C57       1.0  0.9126516824723937  0.49918629997193165  0.49635398041547063  1.0000
  C   C58       1.0  0.08897615507447651  0.4990355905417868  0.4964915429605982  1.0000
  C   C59       1.0  0.054617057233933515  0.5556581042466888  0.45499833562275444  1.0000
  C   C60       1.0  0.947200771805399  0.5567154463938665  0.4553801960974155  1.0000
  C   C61       1.0  0.18814517490335453  0.49929650601255543  0.49746524021794875  1.0000
  C   C62       1.0  0.8134272739503107  0.4994567532745933  0.4971893471668736  1.0000
  C   C63       1.0  0.6616938407055815  0.5370064325963427  0.7534218211591366  1.0000
  C   C64       1.0  0.7484908969369145  0.5556921517932877  0.7251072978250832  1.0000
  C   C65       1.0  0.3982729515413653  0.2601377939808173  0.029617255185350203  1.0000
  C   C66       1.0  0.3119693512587817  0.2229108942700151  0.0524275671956076  1.0000
  C   C67       1.0  0.6511382031386221  0.5718197583294329  0.3447388552399602  1.0000
  C   C68       1.0  0.7122870244794942  0.6180591348473856  0.30933664824880946  1.0000
  N   N1        1.0  0.46112855342239817  0.49466461921829813  0.2032798746332034  1.0000
  N   N2        1.0  0.48701897404295397  0.5026961886417708  0.7980002034708917  1.0000
  N   N3        1.0  0.26706427230427476  0.49938450332951595  0.5001379605150049  1.0000
  N   N4        1.0  0.7344961458559993  0.4993149125967379  0.4997862623984446  1.0000
  Cl  Cl1       1.0  0.8945686474277184  0.5299457799304294  0.4001191901440535  1.0000
  Cl  Cl2       1.0  0.10520670763762043  0.5251963591486445  0.3998919447440842  1.0000
  O   O1        1.0  0.4221692985095658  0.372187403867997  0.4914188443309229  1.0000
  O   O2        1.0  0.574610257550468  0.3736290292475957  0.5086556287279222  1.0000
  O   O3        1.0  0.4263748819017722  0.5140146869562373  0.42867755231100807  1.0000
  O   O4        1.0  0.5782682551971376  0.48547074420933006  0.4271727317603506  1.0000
  O   O5        1.0  0.4228084201766294  0.6265394644671858  0.5089672287082578  1.0000
  O   O6        1.0  0.5749519578566763  0.6257079784879307  0.4911507643870721  1.0000
  O   O7        1.0  0.42729310194399533  0.4843139797547877  0.5719380688601206  1.0000
  O   O8        1.0  0.5786924146214789  0.5149491663727374  0.5731390651506487  1.0000
  O   O9        1.0  0.46264399239611737  0.35106702134745404  0.2023150515732652  1.0000
  O   O10       1.0  0.5392307602170663  0.3677240992475743  0.7996619437856725  1.0000
  O   O11       1.0  0.45279071986504266  0.6380585392824686  0.2035025725976141  1.0000
  O   O12       1.0  0.4425883761370457  0.6399745432673143  0.7963963524136093  1.0000
