data_image0
_chemical_formula_structural       Cd2H44C52N6O10
_chemical_formula_sum              "Cd2 H44 C52 N6 O10"
_cell_length_a       10.376928131460065
_cell_length_b       10.546175131845773
_cell_length_c       13.882973880607135
_cell_angle_alpha    101.86021953102812
_cell_angle_beta     101.6918531421126
_cell_angle_gamma    109.44039294288477

_space_group_name_H-M_alt    "P 1"
_space_group_IT_number       1

loop_
  _space_group_symop_operation_xyz
  'x, y, z'

loop_
  _atom_site_type_symbol
  _atom_site_label
  _atom_site_symmetry_multiplicity
  _atom_site_fract_x
  _atom_site_fract_y
  _atom_site_fract_z
  _atom_site_occupancy
  Cd  Cd1       1.0  0.12457599030112486  0.2688343668812649  0.3107039633981543  1.0000
  Cd  Cd2       1.0  0.8754160588193972  0.7311626954066954  0.6892955615892262  1.0000
  H   H1        1.0  0.6180660707951944  0.2762940099128812  0.3094205026371952  1.0000
  H   H2        1.0  0.38193918604490323  0.7236965063528374  0.6905824289500373  1.0000
  H   H3        1.0  0.26007085015996273  0.8782150949206056  0.21553210571480014  1.0000
  H   H4        1.0  0.7399282116850544  0.12178395826831691  0.784474392232319  1.0000
  H   H5        1.0  0.6779250882054841  0.8916101710408527  0.21006724265853902  1.0000
  H   H6        1.0  0.3220681841737161  0.10838053542089199  0.7899291917473333  1.0000
  H   H7        1.0  0.20057856607590463  0.49462213764771  0.540708695984229  1.0000
  H   H8        1.0  0.7994311021937438  0.5053895156168836  0.4592926052652758  1.0000
  H   H9        1.0  0.2125542871829752  0.5017527738806464  0.7204800988172054  1.0000
  H   H10       1.0  0.7874486599723338  0.49826427075635865  0.2795198444213653  1.0000
  H   H11       1.0  0.13343607680418054  0.058047353544985504  0.6353315068882281  1.0000
  H   H12       1.0  0.8665659912497079  0.9419622758330206  0.3646706721636122  1.0000
  H   H13       1.0  0.13073697101454942  0.07174114540286781  0.4555818597696373  1.0000
  H   H14       1.0  0.8692679030210616  0.9282726678787232  0.5444235397879638  1.0000
  H   H15       1.0  0.17233147462591356  0.1743403212117798  0.8103041576390666  1.0000
  H   H16       1.0  0.8276704514260801  0.8256693250302122  0.18969512338900077  1.0000
  H   H17       1.0  0.267274328661138  0.3609394107303174  0.8570478704966008  1.0000
  H   H18       1.0  0.7327270669063213  0.6390659868834518  0.14295494818582447  1.0000
  H   H19       1.0  0.9425404578284642  0.20042335672427924  0.7707820123695299  1.0000
  H   H20       1.0  0.057464409819303404  0.7995936653480556  0.22921744396972343  1.0000
  H   H21       1.0  0.030545717819734475  0.38774514694735995  0.8133183796325625  1.0000
  H   H22       1.0  0.9694603934687864  0.6122665177186093  0.18668969146313688  1.0000
  H   H23       1.0  0.9077750538279404  0.0685706707266931  0.8947651132275283  1.0000
  H   H24       1.0  0.09222131290204781  0.9314252889881021  0.10523187570647964  1.0000
  H   H25       1.0  0.9371858928252693  0.07447793661229704  0.08046647594134981  1.0000
  H   H26       1.0  0.0628101176814583  0.9255074404703835  0.9195293922503113  1.0000
  H   H27       1.0  0.20711010112650302  0.4963428765154206  0.181964805603549  1.0000
  H   H28       1.0  0.7928935299780593  0.5036455228737041  0.8180418901237302  1.0000
  H   H29       1.0  0.18190759811757581  0.5110539228410859  0.003686185912364716  1.0000
  H   H30       1.0  0.8180956349697512  0.4889429415612128  0.9963233399827871  1.0000
  H   H31       1.0  0.03605464144290242  0.5276482602726631  0.356159776834481  1.0000
  H   H32       1.0  0.9639444140142646  0.4723540017070037  0.6438407778942903  1.0000
  H   H33       1.0  0.13923152175716072  0.7906904254701246  0.4283297381006648  1.0000
  H   H34       1.0  0.8607717404427789  0.20930964350692  0.5716745690820844  1.0000
  H   H35       1.0  0.557318615595463  0.7773491820175736  0.46101610681967026  1.0000
  H   H36       1.0  0.44268300048686643  0.22264777166300587  0.5389802591651646  1.0000
  H   H37       1.0  0.4359698585490934  0.5164490714945276  0.38760973025284784  1.0000
  H   H38       1.0  0.5640293711693475  0.4835468564812545  0.6123861660792117  1.0000
  H   H39       1.0  0.3602261949107585  0.005669923626598503  0.4412937042226447  1.0000
  H   H40       1.0  0.6397744184277558  0.9943249419470136  0.5586992996461078  1.0000
  H   H41       1.0  0.3986498582159188  0.9925742483284241  0.5674965846586986  1.0000
  H   H42       1.0  0.601351800973255  0.007430117137502606  0.43250032473333283  1.0000
  H   H43       1.0  0.47612622278330025  0.688003121205206  0.1685119584687556  1.0000
  H   H44       1.0  0.5238620531121543  0.3119876648562112  0.8314817084027198  1.0000
  C   C1        1.0  0.6645005416981604  0.09197863360052591  0.26243287409003824  1.0000
  C   C2        1.0  0.3354987159143764  0.9080098741579056  0.7375639278467077  1.0000
  C   C3        1.0  0.5748852941293663  0.16205967536252794  0.2807873196624584  1.0000
  C   C4        1.0  0.42511325234952596  0.8379341265623098  0.7192117351070095  1.0000
  C   C5        1.0  0.4291881746552306  0.0848826635722233  0.2635257561381437  1.0000
  C   C6        1.0  0.5708118695515271  0.9151174793038097  0.7364723985871109  1.0000
  C   C7        1.0  0.37285011801413515  0.9377485657013339  0.22760297102902163  1.0000
  C   C8        1.0  0.6271445519793701  0.06224528556884932  0.77239633303315  1.0000
  C   C9        1.0  0.4618706270970779  0.8679606082572565  0.20774698101273262  1.0000
  C   C10       1.0  0.538122481773982  0.1320343264950736  0.7922515929830141  1.0000
  C   C11       1.0  0.6071126569700456  0.9446482344846034  0.2251307413368409  1.0000
  C   C12       1.0  0.3928858540083695  0.05534557165622542  0.7748675889266893  1.0000
  C   C13       1.0  0.8225075293022784  0.17224372047915185  0.2835860874311251  1.0000
  C   C14       1.0  0.17749505717014114  0.8277458038097478  0.7164105784557648  1.0000
  C   C15       1.0  0.33215576466155744  0.15919802551219686  0.2843784813053816  1.0000
  C   C16       1.0  0.6678444969133183  0.8408031951452914  0.7156155584303576  1.0000
  C   C17       1.0  0.1881324726512475  0.39982278721466014  0.5640595367597143  1.0000
  C   C18       1.0  0.8118717580105612  0.6001899988774326  0.435941283716069  1.0000
  C   C19       1.0  0.1945643539828198  0.4027787854924299  0.665548523549532  1.0000
  C   C20       1.0  0.8054382338024768  0.5972371982270988  0.334452636654774  1.0000
  C   C21       1.0  0.17351105680881326  0.2786964302863737  0.6933242820875734  1.0000
  C   C22       1.0  0.8264903001114237  0.7213184932580391  0.30668014979698915  1.0000
  C   C23       1.0  0.15018162458360962  0.1569334099268289  0.6167023664520032  1.0000
  C   C24       1.0  0.8498198603442976  0.8430772895429902  0.38329920133674034  1.0000
  C   C25       1.0  0.14778310971378522  0.16389243687859084  0.517333359449168  1.0000
  C   C26       1.0  0.8522185279691431  0.8361161400139352  0.4826685875565175  1.0000
  C   C27       1.0  0.17146657220883554  0.2749132365901303  0.8006218444774618  1.0000
  C   C28       1.0  0.828533387097103  0.7250985421458368  0.1993797177508085  1.0000
  C   C29       1.0  0.03713792174843182  0.2896461579612222  0.8248334682175624  1.0000
  C   C30       1.0  0.962866279800757  0.7103634235561246  0.1751725709706307  1.0000
  C   C31       1.0  0.04348774974366172  0.28923957677144335  0.9337524313602543  1.0000
  C   C32       1.0  0.9565140685883907  0.7107594573264537  0.06625080046708128  1.0000
  C   C33       1.0  0.9737564862384858  0.165751503739294  0.9568494503345875  1.0000
  C   C34       1.0  0.02623854312503237  0.8342434084483588  0.04314863676184189  1.0000
  C   C35       1.0  0.9909055475447347  0.16823462706328485  0.0594338379863331  1.0000
  C   C36       1.0  0.009087482718996542  0.8317529001196962  0.9405634680962793  1.0000
  C   C37       1.0  0.1404574766396608  0.4036888405057726  0.11659305523381391  1.0000
  C   C38       1.0  0.8595371997416952  0.5963018019736668  0.8834121920467057  1.0000
  C   C39       1.0  0.12665185570617152  0.41084474947420097  0.01636570623533371  1.0000
  C   C40       1.0  0.8733473233933895  0.5891521853534344  0.9836404464227898  1.0000
  C   C41       1.0  0.15091033352757688  0.5891178872933978  0.3800203790246428  1.0000
  C   C42       1.0  0.8490904358070568  0.4108811686268298  0.6199812849874888  1.0000
  C   C43       1.0  0.2094608326946458  0.734406264800427  0.4203317577337415  1.0000
  C   C44       1.0  0.7905399366399878  0.2655927911198006  0.5796699062783902  1.0000
  C   C45       1.0  0.35817633078966093  0.8077624457152626  0.45041545756024703  1.0000
  C   C46       1.0  0.6418254627950405  0.192234486885333  0.5495845309543128  1.0000
  C   C47       1.0  0.4412214419401864  0.7281045265513841  0.43874953085165913  1.0000
  C   C48       1.0  0.5587797330180564  0.27189348035702204  0.5612491218938516  1.0000
  C   C49       1.0  0.3752190791302113  0.5824384641742455  0.39811677166729004  1.0000
  C   C50       1.0  0.6247826789540128  0.41755847264234813  0.6018824923413248  1.0000
  C   C51       1.0  0.42045098204923925  0.9651200505298907  0.4930965783582765  1.0000
  C   C52       1.0  0.5795510644040506  0.0348779556361691  0.5069000196727131  1.0000
  N   N1        1.0  0.16517296523884545  0.2827523578135498  0.4906238673108163  1.0000
  N   N2        1.0  0.8348312654229633  0.7172604282785431  0.509376953164967  1.0000
  N   N3        1.0  0.07440282822530264  0.28435798254683686  0.1383244245781299  1.0000
  N   N4        1.0  0.9255951275212341  0.7156294734684607  0.8616742000269896  1.0000
  N   N5        1.0  0.23238393118794692  0.5139987732034399  0.368700871954907  1.0000
  N   N6        1.0  0.7676160775183406  0.48600137388858416  0.6312965582643953  1.0000
  O   O1        1.0  0.8741866020801654  0.30504934471832007  0.3131791174424805  1.0000
  O   O2        1.0  0.12581199704017385  0.6949391384864757  0.6868240862444566  1.0000
  O   O3        1.0  0.897481274438981  0.0975770681633108  0.2704301062971908  1.0000
  O   O4        1.0  0.10251477593350009  0.9024094077808089  0.7295580243752298  1.0000
  O   O5        1.0  0.37967401199890116  0.29196522768840083  0.3065219994041258  1.0000
  O   O6        1.0  0.6203370075370958  0.708035845675383  0.6934733471680448  1.0000
  O   O7        1.0  0.20310830640189445  0.08239513632962311  0.2782671949962321  1.0000
  O   O8        1.0  0.7968836589419727  0.9176083519718222  0.7217189945425561  1.0000
  O   O9        1.0  0.40074066769032163  0.7230100537093876  0.17130109559523274  1.0000
  O   O10       1.0  0.5992485463358507  0.27697962010024924  0.8287004275987969  1.0000
