data_image0
_chemical_formula_structural       Cd3H42C60N36
_chemical_formula_sum              "Cd3 H42 C60 N36"
_cell_length_a       11.583128604319125
_cell_length_b       11.60169429973274
_cell_length_c       11.4124
_cell_angle_alpha    98.84144621741905
_cell_angle_beta     98.85573132595329
_cell_angle_gamma    99.0238339362982

_space_group_name_H-M_alt    "P 1"
_space_group_IT_number       1

loop_
  _space_group_symop_operation_xyz
  'x, y, z'

loop_
  _atom_site_type_symbol
  _atom_site_label
  _atom_site_symmetry_multiplicity
  _atom_site_fract_x
  _atom_site_fract_y
  _atom_site_fract_z
  _atom_site_occupancy
  Cd  Cd1       1.0  0.9999993578881927  0.0  0.9999997244220253  1.0000
  Cd  Cd2       1.0  0.2475267293812351  0.2498639935593872  0.24832035053617568  1.0000
  Cd  Cd3       1.0  0.7524739948670245  0.7501369732254375  0.7516804394317445  1.0000
  H   H1        1.0  0.3413845904008426  0.24313946010951076  0.5456088353529012  1.0000
  H   H2        1.0  0.5446186601486929  0.3394442587866067  0.2418834240204006  1.0000
  H   H3        1.0  0.2445720530918081  0.5455881336016831  0.3393969859967783  1.0000
  H   H4        1.0  0.6586130195095165  0.7568588438452792  0.454391928172157  1.0000
  H   H5        1.0  0.4553848496929477  0.6605575956082248  0.7581188161255952  1.0000
  H   H6        1.0  0.7554286711564444  0.4544128331831416  0.660603803971142  1.0000
  H   H7        1.0  0.515278595079529  0.1344817928973256  0.2608719398825556  1.0000
  H   H8        1.0  0.2680929664162051  0.5184858494994629  0.13380602726815033  1.0000
  H   H9        1.0  0.1338515285697568  0.2683413711763336  0.5194994525702226  1.0000
  H   H10       1.0  0.4847170510987127  0.8655200614975129  0.7391246903662888  1.0000
  H   H11       1.0  0.7319115815380712  0.4815168925053825  0.8661947612923271  1.0000
  H   H12       1.0  0.8661491956785028  0.731659595608491  0.48050221363757817  1.0000
  H   H13       1.0  0.6380284390686555  0.0899503986021699  0.4742177918394503  1.0000
  H   H14       1.0  0.47982010712367174  0.6401620927556452  0.09094395736553199  1.0000
  H   H15       1.0  0.08721709757178789  0.4788327598295083  0.63961509525776  1.0000
  H   H16       1.0  0.3619700445820797  0.9100479053526203  0.5257769745284192  1.0000
  H   H17       1.0  0.5201839477138392  0.35983798641916565  0.9090554618382427  1.0000
  H   H18       1.0  0.9127808410830838  0.5211673193453024  0.3603851207719658  1.0000
  H   H19       1.0  0.7145414375541677  0.18848753645909977  0.6723616794112317  1.0000
  H   H20       1.0  0.6740442055306133  0.7138905307810148  0.19003001704935224  1.0000
  H   H21       1.0  0.1893961392493466  0.67197403558081  0.7163694717425811  1.0000
  H   H22       1.0  0.2854563886075496  0.8115072170556417  0.3276350581871768  1.0000
  H   H23       1.0  0.3259584305706511  0.2861113236138237  0.8099712103347869  1.0000
  H   H24       1.0  0.8106014706610125  0.32802426837398  0.2836304155425963  1.0000
  H   H25       1.0  0.7662775903091088  0.17013974990388903  0.8883502299305803  1.0000
  H   H26       1.0  0.8867335879469208  0.765837906725281  0.17073057888275395  1.0000
  H   H27       1.0  0.1711514720118004  0.8841083903659452  0.7706360382981358  1.0000
  H   H28       1.0  0.23372056459712104  0.8298567788308802  0.1116459601725026  1.0000
  H   H29       1.0  0.11326921252659619  0.2341648352795715  0.829270812873659  1.0000
  H   H30       1.0  0.8288445547900523  0.1158908011988586  0.22936549279513233  1.0000
  H   H31       1.0  0.6075478410187642  0.13079022285798914  0.006498683488857206  1.0000
  H   H32       1.0  0.0028229222385363086  0.6077030822318364  0.13008417553358947  1.0000
  H   H33       1.0  0.13132534164950732  0.0014743202297041002  0.6108090115547211  1.0000
  H   H34       1.0  0.39245080700423074  0.8692089687068149  0.993499752210809  1.0000
  H   H35       1.0  0.9971809163476096  0.392300547383023  0.8699183933569543  1.0000
  H   H36       1.0  0.8686736351179931  0.9985266465551207  0.3891923816091349  1.0000
  H   H37       1.0  0.3422798651870593  0.11194359947610623  0.6910050323775678  1.0000
  H   H38       1.0  0.6916165415801956  0.3422269161738001  0.11099043564416182  1.0000
  H   H39       1.0  0.11152610397066101  0.6923961667337437  0.3394171730795321  1.0000
  H   H40       1.0  0.6577177447232999  0.888054704478684  0.30899222618796784  1.0000
  H   H41       1.0  0.308387842001828  0.6577749382210385  0.889011064783922  1.0000
  H   H42       1.0  0.8884756583902275  0.3076056876610949  0.6605830415427576  1.0000
  C   C1        1.0  0.40407878398522007  0.2079643629494043  0.4953540004815834  1.0000
  C   C2        1.0  0.49647487918264244  0.4033202256802966  0.2069051061521066  1.0000
  C   C3        1.0  0.20855634337640794  0.49707492079330967  0.4034184924023235  1.0000
  C   C4        1.0  0.5959189902973918  0.7920348286153996  0.5046451749359876  1.0000
  C   C5        1.0  0.5035274281741168  0.5966798534945141  0.793094916247604  1.0000
  C   C6        1.0  0.7914442164995917  0.5029251583815012  0.5965830094332034  1.0000
  C   C7        1.0  0.49922912297626  0.1529360926539596  0.3525220975894001  1.0000
  C   C8        1.0  0.3578676198901293  0.5011064454671939  0.15260350545515422  1.0000
  C   C9        1.0  0.152353684612919  0.35800507174467106  0.5016486987865604  1.0000
  C   C10       1.0  0.5007679419382214  0.8470639865208514  0.6474753531987218  1.0000
  C   C11       1.0  0.6421357255792586  0.49889452131763085  0.8473968178388063  1.0000
  C   C12       1.0  0.847647749003464  0.6419950074301398  0.49835293957093535  1.0000
  C   C13       1.0  0.5599139726926267  0.1293691592289932  0.4565675413975184  1.0000
  C   C14       1.0  0.4613611490806234  0.5614230962133107  0.12989875861319428  1.0000
  C   C15       1.0  0.127765032579056  0.4607965243884565  0.561118249066439  1.0000
  C   C16       1.0  0.44008188973697326  0.8706291447257968  0.5434294441240723  1.0000
  C   C17       1.0  0.5386430701291403  0.438577870571514  0.8701017012027349  1.0000
  C   C18       1.0  0.8722336154439317  0.5392026671763405  0.4388819391129886  1.0000
  C   C19       1.0  0.5260188089566356  0.15318107301723674  0.6699774875694188  1.0000
  C   C20       1.0  0.670971123693441  0.5255299225536093  0.15354844797371212  1.0000
  C   C21       1.0  0.1530950631920973  0.6703710118993841  0.5254289039562394  1.0000
  C   C22       1.0  0.4739803840622301  0.8468163433275393  0.33001987966779467  1.0000
  C   C23       1.0  0.32903222177595376  0.47447104423121544  0.8464536278000026  1.0000
  C   C24       1.0  0.8469027110905145  0.3296281796654199  0.4745702714613316  1.0000
  C   C25       1.0  0.645114719816668  0.16812753800699204  0.724143373457295  1.0000
  C   C26       1.0  0.7247648307675404  0.6445424481641879  0.16909872665729608  1.0000
  C   C27       1.0  0.1687097916620388  0.7232956464667097  0.6464690506121328  1.0000
  C   C28       1.0  0.35488414445768507  0.8318681031177634  0.2758536650353633  1.0000
  C   C29       1.0  0.2752367672210951  0.35545851862063677  0.8309030760724808  1.0000
  C   C30       1.0  0.831287982620573  0.2767035450980941  0.35353100104531876  1.0000
  C   C31       1.0  0.6738021006951271  0.1581383749334861  0.8446239417524168  1.0000
  C   C32       1.0  0.8435224356566168  0.673420839900146  0.15869537044385856  1.0000
  C   C33       1.0  0.1589734777005063  0.8417258999095054  0.6766197400863659  1.0000
  C   C34       1.0  0.3261960542111026  0.841858153801276  0.1553731245905468  1.0000
  C   C35       1.0  0.15647965544877707  0.3265827897147204  0.8413069254027403  1.0000
  C   C36       1.0  0.8410253346947415  0.15827417926530532  0.3233814887052162  1.0000
  C   C37       1.0  0.584537526132614  0.1368605877291174  0.9117257071133905  1.0000
  C   C38       1.0  0.9094732432267705  0.584473440611376  0.1365898320475978  1.0000
  C   C39       1.0  0.1373090810345587  0.9083090773393822  0.5867769927968283  1.0000
  C   C40       1.0  0.4154597550332327  0.863135941005652  0.0882720989474777  1.0000
  C   C41       1.0  0.09053043098712982  0.4155293013934696  0.8634143249504331  1.0000
  C   C42       1.0  0.8626886932480531  0.09169011422542181  0.4132221826207497  1.0000
  C   C43       1.0  0.4644354993899711  0.12199667047046603  0.8576030289955767  1.0000
  C   C44       1.0  0.8562256694030809  0.46438069361636286  0.12149674207527993  1.0000
  C   C45       1.0  0.12222375559760931  0.8558699654485409  0.4646634350570266  1.0000
  C   C46       1.0  0.5355615655245174  0.8780034087043519  0.1423944217925452  1.0000
  C   C47       1.0  0.14377887855118837  0.5356220483884897  0.8785049227250781  1.0000
  C   C48       1.0  0.8777750567976385  0.1441301137262698  0.5353351650149136  1.0000
  C   C49       1.0  0.43526543500425424  0.12790726553945583  0.7348132558915877  1.0000
  C   C50       1.0  0.7349619412662207  0.4351188543552809  0.12753093422792008  1.0000
  C   C51       1.0  0.1277888181413616  0.7349295508921969  0.4339550877151339  1.0000
  C   C52       1.0  0.5647320105338522  0.8720901508053203  0.26518296206180025  1.0000
  C   C53       1.0  0.2650417329476724  0.5648838876495647  0.8724714702903495  1.0000
  C   C54       1.0  0.8722126154750215  0.26507052828262095  0.5660456744024811  1.0000
  C   C55       1.0  0.37148589640003143  0.10688777284853762  0.9303030200939304  1.0000
  C   C56       1.0  0.9290301221404887  0.3724562503478097  0.10661603883360724  1.0000
  C   C57       1.0  0.10714098403465043  0.9294865646124111  0.37211470025734167  1.0000
  C   C58       1.0  0.6285111685144571  0.8931123063262805  0.06969618317394581  1.0000
  C   C59       1.0  0.07097426144153468  0.6275456040470289  0.8933854615944766  1.0000
  C   C60       1.0  0.8928604495817255  0.0705135145623998  0.6278869381001541  1.0000
  N   N1        1.0  0.40297689619369953  0.2025614808071978  0.3783304797770412  1.0000
  N   N2        1.0  0.3812366725529373  0.4033406407105744  0.20115916460023436  1.0000
  N   N3        1.0  0.2032981512626435  0.38214895167735113  0.40416496517799766  1.0000
  N   N4        1.0  0.5970191306081531  0.797437710757606  0.621668422596592  1.0000
  N   N5        1.0  0.6187670016609558  0.5966621012942781  0.7988432399180282  1.0000
  N   N6        1.0  0.7967015348729803  0.6178511274974667  0.5958355238956798  1.0000
  N   N7        1.0  0.4979194153911166  0.1637267675681784  0.5469050798866846  1.0000
  N   N8        1.0  0.5492062669552382  0.49780364861305065  0.1638091477097205  1.0000
  N   N9        1.0  0.1629691157636657  0.5488580888853819  0.4972435008765643  1.0000
  N   N10       1.0  0.5020771564066067  0.8362706487765976  0.45309275402448174  1.0000
  N   N11       1.0  0.4507970785141495  0.502197318171774  0.8361929280640011  1.0000
  N   N12       1.0  0.8370295322593223  0.45114110267941504  0.5027566873028562  1.0000
  N   N13       1.0  0.2546357674436024  0.0643224347296538  0.8870011950700057  1.0000
  N   N14       1.0  0.8877956932218966  0.25561481882624554  0.06318968001104959  1.0000
  N   N15       1.0  0.06325486910297677  0.8892787186850413  0.25358526369041806  1.0000
  N   N16       1.0  0.7453620068390094  0.9356767568351431  0.11299710410769133  1.0000
  N   N17       1.0  0.1122069428793679  0.7443870355685931  0.9368106711332087  1.0000
  N   N18       1.0  0.9367467288856589  0.11072224809978341  0.746415662799471  1.0000
  N   N19       1.0  0.20359318868705154  0.073416886911204  0.9840998425121724  1.0000
  N   N20       1.0  0.9842122951582868  0.20590510772188253  0.07298491740625228  1.0000
  N   N21       1.0  0.07246133655220183  0.9863690522226352  0.2041396764307777  1.0000
  N   N22       1.0  0.7964064974485722  0.926583192263607  0.015899770321624436  1.0000
  N   N23       1.0  0.015789302830341974  0.7940958590629421  0.9270142566038827  1.0000
  N   N24       1.0  0.9275392233237981  0.0136310269521758  0.7958609491648687  1.0000
  N   N25       1.0  0.2859225793920714  0.12038832112897072  0.0821280994425635  1.0000
  N   N26       1.0  0.08001941693184729  0.2891433994143497  0.12136944938441728  1.0000
  N   N27       1.0  0.12075494107003952  0.0815615963800553  0.28890841731647743  1.0000
  N   N28       1.0  0.7140778161116756  0.8796108704358333  0.9178714855409282  1.0000
  N   N29       1.0  0.9199828904249043  0.7108566797604681  0.8786314492551738  1.0000
  N   N30       1.0  0.879244909437837  0.9184393704047695  0.7110922361294739  1.0000
  N   N31       1.0  0.39234971937785457  0.1422164265406991  0.05131715823211642  1.0000
  N   N32       1.0  0.04838814829204809  0.3946935439750021  0.14333689291212437  1.0000
  N   N33       1.0  0.1433857646020229  0.0487422161914282  0.3954812580890206  1.0000
  N   N34       1.0  0.6076499667577693  0.8577836526341188  0.9486815783617998  1.0000
  N   N35       1.0  0.9516160709177157  0.6053074228098225  0.8566644431436855  1.0000
  N   N36       1.0  0.8566140859058535  0.9512587505933967  0.604519395356931  1.0000
