data_image0
_chemical_formula_structural       K4In4H44C36Br12
_chemical_formula_sum              "K4 In4 H44 C36 Br12"
_cell_length_a       8.795017124598443
_cell_length_b       10.165383164158548
_cell_length_c       15.996675385087254
_cell_angle_alpha    89.99959867710268
_cell_angle_beta     99.17303166047783
_cell_angle_gamma    90.00055105767802

_space_group_name_H-M_alt    "P 1"
_space_group_IT_number       1

loop_
  _space_group_symop_operation_xyz
  'x, y, z'

loop_
  _atom_site_type_symbol
  _atom_site_label
  _atom_site_symmetry_multiplicity
  _atom_site_fract_x
  _atom_site_fract_y
  _atom_site_fract_z
  _atom_site_occupancy
  K   K1        1.0  0.25474344093103696  0.8549719159236489  0.42401393343889293  1.0000
  K   K2        1.0  0.24525385738980532  0.3549623470087583  0.5759847468662758  1.0000
  K   K3        1.0  0.7452664217603698  0.1450195494536075  0.5759883123519317  1.0000
  K   K4        1.0  0.7547330324114797  0.6450350207002062  0.4240097852548957  1.0000
  In  In1       1.0  0.7926244282391579  0.05740028784280331  0.3127994569479996  1.0000
  In  In2       1.0  0.7073763860769589  0.5573898607435694  0.6872041610007786  1.0000
  In  In3       1.0  0.20736926273289671  0.9426049496821636  0.6872056953848547  1.0000
  In  In4       1.0  0.29262425610079384  0.44260947444271886  0.3127978721084761  1.0000
  H   H1        1.0  0.5444939475212394  0.46278386893165196  0.13554151999960604  1.0000
  H   H2        1.0  0.955511005225077  0.9627774889074846  0.8644581432454149  1.0000
  H   H3        1.0  0.45550443899443854  0.5372174337318756  0.8644559321626561  1.0000
  H   H4        1.0  0.044494257463874504  0.037221846302458096  0.13554305941618597  1.0000
  H   H5        1.0  0.3759325461236784  0.08570592194089949  0.0407709519182262  1.0000
  H   H6        1.0  0.12407124891241492  0.5857056004867901  0.9592282840358239  1.0000
  H   H7        1.0  0.6240658267361353  0.9142934132542422  0.9592277492893901  1.0000
  H   H8        1.0  0.8759340342553372  0.414295702194984  0.04077104505951469  1.0000
  H   H9        1.0  0.8270578061403738  0.3287605834854901  0.3140015096623544  1.0000
  H   H10       1.0  0.672943477192554  0.828756770871941  0.6859990503705691  1.0000
  H   H11       1.0  0.1729359598641054  0.6712407191543904  0.6859967729475616  1.0000
  H   H12       1.0  0.3270606064982715  0.1712445317815252  0.31400454572259673  1.0000
  H   H13       1.0  0.6802126600482199  0.4501229402827036  0.29545350424498923  1.0000
  H   H14       1.0  0.8197909716539513  0.9501181717665617  0.7045498469669486  1.0000
  H   H15       1.0  0.31978568552979425  0.549878362360147  0.7045476950427345  1.0000
  H   H16       1.0  0.1802073670911426  0.04988116341134939  0.29545197684522156  1.0000
  H   H17       1.0  0.8260605714488707  0.44316105106444353  0.23079691137195377  1.0000
  H   H18       1.0  0.6739418515854894  0.943157319687856  0.7692051111630253  1.0000
  H   H19       1.0  0.17393666332554147  0.5568353329411482  0.7692004361506053  1.0000
  H   H20       1.0  0.3260622184444769  0.056841031766467195  0.23079973397727124  1.0000
  H   H21       1.0  0.2708899464477525  0.2773616546748415  0.9687141417856185  1.0000
  H   H22       1.0  0.22911115807123394  0.7773615380506058  0.03128648500556611  1.0000
  H   H23       1.0  0.7291095849463431  0.7226366967971886  0.031284039551394485  1.0000
  H   H24       1.0  0.7708918148209706  0.22263582969635107  0.968713259320673  1.0000
  H   H25       1.0  0.39999316841387866  0.41251989339221495  0.9712874952958688  1.0000
  H   H26       1.0  0.10000931358852941  0.9125157859152324  0.028712021334804702  1.0000
  H   H27       1.0  0.600007514701538  0.5874794418147503  0.028710790687924287  1.0000
  H   H28       1.0  0.8999947973791078  0.0874825655597675  0.9712890766800232  1.0000
  H   H29       1.0  0.25823250817029475  0.410953394197797  0.03849314639782621  1.0000
  H   H30       1.0  0.24177108922225443  0.910955005050397  0.9615083540625522  1.0000
  H   H31       1.0  0.7417670300517331  0.5890459410084219  0.9615044104165168  1.0000
  H   H32       1.0  0.7582353115321466  0.08904334642609513  0.038494202291182895  1.0000
  H   H33       1.0  0.6271826488129548  0.8898970948279654  0.20529355912804456  1.0000
  H   H34       1.0  0.8728169579330685  0.3898970079741346  0.7947059474062004  1.0000
  H   H35       1.0  0.37281687575819694  0.11010125664061832  0.7947052467298836  1.0000
  H   H36       1.0  0.12718487008570634  0.610104294695077  0.2052930677435115  1.0000
  H   H37       1.0  0.5724846790619154  0.889192142685289  0.09401520266335692  1.0000
  H   H38       1.0  0.9275137551339511  0.389184404095495  0.9059854508109314  1.0000
  H   H39       1.0  0.42751368699490655  0.11081112742940041  0.9059841230581045  1.0000
  H   H40       1.0  0.07248803876511542  0.6108159148257357  0.09401668694510333  1.0000
  H   H41       1.0  0.4304886938156542  0.8991032646394501  0.16013016167288197  1.0000
  H   H42       1.0  0.06951018335488611  0.3991041096443339  0.8398703382533345  1.0000
  H   H43       1.0  0.5695085204899257  0.1008931193558027  0.8398690594124008  1.0000
  H   H44       1.0  0.9304927895373183  0.600893258102623  0.16012940607289755  1.0000
  C   C1        1.0  0.6516178800795982  0.15710138232070392  0.20935276371695727  1.0000
  C   C2        1.0  0.8483851516605654  0.6570959079033686  0.7906456044610268  1.0000
  C   C3        1.0  0.34838510647346504  0.8428989366253886  0.7906457315621583  1.0000
  C   C4        1.0  0.1516132007254356  0.3429024435506776  0.20935497031108247  1.0000
  C   C5        1.0  0.6497650289038929  0.29541394878639693  0.20373724330527665  1.0000
  C   C6        1.0  0.8502347713536336  0.7954094119368806  0.7962627073796826  1.0000
  C   C7        1.0  0.3502310473561821  0.704587353865307  0.7962606240808088  1.0000
  C   C8        1.0  0.1497681810797147  0.2045899232612314  0.20373891050574855  1.0000
  C   C9        1.0  0.5477527586859949  0.35534866314426244  0.13858161152980136  1.0000
  C   C10       1.0  0.9522441737655213  0.8553432731305931  0.8614196834180635  1.0000
  C   C11       1.0  0.4522398487692385  0.6446506720264793  0.8614171909560118  1.0000
  C   C12       1.0  0.0477622201609478  0.14465409461170253  0.13858349745834186  1.0000
  C   C13       1.0  0.4491565885527394  0.28182651360985034  0.07883532742219053  1.0000
  C   C14       1.0  0.0508434095174408  0.7818240356643926  0.9211651786816905  1.0000
  C   C15       1.0  0.5508383359760528  0.7181718378454177  0.9211624353206533  1.0000
  C   C16       1.0  0.9491641497712493  0.2181733320889805  0.07883685780144842  1.0000
  C   C17       1.0  0.4540660970313368  0.14501217499651634  0.08567879599529962  1.0000
  C   C18       1.0  0.04593483745978941  0.6450087476301007  0.9143205374420593  1.0000
  C   C19       1.0  0.5459311241121511  0.8549871601944333  0.9143198005637745  1.0000
  C   C20       1.0  0.9540715974093319  0.35498960386361494  0.08567889630712244  1.0000
  C   C21       1.0  0.5536430915710113  0.0807431367196543  0.15013367775738123  1.0000
  C   C22       1.0  0.9463568419063152  0.580739791911455  0.8498666290507163  1.0000
  C   C23       1.0  0.44635412275950875  0.9192581659293424  0.8498655433190623  1.0000
  C   C24       1.0  0.0536461173549654  0.41926052702085304  0.15013436431203797  1.0000
  C   C25       1.0  0.7517746420491845  0.38294148179920734  0.2644556760671081  1.0000
  C   C26       1.0  0.7482248736705371  0.8829377495388825  0.7355457290291272  1.0000
  C   C27       1.0  0.2482214137520415  0.6170617883036585  0.735544064878177  1.0000
  C   C28       1.0  0.25177576169923543  0.11706453683621022  0.2644569285957347  1.0000
  C   C29       1.0  0.33907914051302174  0.34869454635894925  0.010496300560348006  1.0000
  C   C30       1.0  0.16092384594757192  0.8486932146100443  0.9895035500493211  1.0000
  C   C31       1.0  0.6609192459926801  0.651304788843085  0.9895011516054528  1.0000
  C   C32       1.0  0.8390825548118171  0.1513061205971979  0.010499006302651992  1.0000
  C   C33       1.0  0.5465831883618789  0.9328447645390058  0.15304106954334884  1.0000
  C   C34       1.0  0.9534156817298509  0.43284182119194975  0.8469600515918645  1.0000
  C   C35       1.0  0.45341401913572094  0.06715457064504449  0.8469587760575481  1.0000
  C   C36       1.0  0.04658727752146061  0.5671565302788579  0.15304094177442107  1.0000
  Br  Br1       1.0  0.6182636419730088  0.9516073079703631  0.414937308123328  1.0000
  Br  Br2       1.0  0.8817296734661539  0.45160565465308633  0.5850619733079869  1.0000
  Br  Br3       1.0  0.38174167530946335  0.0483939947286487  0.5850588983674573  1.0000
  Br  Br4       1.0  0.1182606169304918  0.5483976154253867  0.4149378689154944  1.0000
  Br  Br5       1.0  0.9382801807535229  0.8447309570205308  0.28034462137372884  1.0000
  Br  Br6       1.0  0.5617201469232712  0.34472419986776975  0.7196526540270869  1.0000
  Br  Br7       1.0  0.061727419502752  0.15527231313802053  0.7196536679733331  1.0000
  Br  Br8       1.0  0.43827363954006426  0.6552751353209416  0.28034375502362263  1.0000
  Br  Br9       1.0  0.9988231933435473  0.1596160349460973  0.4284463022582374  1.0000
  Br  Br10      1.0  0.5011775058798591  0.659610086834192  0.571556843755211  1.0000
  Br  Br11      1.0  0.0011751795661467993  0.8403931375565393  0.5715523989317007  1.0000
  Br  Br12      1.0  0.498819653892049  0.34039613444098654  0.428447373479685  1.0000
