data_image0
_chemical_formula_structural       Cd4H8C8N16O12
_chemical_formula_sum              "Cd4 H8 C8 N16 O12"
_cell_length_a       8.862220485570253
_cell_length_b       8.864296685447147
_cell_length_c       10.20192833075569
_cell_angle_alpha    103.24102875733804
_cell_angle_beta     103.23613871430008
_cell_angle_gamma    118.2108707764405

_space_group_name_H-M_alt    "P 1"
_space_group_IT_number       1

loop_
  _space_group_symop_operation_xyz
  'x, y, z'

loop_
  _atom_site_type_symbol
  _atom_site_label
  _atom_site_symmetry_multiplicity
  _atom_site_fract_x
  _atom_site_fract_y
  _atom_site_fract_z
  _atom_site_occupancy
  Cd  Cd1       1.0  0.9630591181556837  0.4630886541800693  0.9260582643372146  1.0000
  Cd  Cd2       1.0  0.7129566385455631  0.713004332418933  0.42605429172088805  1.0000
  Cd  Cd3       1.0  0.237135197131181  0.23711712868292525  0.47428069619262203  1.0000
  Cd  Cd4       1.0  0.48715566725820025  0.987153476048789  0.9742543269023188  1.0000
  H   H1        1.0  0.33949059603079945  0.6116444803908935  0.6108680803086487  1.0000
  H   H2        1.0  0.27150056042238907  0.9992676214798524  0.6108543811855756  1.0000
  H   H3        1.0  0.8615376740531175  0.08933221308512174  0.11090964628071022  1.0000
  H   H4        1.0  0.24934713473484052  0.021482157999244605  0.11097257652603083  1.0000
  H   H5        1.0  0.18792367410225105  0.46573122652775834  0.6569018958139311  1.0000
  H   H6        1.0  0.46910673764288185  0.19123705477575478  0.6569322605167898  1.0000
  H   H7        1.0  0.7155932593456457  0.937769492161735  0.15693880321903467  1.0000
  H   H8        1.0  0.4413017198422081  0.21907411374012042  0.1569823403344017  1.0000
  C   C1        1.0  0.8050138478458349  0.06335842028272512  0.6917550584148914  1.0000
  C   C2        1.0  0.8866809122482024  0.6283088103228565  0.6916501607504132  1.0000
  C   C3        1.0  0.31326703089306573  0.5549399740917808  0.19176282524778548  1.0000
  C   C4        1.0  0.8784716785745204  0.6369024041287261  0.19181696550084137  1.0000
  C   C5        1.0  0.9729230992603987  0.1778000402343239  0.6647346059220355  1.0000
  C   C6        1.0  0.6918134440675062  0.4868391151053404  0.6646713137195379  1.0000
  C   C7        1.0  0.4278795430745959  0.7228525537166206  0.16484430353904148  1.0000
  C   C8        1.0  0.7369494484662198  0.4420549259318706  0.1648756307319062  1.0000
  N   N1        1.0  0.7623432752398783  0.13194526438884685  0.7977100752888122  1.0000
  N   N2        1.0  0.035320075829851395  0.665724604878804  0.7976236633035259  1.0000
  N   N3        1.0  0.38177038195677687  0.5122516097344487  0.2977345506975625  1.0000
  N   N4        1.0  0.9159085472432197  0.7855384412553267  0.2977655202660047  1.0000
  N   N5        1.0  0.6000896038196546  0.9892209523938293  0.7826964646327641  1.0000
  N   N6        1.0  0.1825459333152823  0.7934899820337908  0.7826302392704891  1.0000
  N   N7        1.0  0.23902761403370937  0.34997772141924344  0.28264167310131694  1.0000
  N   N8        1.0  0.043589299276462254  0.9327055795186185  0.28266758666065783  1.0000
  N   N9        1.0  0.5462302697104846  0.8381771851167771  0.6719176870760465  1.0000
  N   N10       1.0  0.12560198396331396  0.8337233353555574  0.671822100514973  1.0000
  N   N11       1.0  0.08799232898927302  0.2961242054282067  0.17182246611218943  1.0000
  N   N12       1.0  0.08381839162626649  0.8757314964060116  0.17186164043828003  1.0000
  N   N13       1.0  0.6729750852703092  0.8821363178875147  0.6129953808384202  1.0000
  N   N14       1.0  0.9399371426934807  0.7307676548300536  0.6128730331837249  1.0000
  N   N15       1.0  0.13199539682854325  0.42290514119048345  0.11295798767930172  1.0000
  N   N16       1.0  0.9809362348790174  0.6901076947298324  0.11300649986497296  1.0000
  O   O1        1.0  0.07956578461840987  0.3485872331059738  0.7514185974814893  1.0000
  O   O2        1.0  0.6719222410021715  0.40286519559133194  0.7514522652178786  1.0000
  O   O3        1.0  0.5986617787262746  0.8294770220515488  0.2515436805508955  1.0000
  O   O4        1.0  0.6528668485852551  0.42212695033630626  0.25158099565653913  1.0000
  O   O5        1.0  0.9915637503579688  0.09518461467029482  0.5567170780248318  1.0000
  O   O6        1.0  0.5651505815656395  0.4613993823365379  0.5566256188736675  1.0000
  O   O7        1.0  0.3453153740085569  0.7413080418967939  0.05664684356420928  1.0000
  O   O8        1.0  0.7114399869636047  0.31541197612384764  0.05674849643820326  1.0000
  O   O9        1.0  0.2219529319520248  0.4861667677453028  0.5729867318168688  1.0000
  O   O10       1.0  0.3511905110168314  0.08688528155168032  0.5729960644269527  1.0000
  O   O11       1.0  0.7360190351495178  0.9718389534377255  0.073029419836054  1.0000
  O   O12       1.0  0.33699988793385666  0.10109713827790051  0.07308537106992928  1.0000
