data_image0
_chemical_formula_structural       Al4H28C57O21
_chemical_formula_sum              "Al4 H28 C57 O21"
_cell_length_a       6.676956089152183
_cell_length_b       22.62685261576029
_cell_length_c       25.048631747482005
_cell_angle_alpha    72.27754361446615
_cell_angle_beta     89.80840702394178
_cell_angle_gamma    89.52950800184264

_space_group_name_H-M_alt    "P 1"
_space_group_IT_number       1

loop_
  _space_group_symop_operation_xyz
  'x, y, z'

loop_
  _atom_site_type_symbol
  _atom_site_label
  _atom_site_symmetry_multiplicity
  _atom_site_fract_x
  _atom_site_fract_y
  _atom_site_fract_z
  _atom_site_occupancy
  Al  Al1       1.0  0.8675328519169554  0.4998633284185914  0.5000778332599083  1.0000
  Al  Al2       1.0  0.3675887126096669  0.5003878238077917  0.5001301808746348  1.0000
  Al  Al3       1.0  0.32194322389158714  0.00045690189854500176  0.9994324074981334  1.0000
  Al  Al4       1.0  0.8222407247254891  0.9997516771384554  5.905170380768219e-05  1.0000
  H   H1        1.0  0.39685797511954507  0.9052846559786188  0.8868764825758434  1.0000
  H   H2        1.0  0.40513011197852933  0.8424497647081851  0.8208429365757581  1.0000
  H   H3        1.0  0.7641200091873442  0.8222054916565041  0.8354025995844196  1.0000
  H   H4        1.0  0.7577858028539238  0.8878716236701362  0.8990543540501578  1.0000
  H   H5        1.0  0.8019736287133623  0.8188949404246346  0.7476137374132391  1.0000
  H   H6        1.0  0.8112902349190775  0.7535922253727065  0.6854260670367791  1.0000
  H   H7        1.0  0.3890479877488886  0.6815733077263957  0.7519654792607895  1.0000
  H   H8        1.0  0.37970815928038343  0.7468331884440644  0.8142103458887605  1.0000
  H   H9        1.0  0.42637693371975877  0.6778905094825731  0.6640527539680151  1.0000
  H   H10       1.0  0.43101157499694415  0.6120599847341239  0.6005392418550385  1.0000
  H   H11       1.0  0.7923054184782359  0.5944356831211763  0.613795730895326  1.0000
  H   H12       1.0  0.7854500783880098  0.6577119794458782  0.679478744727021  1.0000
  H   H13       1.0  0.8669458653816376  0.13227410581772858  0.07765556532696391  1.0000
  H   H14       1.0  0.8844091886650318  0.19964029949684908  0.1390084533281808  1.0000
  H   H15       1.0  0.2963300461486115  0.13767642579049513  0.20288897590885574  1.0000
  H   H16       1.0  0.28673444463177594  0.244105606413612  0.19904165709447594  1.0000
  H   H17       1.0  0.2968380241773544  0.3091774160733464  0.26151561819363417  1.0000
  H   H18       1.0  0.9165759729093993  0.2583727900199122  0.29884260699066795  1.0000
  H   H19       1.0  0.907518766234162  0.19488452074583765  0.23479081254371434  1.0000
  H   H20       1.0  0.9265915285574308  0.3494425747357539  0.3118777433123724  1.0000
  H   H21       1.0  0.9325506667519646  0.4112372014107423  0.3784833346288393  1.0000
  H   H22       1.0  0.3030551215899067  0.3806907010896979  0.40894818311066666  1.0000
  H   H23       1.0  0.29727659217986974  0.3147946472547858  0.3459326395709538  1.0000
  H   H24       1.0  0.24279219667766233  0.020150528092933905  0.1299753566479041  1.0000
  H   H25       1.0  0.6169170261363489  0.5816037464546682  0.4775287935594932  1.0000
  H   H26       1.0  0.12059603440633992  0.41854053011893194  0.5201306798922545  1.0000
  H   H27       1.0  0.5728294882449988  0.9188451127424313  0.02402017053118757  1.0000
  H   H28       1.0  0.06881954519912631  0.08128164474348408  0.9744672956947653  1.0000
  C   C1        1.0  0.6169689731519838  0.4147086297676098  0.5865014879661814  1.0000
  C   C2        1.0  0.6209453819984819  0.4370325057815378  0.4375102502654258  1.0000
  C   C3        1.0  0.11713906697740843  0.5857271343718295  0.4136771557301486  1.0000
  C   C4        1.0  0.1136295153073732  0.5627363319237942  0.563032765631533  1.0000
  C   C5        1.0  0.25933376274905134  0.8868154911493846  0.8751233009362451  1.0000
  C   C6        1.0  0.2628732454795042  0.8511925323441646  0.8386947567684047  1.0000
  C   C7        1.0  0.08529562319377251  0.827239782686007  0.8235045363772214  1.0000
  C   C8        1.0  0.9032170059903634  0.8412510216171185  0.8456569502668855  1.0000
  C   C9        1.0  0.898684192186998  0.8774048495200759  0.8816666334899563  1.0000
  C   C10       1.0  0.07701460416171103  0.9001578596277254  0.8970758357918952  1.0000
  C   C11       1.0  0.9301913104616943  0.7881427921854467  0.7495068988750404  1.0000
  C   C12       1.0  0.935362538304787  0.7510740406286587  0.7142752182908862  1.0000
  C   C13       1.0  0.10076577719186021  0.7122962924360223  0.7137254960207926  1.0000
  C   C14       1.0  0.2610291169657941  0.7124075854957325  0.7500426535118905  1.0000
  C   C15       1.0  0.2557882847476947  0.7494396482802372  0.785296742241961  1.0000
  C   C16       1.0  0.09035895829233455  0.7882097965847166  0.7858527209248861  1.0000
  C   C17       1.0  0.28697757766330073  0.6587736241249971  0.654078290370826  1.0000
  C   C18       1.0  0.29054291882776784  0.622546006272195  0.6181223198173527  1.0000
  C   C19       1.0  0.11178582857903051  0.5997497505503305  0.6029975612998725  1.0000
  C   C20       1.0  0.9300477803848821  0.6130550936353814  0.6252459698538428  1.0000
  C   C21       1.0  0.9273381201827533  0.648897396859425  0.6614857860962715  1.0000
  C   C22       1.0  0.10530635130553628  0.6729725755005518  0.676318861607612  1.0000
  C   C23       1.0  0.0777300568652848  0.8640813864440703  0.13772460309198203  1.0000
  C   C24       1.0  0.0844675924357503  0.8203039686743097  0.1810212249286138  1.0000
  C   C25       1.0  0.09220950826041023  0.7722909610919187  0.22822311742741158  1.0000
  C   C26       1.0  0.0997702924001871  0.7279867669071294  0.2715459268558575  1.0000
  C   C27       1.0  0.10725132039229379  0.6800320022862323  0.3188059296164454  1.0000
  C   C28       1.0  0.1136115985461572  0.6362999327531469  0.3621382823976589  1.0000
  C   C29       1.0  0.6162229281729806  0.36400354248717554  0.637937551567667  1.0000
  C   C30       1.0  0.6097713328070782  0.32024831850506524  0.6812185296344211  1.0000
  C   C31       1.0  0.6014317516268335  0.2722735910903181  0.7283914123148492  1.0000
  C   C32       1.0  0.5918384331284302  0.22796664734610766  0.7716478070489003  1.0000
  C   C33       1.0  0.5823443278683628  0.1799375242485297  0.8187622149853268  1.0000
  C   C34       1.0  0.5739499850594071  0.13619693019485624  0.8620217805132169  1.0000
  C   C35       1.0  0.7414696074436832  0.1345999154245234  0.10480098944326949  1.0000
  C   C36       1.0  0.7505259838496343  0.17225911816913  0.13937183986409  1.0000
  C   C37       1.0  0.5889417975771352  0.1755693897461157  0.1745160200537796  1.0000
  C   C38       1.0  0.4207798450647644  0.1390903264804422  0.1741879339186028  1.0000
  C   C39       1.0  0.40966693831119017  0.10051598147180131  0.13997845894933653  1.0000
  C   C40       1.0  0.5718658393741478  0.0988951951526715  0.1038956858615165  1.0000
  C   C41       1.0  0.4251521472108096  0.24676148001363174  0.22121922235231747  1.0000
  C   C42       1.0  0.4308494134249443  0.28333753839795145  0.2568102739442182  1.0000
  C   C43       1.0  0.6074492880161771  0.2890268315658133  0.28535951148606387  1.0000
  C   C44       1.0  0.7787564219024221  0.25678916758278086  0.2760775123587108  1.0000
  C   C45       1.0  0.7739651376562763  0.22077309048838598  0.23989905806919148  1.0000
  C   C46       1.0  0.5966506593495638  0.21477690402314656  0.2119372245489046  1.0000
  C   C47       1.0  0.7899218193569907  0.3547704433730203  0.334007401757681  1.0000
  C   C48       1.0  0.7939992018639899  0.3900332392047474  0.3707655614901455  1.0000
  C   C49       1.0  0.61822323617573  0.3997549160493463  0.3978020996498159  1.0000
  C   C50       1.0  0.4389854618564684  0.37318248670699466  0.3876035060405343  1.0000
  C   C51       1.0  0.4364885476154114  0.33699245017750457  0.3516757543381602  1.0000
  C   C52       1.0  0.6115139337379035  0.32716455116946  0.3238377386095905  1.0000
  C   C53       1.0  0.5710148765464355  0.062480571779737204  0.0632064984145018  1.0000
  C   C54       1.0  0.5708919487068372  0.08555024502260979  0.9133875531319189  1.0000
  C   C55       1.0  0.07374806450764032  0.9371751539134221  0.9370318791044455  1.0000
  C   C56       1.0  0.07468366754361712  0.9147706935826175  0.08640605651311978  1.0000
  C   C57       1.0  0.23368362510166207  0.05856201746716041  0.14865681565517258  1.0000
  O   O1        1.0  0.4517515393807868  0.4497027100058729  0.45541901059033296  1.0000
  O   O2        1.0  0.7872859416640169  0.43284909369328534  0.5651032598354604  1.0000
  O   O3        1.0  0.9443700917521625  0.5469521601113813  0.5484618943876853  1.0000
  O   O4        1.0  0.791348849531289  0.4526874320015324  0.4515079894146083  1.0000
  O   O5        1.0  0.9472956627337011  0.5668901079920518  0.43505800482785867  1.0000
  O   O6        1.0  0.4458985037368991  0.43572723905133864  0.5673319478772144  1.0000
  O   O7        1.0  0.6169346395858355  0.5369972194536956  0.49438874707851  1.0000
  O   O8        1.0  0.28881096503386783  0.5654237729169651  0.43297964731770117  1.0000
  O   O9        1.0  0.2838866463612319  0.5505331366815652  0.5454541325954025  1.0000
  O   O10       1.0  0.11875097016610431  0.46338405756972617  0.505678626438737  1.0000
  O   O11       1.0  0.740989219388162  0.0661855995441343  0.934705778842492  1.0000
  O   O12       1.0  0.4018312836603642  0.05077107437624309  0.0452285858220236  1.0000
  O   O13       1.0  0.24479695378325772  0.9358345816262529  0.06664570459741967  1.0000
  O   O14       1.0  0.3996748323063101  0.0655259722724963  0.9328076313175941  1.0000
  O   O15       1.0  0.24273383396839424  0.9508909474812484  0.9536139736192765  1.0000
  O   O16       1.0  0.741295466207177  0.0476178692204599  0.0478868534519492  1.0000
  O   O17       1.0  0.5725551236488399  0.9632409208351054  0.005840838074064299  1.0000
  O   O18       1.0  0.9027850000953707  0.951521911207081  0.9525613462198024  1.0000
  O   O19       1.0  0.9036737884007666  0.9333278519010691  0.06543270826733055  1.0000
  O   O20       1.0  0.07088477774770752  0.0371814758190752  0.9940347433583127  1.0000
  O   O21       1.0  0.08700463642526303  0.06460879717351989  0.17630711043000957  1.0000
