data_image0
_chemical_formula_structural       Cd4H28C44N16O8
_chemical_formula_sum              "Cd4 H28 C44 N16 O8"
_cell_length_a       7.747369841294948
_cell_length_b       7.747263181285109
_cell_length_c       19.732704243523283
_cell_angle_alpha    100.51232591138974
_cell_angle_beta     100.51160968082577
_cell_angle_gamma    94.09464095724041

_space_group_name_H-M_alt    "P 1"
_space_group_IT_number       1

loop_
  _space_group_symop_operation_xyz
  'x, y, z'

loop_
  _atom_site_type_symbol
  _atom_site_label
  _atom_site_symmetry_multiplicity
  _atom_site_fract_x
  _atom_site_fract_y
  _atom_site_fract_z
  _atom_site_occupancy
  Cd  Cd1       1.0  0.44389950482344187  0.7833132484366416  0.962351667855721  1.0000
  Cd  Cd2       1.0  0.8209266134752295  0.48192338070857227  0.03767388491120019  1.0000
  Cd  Cd3       1.0  0.033293269988256206  0.19387495987188424  0.4623545819652861  1.0000
  Cd  Cd4       1.0  0.7318977838947802  0.570901594481967  0.537678437622212  1.0000
  H   H1        1.0  0.5216640399550343  0.24708594892559435  0.7584345158106345  1.0000
  H   H2        1.0  0.48856297057706405  0.7632064217894906  0.24152438807484342  1.0000
  H   H3        1.0  0.49706979636247434  0.27162868220280245  0.2584386163795642  1.0000
  H   H4        1.0  0.013227996847788904  0.23855730471031217  0.7415304777374416  1.0000
  H   H5        1.0  0.36871401204139426  0.45367358609644265  0.6938283499037112  1.0000
  H   H6        1.0  0.7597644120006206  0.6753863739508076  0.3061739941418367  1.0000
  H   H7        1.0  0.7036945832994376  0.11873346916021889  0.1938342490590514  1.0000
  H   H8        1.0  0.9253784381531818  0.5097723914543976  0.8061811537897512  1.0000
  H   H9        1.0  0.2086632262065606  0.6738620846329226  0.6365963159382915  1.0000
  H   H10       1.0  0.03697716362777471  0.5723073017866795  0.36351922303242656  1.0000
  H   H11       1.0  0.9238837535264678  0.9587049629618676  0.1365933838869182  1.0000
  H   H12       1.0  0.8222942410931041  0.7869888845792659  0.8635234584845008  1.0000
  H   H13       1.0  0.14629348661442523  0.9506289221220997  0.7129078158131108  1.0000
  H   H14       1.0  0.23774000055585276  0.43388802674913757  0.2872932312108034  1.0000
  H   H15       1.0  0.20064350888286953  0.8963279075771807  0.2129067635528656  1.0000
  H   H16       1.0  0.6838589216454382  0.9877396396488366  0.7872971373209054  1.0000
  H   H17       1.0  0.7160732624247287  0.16722468440710261  0.8783757331353427  1.0000
  H   H18       1.0  0.28829586122427736  0.8369841164009698  0.1215059819691788  1.0000
  H   H19       1.0  0.41717946462447486  0.4660065866401482  0.3783846803456754  1.0000
  H   H20       1.0  0.08698306437196383  0.0382819861720876  0.6215057920940126  1.0000
  H   H21       1.0  0.2448314480920217  0.9932272387888758  0.8428367799521439  1.0000
  H   H22       1.0  0.1509612221057708  0.4029921090221506  0.15736800503462686  1.0000
  H   H23       1.0  0.2432324826071764  0.9948452764280448  0.3428372507886124  1.0000
  H   H24       1.0  0.6529544689382121  0.9009388533116792  0.657370132206438  1.0000
  H   H25       1.0  0.4573350571419965  0.23420825108969004  0.9930455755392983  1.0000
  H   H26       1.0  0.24025469523064663  0.46482937618319653  0.006666917925692008  1.0000
  H   H27       1.0  0.484185832470274  0.2073159458370171  0.4930497802723295  1.0000
  H   H28       1.0  0.7148043887445041  0.9902285964626216  0.5066631464729027  1.0000
  C   C1        1.0  0.10208259157079883  0.979191397448794  0.9956567298274521  1.0000
  C   C2        1.0  0.9827649390348084  0.10692716677337442  0.0041841748644842166  1.0000
  C   C3        1.0  0.22918007870792684  0.8520684944628982  0.49566644840516727  1.0000
  C   C4        1.0  0.35690814810966026  0.7327424310213927  0.5041889021127375  1.0000
  C   C5        1.0  0.3864677648031432  0.6048483383044997  0.7992318902777313  1.0000
  C   C6        1.0  0.8059308339760844  0.5879341493486124  0.20082632580749762  1.0000
  C   C7        1.0  0.8548581239228878  0.1364743457152429  0.2992363193003698  1.0000
  C   C8        1.0  0.8379211702379622  0.555919368658131  0.7008345347424552  1.0000
  C   C9        1.0  0.4838037714101517  0.4841655540126055  0.8366197824000352  1.0000
  C   C10       1.0  0.6477513346802296  0.6476332444558254  0.1633921039402537  1.0000
  C   C11       1.0  0.7341568880329132  0.23379106067616817  0.3366234671451167  1.0000
  C   C12       1.0  0.8976282350412249  0.39773573858680317  0.6633986411548491  1.0000
  C   C13       1.0  0.0572527754318131  0.7842104865676588  0.9945663540665208  1.0000
  C   C14       1.0  0.7889562040772872  0.0631115373463871  0.005375314971388382  1.0000
  C   C15       1.0  0.03419664835798391  0.8072292520545687  0.49457450062674  1.0000
  C   C16       1.0  0.31309697827950334  0.5389388292590523  0.5053773926645633  1.0000
  C   C17       1.0  0.32032569841769737  0.1989626492386165  0.9954923651344458  1.0000
  C   C18       1.0  0.202615798798476  0.3253901841825737  0.0042306097915059005  1.0000
  C   C19       1.0  0.44895008508139966  0.07030910197125449  0.4954957325719533  1.0000
  C   C20       1.0  0.5753656487477201  0.9525888081215329  0.5042305529641027  1.0000
  C   C21       1.0  0.5448040572596256  0.32177837616602994  0.8119919347800106  1.0000
  C   C22       1.0  0.5097145870759049  0.7328462059301301  0.1879735939592848  1.0000
  C   C23       1.0  0.5717708753273527  0.2947770611047673  0.3119986676029427  1.0000
  C   C24       1.0  0.9828522558416778  0.2597069318387142  0.6879775023895078  1.0000
  C   C25       1.0  0.3378816717490665  0.5733950290336266  0.7256413878742762  1.0000
  C   C26       1.0  0.8478358691877262  0.6128438241099872  0.2744149159135887  1.0000
  C   C27       1.0  0.8234078735433671  0.08790324043797433  0.22564554930200845  1.0000
  C   C28       1.0  0.8628293434103468  0.5978313172088647  0.774419996271746  1.0000
  C   C29       1.0  0.25135692605552146  0.6975120845743917  0.6935621089518308  1.0000
  C   C30       1.0  0.003871011582276717  0.5582359204085634  0.3065561243251622  1.0000
  C   C31       1.0  0.9475279538348075  0.0013886336143116005  0.1935647705632562  1.0000
  C   C32       1.0  0.8082248140952899  0.7538748399115107  0.8065593926659532  1.0000
  C   C33       1.0  0.2161981158704975  0.8513843164809386  0.7354848886897827  1.0000
  C   C34       1.0  0.11601382027080122  0.48132258031747444  0.2646854494982165  1.0000
  C   C35       1.0  0.10139898309619616  0.9662216342855531  0.2354854221408118  1.0000
  C   C36       1.0  0.7312905690413771  0.8660055441474908  0.7646867341240763  1.0000
  C   C37       1.0  0.6446966702896972  0.2805627726270572  0.8720767189706322  1.0000
  C   C38       1.0  0.4081350663103295  0.7722343637166134  0.12784764969140383  1.0000
  C   C39       1.0  0.5305517060330444  0.39466928442574567  0.3720854722307294  1.0000
  C   C40       1.0  0.022233064135121997  0.15812652810311786  0.6278527435253736  1.0000
  C   C41       1.0  0.2692616785552175  0.8747229600834389  0.8080600609062287  1.0000
  C   C42       1.0  0.06707556592814258  0.4620405024218357  0.1921151462050332  1.0000
  C   C43       1.0  0.12473446791820918  0.019276696058831505  0.3080614382406495  1.0000
  C   C44       1.0  0.7120090029450522  0.8170532121104798  0.6921169264915648  1.0000
  N   N1        1.0  0.543625574003535  0.5320901720369235  0.9070391082037831  1.0000
  N   N2        1.0  0.6251709456853689  0.6369109218328431  0.0929686913739971  1.0000
  N   N3        1.0  0.7820748720089697  0.29360973795662915  0.40704668159849433  1.0000
  N   N4        1.0  0.8868987611107287  0.37515344298870457  0.5929750667077799  1.0000
  N   N5        1.0  0.642525099322782  0.40873268075330316  0.9288390184513916  1.0000
  N   N6        1.0  0.479700841945423  0.7135122552581806  0.07111585613093753  1.0000
  N   N7        1.0  0.6587075810674178  0.39249547835017046  0.4288468648772081  1.0000
  N   N8        1.0  0.9635031261178353  0.2296822424253904  0.5711204158700269  1.0000
  N   N9        1.0  0.2689714131926237  0.0275892560540001  0.9909515861482846  1.0000
  N   N10       1.0  0.035845032628238  0.2785157998743556  0.00884607469726009  1.0000
  N   N11       1.0  0.2775786035370018  0.0189566272729849  0.49096052068710355  1.0000
  N   N12       1.0  0.5284966660689036  0.7858210232068642  0.5088489152971433  1.0000
  N   N13       1.0  0.3513493137646719  0.7552871216695178  0.8392698919946753  1.0000
  N   N14       1.0  0.9164473637951006  0.5128662100569273  0.16083163571769182  1.0000
  N   N15       1.0  0.005290457528495599  0.10135452733921109  0.33927291518170927  1.0000
  N   N16       1.0  0.76284105631553  0.6664283367500373  0.6608372797725437  1.0000
  O   O1        1.0  0.11639184614725198  0.6747277247238016  0.9516086407865457  1.0000
  O   O2        1.0  0.7225996237403507  0.16511416935419726  0.048412128914179696  1.0000
  O   O3        1.0  0.9247250889049495  0.866376452998722  0.4516159401875369  1.0000
  O   O4        1.0  0.41509250445832185  0.47256102582104387  0.5484093254212041  1.0000
  O   O5        1.0  0.9710561863779928  0.7529123140762054  0.040768070347930105  1.0000
  O   O6        1.0  0.7114145928887013  0.9307012457833395  0.9591524717340788  1.0000
  O   O7        1.0  0.0028927012423096998  0.7210394124505085  0.5407739281239188  1.0000
  O   O8        1.0  0.18068326249422031  0.46139555217314404  0.4591551410698145  1.0000
