data_image0
_chemical_formula_structural       Zn4Te4H28C10N4
_chemical_formula_sum              "Zn4 Te4 H28 C10 N4"
_cell_length_a       6.825607093657526
_cell_length_b       6.908539401094095
_cell_length_c       13.186869117439805
_cell_angle_alpha    105.15660168515873
_cell_angle_beta     89.99825423120139
_cell_angle_gamma    90.00002480097922

_space_group_name_H-M_alt    "P 1"
_space_group_IT_number       1

loop_
  _space_group_symop_operation_xyz
  'x, y, z'

loop_
  _atom_site_type_symbol
  _atom_site_label
  _atom_site_symmetry_multiplicity
  _atom_site_fract_x
  _atom_site_fract_y
  _atom_site_fract_z
  _atom_site_occupancy
  Zn  Zn1       1.0  0.7587431524287495  0.630852868534923  0.5713882229378555  1.0000
  Zn  Zn2       1.0  0.25875271010324497  0.36915272431902213  0.4286144993801955  1.0000
  Zn  Zn3       1.0  0.25867193931912164  0.9405787945490827  0.5714483546595943  1.0000
  Zn  Zn4       1.0  0.758686206427484  0.0594207434406542  0.4285573077590712  1.0000
  Te  Te1       1.0  0.38046352324636246  0.6007239325618556  0.6074197642342726  1.0000
  Te  Te2       1.0  0.8804714908887307  0.3992807817538591  0.3925834165863691  1.0000
  Te  Te3       1.0  0.8803500830032859  0.006806115644955897  0.6074017986767402  1.0000
  Te  Te4       1.0  0.3803710304594503  0.993195463600436  0.3926100423893715  1.0000
  H   H1        1.0  0.037146151907634796  0.5736705330458847  0.6941378543097015  1.0000
  H   H2        1.0  0.5371627592918317  0.42632021520083896  0.305858276002489  1.0000
  H   H3        1.0  0.5368730423231297  0.12043293402395248  0.6942058256668561  1.0000
  H   H4        1.0  0.0369040480336622  0.879572834897566  0.3057909067788387  1.0000
  H   H5        1.0  0.8683352124937188  0.4023193506350111  0.6933991409539146  1.0000
  H   H6        1.0  0.3683543394703932  0.5976705200142901  0.3065975681407309  1.0000
  H   H7        1.0  0.36851152972191414  0.2912805017746577  0.6931005364354661  1.0000
  H   H8        1.0  0.8685398947552017  0.7087228640766412  0.3068980704722435  1.0000
  H   H9        1.0  0.6562244535501806  0.6462515454926246  0.804909254068086  1.0000
  H   H10       1.0  0.15624056239174422  0.35373519534498143  0.195096789467236  1.0000
  H   H11       1.0  0.15565204304913038  0.16018128916734745  0.8048063036040674  1.0000
  H   H12       1.0  0.6556790077160954  0.8398414689225858  0.19520330288910506  1.0000
  H   H13       1.0  0.8283865917774946  0.834510426695786  0.8010207457933304  1.0000
  H   H14       1.0  0.3284126305299679  0.16547817592003614  0.1989793736969574  1.0000
  H   H15       1.0  0.32697626700849713  0.9674142534632537  0.8011920965655364  1.0000
  H   H16       1.0  0.8270129487917542  0.032596875761193196  0.19880969784996694  1.0000
  H   H17       1.0  0.0735143156797307  0.6752614259231394  0.8962490066573138  1.0000
  H   H18       1.0  0.5735309830202766  0.3247141991842781  0.1037361464168285  1.0000
  H   H19       1.0  0.5730873852573454  0.2217556686795703  0.8959614688591557  1.0000
  H   H20       1.0  0.07310524206710062  0.778241010790836  0.10402286315871119  1.0000
  H   H21       1.0  0.9038593713064387  0.48305225207484165  0.899164772354716  1.0000
  H   H22       1.0  0.40388027079858796  0.5169388148213656  0.1008354028771095  1.0000
  H   H23       1.0  0.40313613312186203  0.4167346186718177  0.8991726201627017  1.0000
  H   H24       1.0  0.9031530885820088  0.5832714948520064  0.10082665054105888  1.0000
  H   H25       1.0  0.6670449390289833  0.7447031404696814  0.9999323266123668  1.0000
  H   H26       1.0  0.1670401315512464  0.2553074507789006  8.147519213959979e-05  1.0000
  H   H27       1.0  0.8408469860915986  0.9332888440382233  0.0001590852967509907  1.0000
  H   H28       1.0  0.3408393998669795  0.0667102377987163  0.999837786653444  1.0000
  C   C1        1.0  0.8143833763546907  0.6760661861255741  0.8021122284620502  1.0000
  C   C2        1.0  0.3144007554571147  0.3239285007049658  0.19788970094309377  1.0000
  C   C3        1.0  0.31368935034504364  0.1269438727208296  0.8020958281747071  1.0000
  C   C4        1.0  0.8137220098478651  0.8730688710640067  0.19790486171017818  1.0000
  C   C5        1.0  0.9157103578367723  0.6424461847707761  0.8992770703545219  1.0000
  C   C6        1.0  0.4157209497571587  0.3575402897466231  0.10072305180403869  1.0000
  C   C7        1.0  0.4152375914483386  0.257421738015374  0.8991610544913726  1.0000
  C   C8        1.0  0.9152531407335545  0.7425783842045135  0.10083113743613129  1.0000
  C   C9        1.0  0.8261537617158085  0.7739280605234525  4.1616394277400445e-05  1.0000
  C   C10       1.0  0.32614915718443166  0.22608006395405061  0.9999605249854328  1.0000
  N   N1        1.0  0.888322960627427  0.5534964643352963  0.7008759304447735  1.0000
  N   N2        1.0  0.38833812752357477  0.4464933245859867  0.2991166974250348  1.0000
  N   N3        1.0  0.3881007155227041  0.14767559103555067  0.7008208834638623  1.0000
  N   N4        1.0  0.8881311064407312  0.8523350800306699  0.29918227143392057  1.0000
