data_image0
_chemical_formula_structural       Cd8H20C8Br4N40O4
_chemical_formula_sum              "Cd8 H20 C8 Br4 N40 O4"
_cell_length_a       7.0616798782003745
_cell_length_b       11.27561905093795
_cell_length_c       13.554597217002293
_cell_angle_alpha    90.00002259208674
_cell_angle_beta     89.99993386556152
_cell_angle_gamma    105.2847714292885

_space_group_name_H-M_alt    "P 1"
_space_group_IT_number       1

loop_
  _space_group_symop_operation_xyz
  'x, y, z'

loop_
  _atom_site_type_symbol
  _atom_site_label
  _atom_site_symmetry_multiplicity
  _atom_site_fract_x
  _atom_site_fract_y
  _atom_site_fract_z
  _atom_site_occupancy
  Cd  Cd1       1.0  0.4161006153597953  0.3263522837232955  0.9823596243647471  1.0000
  Cd  Cd2       1.0  0.08389831998918144  0.6736475955677079  0.4823596775562179  1.0000
  Cd  Cd3       1.0  0.5838988743189547  0.6736475335815797  0.0176404440992357  1.0000
  Cd  Cd4       1.0  0.9161025834948262  0.3263522163600853  0.5176411286644154  1.0000
  Cd  Cd5       1.0  0.6053770223101226  0.17905164251634886  0.7460736587269352  1.0000
  Cd  Cd6       1.0  0.8946225247658434  0.820948140061631  0.24607283601618235  1.0000
  Cd  Cd7       1.0  0.3946224673686273  0.8209481747885191  0.2539264097370406  1.0000
  Cd  Cd8       1.0  0.10537696491290661  0.1790516772432369  0.7539272324478005  1.0000
  H   H1        1.0  0.33501045030754995  0.10797518744156781  0.8899975916284715  1.0000
  H   H2        1.0  0.1649882906953124  0.8920237614530677  0.38999766723048873  1.0000
  H   H3        1.0  0.6649886441016335  0.892023710488594  0.11000173907840599  1.0000
  H   H4        1.0  0.8350122175191291  0.10797513110001938  0.6100024012330392  1.0000
  H   H5        1.0  0.7136889361040988  0.08723239791867601  0.16520648019265846  1.0000
  H   H6        1.0  0.7863093730830641  0.9127673803864836  0.6652066952272194  1.0000
  H   H7        1.0  0.2863095350397628  0.9127683441379301  0.8347928505147023  1.0000
  H   H8        1.0  0.213688702789625  0.08723244229550178  0.3347933732371828  1.0000
  H   H9        1.0  0.6992227873587638  0.1594179422821043  0.058317300148182497  1.0000
  H   H10       1.0  0.8007757543542484  0.8405818232678398  0.5583182208264006  1.0000
  H   H11       1.0  0.3007752885155314  0.8405818803997961  0.941681292802073  1.0000
  H   H12       1.0  0.19922232151763813  0.15941799941418816  0.4416825853950783  1.0000
  H   H13       1.0  0.08197584366334346  0.4033652268273256  0.14536474408571817  1.0000
  H   H14       1.0  0.418024220055166  0.596635531624166  0.6453640398031126  1.0000
  H   H15       1.0  0.9180240412857756  0.5966355098522057  0.8546353243782931  1.0000
  H   H16       1.0  0.5819774739703832  0.4033661190529045  0.3546360286605007  1.0000
  H   H17       1.0  0.8395867276185244  0.41018802197526566  0.1452900049704695  1.0000
  H   H18       1.0  0.6604148477774318  0.5898126625736495  0.6452901904377129  1.0000
  H   H19       1.0  0.1604141758670821  0.5898117899524351  0.8547093257360103  1.0000
  H   H20       1.0  0.3395860557073718  0.41018714935410117  0.3547098780258438  1.0000
  C   C1        1.0  0.4368598926943222  0.07505684524205947  0.1175843418597253  1.0000
  C   C2        1.0  0.06313881765043301  0.9249439152715336  0.6175846944439911  1.0000
  C   C3        1.0  0.5631381831791699  0.9249429774398831  0.8824149888476072  1.0000
  C   C4        1.0  0.9368596534926257  0.07505682678511497  0.3824153740204466  1.0000
  C   C5        1.0  0.9331707922102906  0.34933777015184114  0.0173473973149854  1.0000
  C   C6        1.0  0.5668300429769247  0.6506638238812242  0.5173469208171966  1.0000
  C   C7        1.0  0.06682988328117298  0.650664805276925  0.9826511956349362  1.0000
  C   C8        1.0  0.43317266958430883  0.34933690204406526  0.48265314764596917  1.0000
  Br  Br1       1.0  0.5112260836905023  0.5290440833909784  0.8526988228329628  1.0000
  Br  Br2       1.0  0.9887817142665158  0.47095567964819907  0.3527007810723504  1.0000
  Br  Br3       1.0  0.4887766288715412  0.4709566425342685  0.1473005078731262  1.0000
  Br  Br4       1.0  0.01122908585829655  0.5290440946398431  0.6473015006594665  1.0000
  N   N1        1.0  0.3274920799410737  0.14458653598395438  0.0777617344779671  1.0000
  N   N2        1.0  0.17250632176347108  0.8554133004028796  0.577761999002078  1.0000
  N   N3        1.0  0.6725045821263577  0.8554132920751129  0.9222375962297845  1.0000
  N   N4        1.0  0.8274917541092179  0.14458652227911267  0.422238069462324  1.0000
  N   N5        1.0  0.13961544401018244  0.09323556697296452  0.1064509417568829  1.0000
  N   N6        1.0  0.3603814814779369  0.9067642782145097  0.6064511104998118  1.0000
  N   N7        1.0  0.8603808227868868  0.9067633417114395  0.8935483889508403  1.0000
  N   N8        1.0  0.6396151805886915  0.09323554984459997  0.3935489579650166  1.0000
  N   N9        1.0  0.1377054186083769  0.9979750716145687  0.1618322996805119  1.0000
  N   N10       1.0  0.362292404939204  0.0020238554298544  0.6618321733223522  1.0000
  N   N11       1.0  0.8622936758008066  0.0020238263155931994  0.8381670310263585  1.0000
  N   N12       1.0  0.637705275663123  0.9979750478774746  0.3381678951420213  1.0000
  N   N13       1.0  0.321390960888479  0.9835074941880746  0.17013791150562696  1.0000
  N   N14       1.0  0.1786072398621243  0.016492353222091097  0.670137162048185  1.0000
  N   N15       1.0  0.6786071149842102  0.016492328493910694  0.8298621569587752  1.0000
  N   N16       1.0  0.8213908360113747  0.9835074694598516  0.3298621686591474  1.0000
  N   N17       1.0  0.6340026991088339  0.08755204045539948  0.1026461796220417  1.0000
  N   N18       1.0  0.865997555247624  0.912448644381925  0.6026470846079305  1.0000
  N   N19       1.0  0.3659957720358308  0.9124487016011642  0.8973524133282424  1.0000
  N   N20       1.0  0.13400193443112576  0.08755117292294298  0.39735298385604517  1.0000
  N   N21       1.0  0.7651896612057243  0.3282504299072926  0.9632988283898952  1.0000
  N   N22       1.0  0.7348094133187645  0.6717493785925157  0.46329805286978837  1.0000
  N   N23       1.0  0.23480841466696498  0.6717493927747001  0.03670124007451389  1.0000
  N   N24       1.0  0.2651929039720997  0.3282504279581103  0.5367020155933417  1.0000
  N   N25       1.0  0.8162261775027987  0.30024211911134563  0.8720471114315913  1.0000
  N   N26       1.0  0.6837730955297444  0.6997576784993027  0.3720471133199084  1.0000
  N   N27       1.0  0.1837733121759513  0.6997576981935224  0.1279529570323845  1.0000
  N   N28       1.0  0.3162282032246324  0.3002430528031539  0.6279536929007534  1.0000
  N   N29       1.0  0.0014581093483557103  0.3023030922533181  0.8708034972040506  1.0000
  N   N30       1.0  0.49854429156165736  0.697697682345968  0.37080404775380776  1.0000
  N   N31       1.0  0.9985435846779964  0.6976985584237095  0.129195833502493  1.0000
  N   N32       1.0  0.5014584209987802  0.30230304357937127  0.6291967584664275  1.0000
  N   N33       1.0  0.08148436992274809  0.33232969221457853  0.9606379439203889  1.0000
  N   N34       1.0  0.4185168170273671  0.6676720178564821  0.4606370571056289  1.0000
  N   N35       1.0  0.918516305566307  0.6676728832143154  0.0393628623007629  1.0000
  N   N36       1.0  0.5814862908042358  0.33232962744346384  0.5393630113575654  1.0000
  N   N37       1.0  0.9459985375912652  0.3762430866546963  0.1145343506499898  1.0000
  N   N38       1.0  0.5540031047096363  0.6237575942241448  0.6145353486030913  1.0000
  N   N39       1.0  0.05400276116391462  0.6237576446477104  0.8854657178136023  1.0000
  N   N40       1.0  0.4459996078508014  0.3762431317011873  0.38546545761714407  1.0000
  O   O1        1.0  0.3634039182385892  0.186305742261851  0.8542805625675667  1.0000
  O   O2        1.0  0.13659529573343585  0.8136941217452787  0.3542806297161363  1.0000
  O   O3        1.0  0.6365959667105301  0.8136949944176805  0.1457195058964444  1.0000
  O   O4        1.0  0.8634041939453143  0.18630569555959647  0.6457194387478467  1.0000
