data_image0
_chemical_formula_structural       Zn8H59C73N7O26
_chemical_formula_sum              "Zn8 H59 C73 N7 O26"
_cell_length_a       18.42236424871318
_cell_length_b       18.374791223599587
_cell_length_c       18.426788546141943
_cell_angle_alpha    89.83695380375845
_cell_angle_beta     120.24228547363447
_cell_angle_gamma    119.64197486555702

_space_group_name_H-M_alt    "P 1"
_space_group_IT_number       1

loop_
  _space_group_symop_operation_xyz
  'x, y, z'

loop_
  _atom_site_type_symbol
  _atom_site_label
  _atom_site_symmetry_multiplicity
  _atom_site_fract_x
  _atom_site_fract_y
  _atom_site_fract_z
  _atom_site_occupancy
  Zn  Zn1       1.0  0.08360060808246286  0.9540578625824095  0.5434946634049778  1.0000
  Zn  Zn2       1.0  0.08818486403044531  0.12880833411752937  0.5492931329657366  1.0000
  Zn  Zn3       1.0  0.911689454681955  0.9557720744770464  0.5443899565449185  1.0000
  Zn  Zn4       1.0  0.9080495218810966  0.9544134463971473  0.37115014775556415  1.0000
  Zn  Zn5       1.0  0.9085266874483862  0.5394841634175831  0.9573778109738453  1.0000
  Zn  Zn6       1.0  0.08561866347638823  0.5414967471078708  0.9576133721209953  1.0000
  Zn  Zn7       1.0  0.9152817304980868  0.3702747767640912  0.960323311600568  1.0000
  Zn  Zn8       1.0  0.08518420254171828  0.5454164507574858  0.1319659172989985  1.0000
  H   H1        1.0  0.9280640588527829  0.7410966915899876  0.8405890970277595  1.0000
  H   H2        1.0  0.13981243970518875  0.4122420563132819  0.31806703383897866  1.0000
  H   H3        1.0  0.7525767548632558  0.15041423006407229  0.06746269068674586  1.0000
  H   H4        1.0  0.810002634519691  0.12398546340885729  0.027856241323199478  1.0000
  H   H5        1.0  0.8261809753705053  0.02969749325314549  0.1248377623104702  1.0000
  H   H6        1.0  0.8484254062564459  0.19531809291273555  0.7592891197452402  1.0000
  H   H7        1.0  0.20439091554516844  0.4636681951134135  0.8250070793949716  1.0000
  H   H8        1.0  0.1919160333342232  0.3633231579685158  0.7205581689204619  1.0000
  H   H9        1.0  0.23316037079543128  0.315719891770925  0.8040599143874443  1.0000
  H   H10       1.0  0.39828647900304054  0.09289625431731001  0.6468568386012592  1.0000
  H   H11       1.0  0.4071310256633679  0.3199725821090736  0.8362352033525438  1.0000
  H   H12       1.0  0.1576117526521795  0.6837693427734022  0.7849276187518796  1.0000
  H   H13       1.0  0.40968488285562166  0.3729375609380125  0.7547009453001718  1.0000
  H   H14       1.0  0.044997679257526964  0.7718230199199566  0.08322779896830901  1.0000
  H   H15       1.0  0.9366863776892203  0.5367007137980478  0.21289522485862009  1.0000
  H   H16       1.0  0.9217221569407599  0.7241675282950054  0.391610094926527  1.0000
  H   H17       1.0  0.9342375714161828  0.842414217050411  0.7506166998416145  1.0000
  H   H18       1.0  0.7715261356259758  0.5029169442345561  0.36505139208745846  1.0000
  H   H19       1.0  0.8966253686330388  0.5417195382527067  0.4573057701144945  1.0000
  H   H20       1.0  0.8522559024828879  0.6110572550662353  0.44207064923548944  1.0000
  H   H21       1.0  0.21988817389699705  0.7707454831499162  0.6756502928849242  1.0000
  H   H22       1.0  0.18815987749054106  0.8492860567899425  0.6592065856305636  1.0000
  H   H23       1.0  0.03228119644663225  0.596265848110029  0.6934006314340804  1.0000
  H   H24       1.0  0.2466492473867985  0.8387134522552554  0.766472747147162  1.0000
  H   H25       1.0  0.6504651168231276  0.6981279423500764  0.4321604143403944  1.0000
  H   H26       1.0  0.6372775666501693  0.7690598553872191  0.48020119651620496  1.0000
  H   H27       1.0  0.5348608424953267  0.6544599741060322  0.42370454051963674  1.0000
  H   H28       1.0  0.4134360964651405  0.87604376347506  0.12134295125878206  1.0000
  H   H29       1.0  0.3965290932230728  0.8598262700927889  0.024634566567271875  1.0000
  H   H30       1.0  0.059697019056791485  0.019883187515645724  0.31218043660206257  1.0000
  H   H31       1.0  0.14148600951901344  0.9921236173028587  0.3895558729827468  1.0000
  H   H32       1.0  0.18619152611420725  0.07171088362424162  0.34285492846348115  1.0000
  H   H33       1.0  0.7524620999837098  0.004837526522500482  0.20337945663179366  1.0000
  H   H34       1.0  0.03209731632945502  0.6947182935778214  0.6005851172201273  1.0000
  H   H35       1.0  0.7356894545198713  0.08434826942480099  0.18607729607327167  1.0000
  H   H36       1.0  0.8071741605644077  0.036929665627375964  0.6026409879685345  1.0000
  H   H37       1.0  0.7564178737951152  0.05955224142996226  0.6507836661273245  1.0000
  H   H38       1.0  0.11324692527664129  0.05860457813094645  0.11997792530747374  1.0000
  H   H39       1.0  0.11996024838095554  0.08880127538098745  0.21522986349521733  1.0000
  H   H40       1.0  0.22629854848781852  0.09887868939574666  0.22679467884629634  1.0000
  H   H41       1.0  0.3407200831139643  0.47433990019006683  0.9554743393361985  1.0000
  H   H42       1.0  0.26493227809218906  0.37495482813615405  0.9538527439330692  1.0000
  H   H43       1.0  0.6719996895427797  0.20797514820508664  0.7741299492641786  1.0000
  H   H44       1.0  0.5522634581861324  0.11236257718448418  0.6931739174908528  1.0000
  H   H45       1.0  0.3966199373424074  0.6344498734465275  0.3010228417731822  1.0000
  H   H46       1.0  0.6950808468317501  0.44095337830454157  0.9938820046258808  1.0000
  H   H47       1.0  0.6033047471050847  0.45419138029718176  0.9885459149443461  1.0000
  H   H48       1.0  0.5773672886094942  0.346367712436489  0.9682706644473311  1.0000
  H   H49       1.0  0.6097708935242918  0.5294338229783191  0.874245702410647  1.0000
  H   H50       1.0  0.6813064844781492  0.5070888006553175  0.8647176855896817  1.0000
  H   H51       1.0  0.055644018027876975  0.9472868220578619  0.012195299151436115  1.0000
  H   H52       1.0  0.18542765119845941  0.9879036311198491  0.08980978865475447  1.0000
  H   H53       1.0  0.09548133331266209  0.8756191133510496  0.018754426832316373  1.0000
  H   H54       1.0  0.8215753664797276  0.4305280822638408  0.32556920694694463  1.0000
  H   H55       1.0  0.860888668529597  0.4203081761689872  0.26269075372461254  1.0000
  H   H56       1.0  0.4144533145774146  0.7406095587568018  0.037891890113847373  1.0000
  H   H57       1.0  0.6060557430646795  0.8407868185451334  0.1388750235930443  1.0000
  H   H58       1.0  0.5980214727987344  0.9184936293037467  0.1865836085530145  1.0000
  H   H59       1.0  0.14742162207348017  0.31748946285321  0.4146384052544788  1.0000
  C   C1        1.0  0.006373608636799458  0.13971098017868394  0.368041184313391  1.0000
  C   C2        1.0  0.8982131149176809  0.5450631281762809  0.3027906272874289  1.0000
  C   C3        1.0  0.8925561358748766  0.5990624842035216  0.35357830956029784  1.0000
  C   C4        1.0  0.003457567402037215  0.8683369283744965  0.6466236237674963  1.0000
  C   C5        1.0  0.9257569324896765  0.6841018379205364  0.35212622267079025  1.0000
  C   C6        1.0  0.04066227860104708  0.7587260267110167  0.7074335777651867  1.0000
  C   C7        1.0  0.0037631794557809206  0.8103643362541104  0.7029236824725797  1.0000
  C   C8        1.0  0.9635664448165429  0.8028719169569739  0.7527978338780412  1.0000
  C   C9        1.0  0.9600208434986468  0.7460890110258018  0.803104628265913  1.0000
  C   C10       1.0  0.9967100908880507  0.6935238128938077  0.8067419776021364  1.0000
  C   C11       1.0  0.037093395047847144  0.7019089195438609  0.7579744445789486  1.0000
  C   C12       1.0  0.053348718815158146  0.8171605287929894  0.12949779023771396  1.0000
  C   C13       1.0  0.08231319494920782  0.6675213100643588  0.7306206052493136  1.0000
  C   C14       1.0  0.08622006100937056  0.731484096282564  0.672502772886055  1.0000
  C   C15       1.0  0.5524384843111249  0.7982038307064058  0.2259490663162323  1.0000
  C   C16       1.0  0.2750359512990384  0.1324634642601764  0.6446383261034895  1.0000
  C   C17       1.0  0.6070511524980873  0.7913138494357383  0.3092722449794819  1.0000
  C   C18       1.0  0.548245366868798  0.7293816318826883  0.3363021938338305  1.0000
  C   C19       1.0  0.4411335030018719  0.6811298594013379  0.27969014705426076  1.0000
  C   C20       1.0  0.38709854009120176  0.68885586502779  0.19602078403250514  1.0000
  C   C21       1.0  0.445945606889147  0.7482598227543846  0.17028385669890866  1.0000
  C   C22       1.0  0.44302276884026526  0.7884769544179946  0.09717649078049796  1.0000
  C   C23       1.0  0.028293831547329944  0.7861696010733323  0.18983246502812526  1.0000
  C   C24       1.0  0.5652926177895523  0.8477064696259332  0.16294631542866955  1.0000
  C   C25       1.0  0.9242776429825172  0.1635319197882125  0.22143321466739949  1.0000
  C   C26       1.0  0.004989828134839016  0.19711239603314104  0.31100298008161786  1.0000
  C   C27       1.0  0.08304653613528482  0.2886118917324793  0.34476315537651187  1.0000
  C   C28       1.0  0.7207732402010405  0.8505223572524866  0.3653211723535746  1.0000
  C   C29       1.0  0.07872683441479462  0.34175214157870926  0.29062263784859244  1.0000
  C   C30       1.0  0.9961781042436402  0.30693954090929043  0.1998895475484446  1.0000
  C   C31       1.0  0.9190884742883298  0.21673187496745064  0.16746844297998814  1.0000
  C   C32       1.0  0.814508148881501  0.1421034752636743  0.0874293182963228  1.0000
  C   C33       1.0  0.8201994854349551  0.0805676885563145  0.1474039174910828  1.0000
  C   C34       1.0  0.03778237050214975  0.845962435003429  0.25024671756554545  1.0000
  C   C35       1.0  0.07430839651976834  0.2747035752214089  0.7435872410525945  1.0000
  C   C36       1.0  0.9852095557235998  0.19029683330207786  0.6857359820525132  1.0000
  C   C37       1.0  0.9011485129057276  0.16144163265242634  0.6919998399542776  1.0000
  C   C38       1.0  0.912596152406806  0.21809677221884974  0.7546692073242766  1.0000
  C   C39       1.0  0.002322970215956588  0.30231700753740387  0.8106711752951127  1.0000
  C   C40       1.0  0.9836300485541614  0.1351476872223498  0.6267093142417081  1.0000
  C   C41       1.0  0.08363296231377124  0.32971606317384755  0.8037583376288636  1.0000
  C   C42       1.0  0.19434904039744771  0.4031051822750981  0.8412692732177119  1.0000
  C   C43       1.0  0.18322497374562352  0.3387881419892337  0.7720867508364363  1.0000
  C   C44       1.0  0.44665384003350517  0.27459032992744864  0.758155901487086  1.0000
  C   C45       1.0  0.9969889410756781  0.6996804009938913  0.19294029074201546  1.0000
  C   C46       1.0  0.3887079312923232  0.18937438711128599  0.6992273360405789  1.0000
  C   C47       1.0  0.44212352009429867  0.15917392719562426  0.6925089863819167  1.0000
  C   C48       1.0  0.550151634797082  0.21097066144200463  0.7417961562678171  1.0000
  C   C49       1.0  0.6088075402514832  0.29824399126367496  0.802268821945347  1.0000
  C   C50       1.0  0.5524655672403892  0.32577337956457325  0.8074836381125577  1.0000
  C   C51       1.0  0.5640100123100991  0.4004530656245889  0.8594572868805911  1.0000
  C   C52       1.0  0.9966639764108366  0.8622398854271934  0.3600160264750157  1.0000
  C   C53       1.0  0.442089943950833  0.3417961029948413  0.7996257332092183  1.0000
  C   C54       1.0  0.2733194239491182  0.6347244905286045  0.13921886591073462  1.0000
  C   C55       1.0  0.7213009962139975  0.3562105085107772  0.8573436081584872  1.0000
  C   C56       1.0  0.9671023012085841  0.6660769462526587  0.24898935799063776  1.0000
  C   C57       1.0  0.9922577592689593  0.6326727620275959  0.8601446253656846  1.0000
  C   C58       1.0  0.992827346511099  0.36423690915825085  0.14277542140448662  1.0000
  C   C59       1.0  0.006663578396818076  0.3594385346238766  0.8719778041032313  1.0000
  C   C60       1.0  0.995571754059597  0.6408954617340186  0.13551296161848808  1.0000
  C   C61       1.0  0.08334771143218223  0.93754908120048  0.25329970394901113  1.0000
  C   C62       1.0  0.10147829709884337  0.9630963938164571  0.18980552114751245  1.0000
  C   C63       1.0  0.08526922272627484  0.9015355566805636  0.1261883926101816  1.0000
  C   C64       1.0  0.8513258365760095  0.5619521579173322  0.4072249902911833  1.0000
  C   C65       1.0  0.1913523615069293  0.8017867369743071  0.6947394542666174  1.0000
  C   C66       1.0  0.5950253800795763  0.711686215624411  0.4226056708632341  1.0000
  C   C67       1.0  0.965987523405303  0.7220348300124113  0.3024331685398351  1.0000
  C   C68       1.0  0.11854664283077908  0.00846950265145101  0.3278694591840363  1.0000
  C   C69       1.0  0.14200734049622096  0.05689749713359761  0.1880976625588318  1.0000
  C   C70       1.0  0.6127016873471972  0.410723235688735  0.9584107236892193  1.0000
  C   C71       1.0  0.10662744472073614  0.9293853865116829  0.0584155478524976  1.0000
  C   C72       1.0  0.0025105467857854764  0.8103503775341422  0.30301782332352173  1.0000
  C   C73       1.0  0.9336273513634767  0.5785583477912226  0.2516576573417026  1.0000
  N   N1        1.0  0.3873711394121171  0.8291848627067393  0.06855872488133465  1.0000
  N   N2        1.0  0.7375817296291984  0.03748461484645556  0.15867308903580118  1.0000
  N   N3        1.0  0.8090932126875784  0.0815642521894445  0.6372791396883313  1.0000
  N   N4        1.0  0.26781585626928694  0.428611435474643  0.9362659861338185  1.0000
  N   N5        1.0  0.5957278009279603  0.17743901653451377  0.7279212351210446  1.0000
  N   N6        1.0  0.6074127334942573  0.48309620352674887  0.8407962467225402  1.0000
  N   N7        1.0  0.8715476224019271  0.4614033108485812  0.30909128174693007  1.0000
  O   O1        1.0  0.9979738451919216  0.9990256904247728  0.5011768591660084  1.0000
  O   O2        1.0  0.9262596922268643  0.3239831747824411  0.058906895892498215  1.0000
  O   O3        1.0  0.06822912637015574  0.4427793842075615  0.8934796301708943  1.0000
  O   O4        1.0  0.9363715987569778  0.05661530296381292  0.32743816835626655  1.0000
  O   O5        1.0  0.06364346418380508  0.6250042587869444  0.17559223814399152  1.0000
  O   O6        1.0  0.9471775132880181  0.31994472204291186  0.8963395969922061  1.0000
  O   O7        1.0  0.9265466585808825  0.6107228809741939  0.05211410284247351  1.0000
  O   O8        1.0  0.9379522680702476  0.6178694619715797  0.8893110639001802  1.0000
  O   O9        1.0  0.05592370405965131  0.4478306701628724  0.18175176857995004  1.0000
  O   O10       1.0  0.22994815400542015  0.6221478019704563  0.05612539882756096  1.0000
  O   O11       1.0  0.7703224513750866  0.3213466424235347  0.8677118527997718  1.0000
  O   O12       1.0  0.22989664119243944  0.04924574688232026  0.6117495586722937  1.0000
  O   O13       1.0  0.04920016632276225  0.8759857760976073  0.6101503684170237  1.0000
  O   O14       1.0  0.23169187540081262  0.17210091628984242  0.6348701581397264  1.0000
  O   O15       1.0  0.7686627440314381  0.8623780007071602  0.4487461220435803  1.0000
  O   O16       1.0  0.0575304618464541  0.17371643775124557  0.6184871114407284  1.0000
  O   O17       1.0  0.929563540477808  0.879186197183756  0.32028132496357387  1.0000
  O   O18       1.0  0.9096980607159391  0.051838387574654914  0.5881571577611097  1.0000
  O   O19       1.0  0.0569721448943311  0.8819799799274364  0.4438623064307165  1.0000
  O   O20       1.0  0.7625773959987114  0.8871398118421395  0.3253763432549305  1.0000
  O   O21       1.0  0.07534002350432427  0.1773560781678681  0.45155762370784197  1.0000
  O   O22       1.0  0.9570559882028179  0.9048683696632408  0.637999704796911  1.0000
  O   O23       1.0  0.9990945905138633  0.4995125100756537  0.001710913805801732  1.0000
  O   O24       1.0  0.22955259463366656  0.6057226689021249  0.17884575131948555  1.0000
  O   O25       1.0  0.76426029157772  0.43853343010041335  0.8927629865736858  1.0000
  O   O26       1.0  0.04334969157930823  0.6004078016042269  0.8720466618933995  1.0000
