data_image0
_chemical_formula_structural       Zn8H80C96N32O32
_chemical_formula_sum              "Zn8 H80 C96 N32 O32"
_cell_length_a       17.212373268745164
_cell_length_b       17.212257611605004
_cell_length_c       17.21230321891986
_cell_angle_alpha    98.35167583324892
_cell_angle_beta     115.30131846218332
_cell_angle_gamma    115.30117305007835

_space_group_name_H-M_alt    "P 1"
_space_group_IT_number       1

loop_
  _space_group_symop_operation_xyz
  'x, y, z'

loop_
  _atom_site_type_symbol
  _atom_site_label
  _atom_site_symmetry_multiplicity
  _atom_site_fract_x
  _atom_site_fract_y
  _atom_site_fract_z
  _atom_site_occupancy
  Zn  Zn1       1.0  0.38342125055204695  0.7859993384151381  0.8464230831273767  1.0000
  Zn  Zn2       1.0  0.060425402601964794  0.8464231725887005  0.963002959326367  1.0000
  Zn  Zn3       1.0  0.43957582686554997  0.4025783932975244  0.7860002122751197  1.0000
  Zn  Zn4       1.0  0.11658051178066828  0.963004642203856  0.4025781924910559  1.0000
  Zn  Zn5       1.0  0.6165789891373167  0.2140014680416655  0.15357762245285045  1.0000
  Zn  Zn6       1.0  0.939575257386622  0.15357735193984473  0.036996723252251236  1.0000
  Zn  Zn7       1.0  0.560426118120361  0.5974234173299138  0.21400136788250274  1.0000
  Zn  Zn8       1.0  0.8834195057100233  0.0369952399515726  0.5974217033559626  1.0000
  H   H1        1.0  0.33066938668202545  0.8867763157856317  0.9714487236793442  1.0000
  H   H2        1.0  0.08467366524625655  0.971448063107239  0.14078151561913177  1.0000
  H   H3        1.0  0.4153285719967812  0.5561089922645053  0.8867772088593496  1.0000
  H   H4        1.0  0.1693336267866457  0.14078173742527872  0.5561094644817217  1.0000
  H   H5        1.0  0.6693323361052209  0.11322457054043156  0.028552046745083652  1.0000
  H   H6        1.0  0.9153263522448257  0.028551819386350964  0.8592189612568504  1.0000
  H   H7        1.0  0.5846737932891202  0.44389253711099735  0.11322451035458403  1.0000
  H   H8        1.0  0.8306661685065323  0.8592172214432595  0.44389136471897916  1.0000
  H   H9        1.0  0.2235723587325752  0.8103889676465599  0.6850782125990378  1.0000
  H   H10       1.0  0.8746886565914734  0.6850768449621611  0.9615049107629261  1.0000
  H   H11       1.0  0.6253088006026033  0.5868147020847019  0.8103887722706772  1.0000
  H   H12       1.0  0.2764272796163354  0.9615064245164504  0.5868148204926269  1.0000
  H   H13       1.0  0.7764263737619501  0.1896096294244742  0.3149215287558461  1.0000
  H   H14       1.0  0.1253109405984603  0.3149233177688728  0.03849368396986815  1.0000
  H   H15       1.0  0.37469124098429063  0.41318730891092065  0.1896108608995561  1.0000
  H   H16       1.0  0.7235729600726444  0.038494381602191693  0.41318530405863635  1.0000
  H   H17       1.0  0.09553575851592919  0.8800506809773766  0.635491924386656  1.0000
  H   H18       1.0  0.7554396190049673  0.6354905197337573  0.03995487766631088  1.0000
  H   H19       1.0  0.744558255398758  0.784515419362144  0.8800512548798026  1.0000
  H   H20       1.0  0.4044638738085809  0.039954914789582595  0.7845148127993866  1.0000
  H   H21       1.0  0.9044642589755372  0.11994920185437523  0.36450913351828257  1.0000
  H   H22       1.0  0.24455975598821317  0.36450872038671633  0.9600458124780785  1.0000
  H   H23       1.0  0.25544156398947143  0.21548566733210353  0.11994756855723668  1.0000
  H   H24       1.0  0.595535056786112  0.9600424757136495  0.21548251479173083  1.0000
  H   H25       1.0  0.11001315152169168  0.986903199466461  0.8062627891569674  1.0000
  H   H26       1.0  0.8193594185051654  0.8062614628257522  0.19624733823557963  1.0000
  H   H27       1.0  0.6806387553084009  0.8768884628449528  0.9869030342876215  1.0000
  H   H28       1.0  0.3899857415113531  0.19624815093247616  0.8768885805704372  1.0000
  H   H29       1.0  0.8899873103659601  0.013098530953556136  0.1937381451274902  1.0000
  H   H30       1.0  0.18064079708646835  0.19373721343820452  0.8037513059055996  1.0000
  H   H31       1.0  0.3193619046805766  0.12311206202176092  0.013097229319953389  1.0000
  H   H32       1.0  0.6100138074861904  0.8037477541181701  0.12311053951593455  1.0000
  H   H33       1.0  0.5310773151704427  0.9996907691251452  0.8826754282428695  1.0000
  H   H34       1.0  0.8829866619554637  0.8826744729676366  0.8515992514814384  1.0000
  H   H35       1.0  0.6170134845737252  0.46861280877605793  0.999690291036721  1.0000
  H   H36       1.0  0.9689233883201426  0.8516010561915124  0.46861195561544355  1.0000
  H   H37       1.0  0.46892312262063035  0.00030883211650941864  0.11732518768942413  1.0000
  H   H38       1.0  0.1170133555348514  0.11732540884963073  0.14840006333663067  1.0000
  H   H39       1.0  0.3829871754152523  0.5313877160906558  0.0003099725708536819  1.0000
  H   H40       1.0  0.031076629170549108  0.14839882596391624  0.5313879402315747  1.0000
  H   H41       1.0  0.461480887276139  0.7477150721843914  0.7103010556835941  1.0000
  H   H42       1.0  0.9625877245479516  0.7103030488258925  0.7488188124085652  1.0000
  H   H43       1.0  0.5374099529665912  0.2862302303192337  0.7477147827565176  1.0000
  H   H44       1.0  0.038515140500926706  0.7488203256638782  0.2862311633863327  1.0000
  H   H45       1.0  0.5385176471166845  0.2522847301017848  0.28969877531921634  1.0000
  H   H46       1.0  0.03741293544064204  0.28969747570265264  0.2511808701700459  1.0000
  H   H47       1.0  0.4625900645241005  0.7137696518361951  0.2522851130905083  1.0000
  H   H48       1.0  0.9614842344914933  0.251178913780265  0.7137683647001436  1.0000
  H   H49       1.0  0.6121463452866254  0.8280978994161929  0.6657431726188251  1.0000
  H   H50       1.0  0.8376469366824894  0.6657443825008542  0.553594277510392  1.0000
  H   H51       1.0  0.6623530182531567  0.21595000509048393  0.828096951499397  1.0000
  H   H52       1.0  0.8878509300262964  0.5535956923949856  0.2159495508657798  1.0000
  H   H53       1.0  0.3878532519044669  0.17190226432933298  0.33425716520084586  1.0000
  H   H54       1.0  0.16235350110781616  0.3342552180644772  0.4464051763639815  1.0000
  H   H55       1.0  0.33764657893792815  0.7840501586550417  0.17190338632027374  1.0000
  H   H56       1.0  0.11214802466690085  0.4464038289774237  0.7840510002222985  1.0000
  H   H57       1.0  0.7220102901895372  0.04392178724708635  0.7409679095428032  1.0000
  H   H58       1.0  0.6970485157069816  0.7409691265919135  0.5189586124166822  1.0000
  H   H59       1.0  0.8029543782034665  0.32191249172834085  0.04392073500895308  1.0000
  H   H60       1.0  0.7779923171494264  0.5189604684674765  0.32191213783542594  1.0000
  H   H61       1.0  0.27798930700117114  0.9560783761602708  0.2590318472479111  1.0000
  H   H62       1.0  0.3029519220840912  0.25903047464974094  0.48104200351561127  1.0000
  H   H63       1.0  0.19704605958759908  0.6780871095133207  0.9560798809233402  1.0000
  H   H64       1.0  0.22200814473784186  0.4810412616143792  0.6780882154200751  1.0000
  H   H65       1.0  0.20781226585181414  0.9392227331465223  0.9048435695432814  1.0000
  H   H66       1.0  0.9656201134510242  0.9048430140527374  0.19703119110575784  1.0000
  H   H67       1.0  0.5343805312725819  0.7314123840531863  0.9392230024024997  1.0000
  H   H68       1.0  0.29218927209755213  0.19703075630861383  0.7314129562559515  1.0000
  H   H69       1.0  0.7921875294413641  0.06077622572201597  0.09515725965741248  1.0000
  H   H70       1.0  0.0343788412414057  0.09515650664334169  0.8029681979244074  1.0000
  H   H71       1.0  0.46561886781603323  0.2685889842311581  0.06077626300718458  1.0000
  H   H72       1.0  0.7078113878921926  0.8029697692344229  0.26858846940953635  1.0000
  H   H73       1.0  0.6600744235273976  0.046080009766796964  0.8337404464700313  1.0000
  H   H74       1.0  0.7876627980811935  0.8337409467382529  0.6736669115800281  1.0000
  H   H75       1.0  0.7123374341902252  0.3860047195260565  0.04608001018041112  1.0000
  H   H76       1.0  0.8399261887647144  0.6736690634143089  0.3860037941530192  1.0000
  H   H77       1.0  0.33992559396329375  0.9539198723886316  0.16625944937699436  1.0000
  H   H78       1.0  0.2123378619073932  0.16625957779029923  0.32633277099859004  1.0000
  H   H79       1.0  0.2876625833008505  0.6139951629675411  0.9539204666955711  1.0000
  H   H80       1.0  0.16007382872598447  0.3263308187411198  0.6139961016940062  1.0000
  C   C1        1.0  0.28967298153990134  0.8784348499468564  0.8994170516571527  1.0000
  C   C2        1.0  0.020983047573416503  0.8994160176139803  0.1097449456755938  1.0000
  C   C3        1.0  0.4790179620742802  0.588762364786376  0.8784348498271226  1.0000
  C   C4        1.0  0.2103283840338221  0.10974481188275581  0.5887626495008006  1.0000
  C   C5        1.0  0.7103263934532862  0.12156439017361716  0.1005836384872366  1.0000
  C   C6        1.0  0.9790173902176492  0.10058358362768166  0.8902556702566926  1.0000
  C   C7        1.0  0.5209837607129586  0.41123852153968693  0.12156592059730532  1.0000
  C   C8        1.0  0.7896716334576369  0.8902550709490028  0.41123840840413806  1.0000
  C   C9        1.0  0.23317831146010087  0.8398382800023042  0.7511284546609857  1.0000
  C   C10       1.0  0.91129122732346  0.7511270194091111  0.017950421456980194  1.0000
  C   C11       1.0  0.5887102233174205  0.6066585562454065  0.8398398426903951  1.0000
  C   C12       1.0  0.26682304189379386  0.01795140935735871  0.6066581986984829  1.0000
  C   C13       1.0  0.7668208654317682  0.16016216567147964  0.24887290616029395  1.0000
  C   C14       1.0  0.08871069356548132  0.2488726617018031  0.9820502593195214  1.0000
  C   C15       1.0  0.4112938472654122  0.39334397763889234  0.16016333212990463  1.0000
  C   C16       1.0  0.7331756906003475  0.9820471873755066  0.39334096162743726  1.0000
  C   C17       1.0  0.18922723067127137  0.885122120492838  0.7702241148680072  1.0000
  C   C18       1.0  0.8851027510515267  0.7702227891634621  0.08099704864559241  1.0000
  C   C19       1.0  0.6148967120389628  0.6958947513866676  0.8851209515857545  1.0000
  C   C20       1.0  0.310772951637162  0.08099684343287814  0.6958925584517104  1.0000
  C   C21       1.0  0.8107727868201949  0.11487776233892082  0.22977694303693136  1.0000
  C   C22       1.0  0.11489620364051933  0.22977673119444825  0.9190017593556163  1.0000
  C   C23       1.0  0.38510290924794793  0.3041075408608905  0.11487854252817441  1.0000
  C   C24       1.0  0.6892236552604417  0.9190010303812884  0.30410558824050316  1.0000
  C   C25       1.0  0.12151152747890147  0.9070193142188643  0.709262356950923  1.0000
  C   C26       1.0  0.8022424303047656  0.7092616316472301  0.08774911378137046  1.0000
  C   C27       1.0  0.6977550591912732  0.7855070093553138  0.9070189793047588  1.0000
  C   C28       1.0  0.37848645903833505  0.08774982754869852  0.7855065046351726  1.0000
  C   C29       1.0  0.8784880697125744  0.09298084986482279  0.29073856189771163  1.0000
  C   C30       1.0  0.197756944686887  0.2907376071205903  0.9122492522471928  1.0000
  C   C31       1.0  0.3022466635959661  0.2144938769707494  0.09298179111966928  1.0000
  C   C32       1.0  0.6215131140542453  0.9122482053276498  0.21449060968754435  1.0000
  C   C33       1.0  0.08748337145843983  0.9575494640748232  0.7340067815776193  1.0000
  C   C34       1.0  0.7764581802167926  0.7340059492467008  0.14652332358558348  1.0000
  C   C35       1.0  0.7235402523325475  0.8700650034991639  0.9575478536023495  1.0000
  C   C36       1.0  0.41251639871016027  0.14652142524138165  0.8700625370781124  1.0000
  C   C37       1.0  0.9125192160253591  0.04245298892573159  0.2659945853116029  1.0000
  C   C38       1.0  0.2235420353763758  0.26599272836990917  0.8534776446714218  1.0000
  C   C39       1.0  0.2764606298543272  0.12993644499259466  0.042452057680499436  1.0000
  C   C40       1.0  0.5874831502869925  0.853474479471096  0.12993600197930272  1.0000
  C   C41       1.0  0.015658264847303382  0.9728074596473207  0.6626749397625318  1.0000
  C   C42       1.0  0.6898671525479968  0.6626751138352913  0.14701502724032156  1.0000
  C   C43       1.0  0.810129061842197  0.9571474047011748  0.9728064606900159  1.0000
  C   C44       1.0  0.4843388668640857  0.147015278402236  0.9571474557240762  1.0000
  C   C45       1.0  0.9843417526433955  0.02719242250810787  0.33732495608449414  1.0000
  C   C46       1.0  0.31013180214443287  0.3373244068607876  0.8529843617898435  1.0000
  C   C47       1.0  0.1898715981467731  0.04285312016553181  0.027193802917558667  1.0000
  C   C48       1.0  0.5156609043321296  0.852981550949785  0.04285247409548983  1.0000
  C   C49       1.0  0.533849643886036  0.9510064395732484  0.8374188976955068  1.0000
  C   C50       1.0  0.8864146134503984  0.837418407643213  0.8035704797160149  1.0000
  C   C51       1.0  0.6135849250082474  0.4171558855640357  0.9510054106689836  1.0000
  C   C52       1.0  0.9661498090361249  0.8035717548338538  0.4171550472980598  1.0000
  C   C53       1.0  0.4661514364033152  0.0489938043796911  0.1625820859973288  1.0000
  C   C54       1.0  0.11358604653857181  0.1625821172235007  0.19642978389155988  1.0000
  C   C55       1.0  0.3864153146803559  0.582844920216445  0.04899413285332329  1.0000
  C   C56       1.0  0.033850208454190095  0.1964281269834132  0.5828442675200094  1.0000
  C   C57       1.0  0.4995278853044881  0.8225034351665031  0.7472641333433714  1.0000
  C   C58       1.0  0.9247610129471013  0.7472648396329191  0.7477351848168182  1.0000
  C   C59       1.0  0.5752391581392545  0.32297534484484225  0.8225048458850067  1.0000
  C   C60       1.0  0.0004703897502834912  0.7477358155491559  0.3229751362648158  1.0000
  C   C61       1.0  0.5004710693879418  0.17749608552957608  0.25273525568680105  1.0000
  C   C62       1.0  0.07523836204531875  0.2527343998112315  0.25226434326965824  1.0000
  C   C63       1.0  0.42476150185010664  0.6770251803600332  0.1774959987515173  1.0000
  C   C64       1.0  0.9995283427442417  0.2522627815218712  0.6770246050900682  1.0000
  C   C65       1.0  0.5784627267433109  0.8968650787803226  0.749916087082731  1.0000
  C   C66       1.0  0.853052007576821  0.7499168687631227  0.6714523817379429  1.0000
  C   C67       1.0  0.6469467462836179  0.31840111514820535  0.8968653492002686  1.0000
  C   C68       1.0  0.9215361155876779  0.6714534736281694  0.31840219560873345  1.0000
  C   C69       1.0  0.4215362279491188  0.10313444191575626  0.25008330194743417  1.0000
  C   C70       1.0  0.14694758961388737  0.25008329464424145  0.3285473750527714  1.0000
  C   C71       1.0  0.3530522084091956  0.6815984058860352  0.10313462085885305  1.0000
  C   C72       1.0  0.07846367970588375  0.3285454855785376  0.6815992146209169  1.0000
  C   C73       1.0  0.6316083017263878  0.896805338173671  0.7044399353619112  1.0000
  C   C74       1.0  0.8076367225749832  0.7044414989095173  0.5728292226622641  1.0000
  C   C75       1.0  0.6923637270288125  0.2651958747883468  0.8968045837559869  1.0000
  C   C76       1.0  0.8683905310529526  0.5728316012033831  0.2651958723480162  1.0000
  C   C77       1.0  0.36839171576431073  0.1031945439817576  0.29555996048511446  1.0000
  C   C78       1.0  0.19236500021148834  0.2955593867402159  0.4271703857042439  1.0000
  C   C79       1.0  0.3076352276643849  0.7348036465840553  0.10319596733209832  1.0000
  C   C80       1.0  0.13160842363986083  0.4271679198308647  0.7348040977111124  1.0000
  C   C81       1.0  0.7011589139529876  0.9738755547445949  0.7049513756942928  1.0000
  C   C82       1.0  0.7310774301661951  0.7049536542235942  0.5037911077965161  1.0000
  C   C83       1.0  0.7689238916954436  0.2727159342996401  0.9738752495803948  1.0000
  C   C84       1.0  0.7988390857872719  0.5037925949490333  0.2727155273679359  1.0000
  C   C85       1.0  0.2988400407394423  0.02612396595148432  0.29504801333587233  1.0000
  C   C86       1.0  0.26892194482622506  0.2950455852205565  0.4962084202899603  1.0000
  C   C87       1.0  0.2310754832973528  0.727283305482672  0.026124859535030867  1.0000
  C   C88       1.0  0.20116009110421382  0.4962078503865898  0.7272852524243872  1.0000
  C   C89       1.0  0.7527180636086401  0.9686646589392467  0.6563044964961263  1.0000
  C   C90       1.0  0.6876399472520588  0.6563086906578872  0.4035839473482738  1.0000
  C   C91       1.0  0.8123625111598187  0.2159485643841846  0.9686656364471418  1.0000
  C   C92       1.0  0.7472801597940377  0.40358533393283125  0.2159473049602525  1.0000
  C   C93       1.0  0.2472819538824425  0.03133522355434339  0.34369598037985577  1.0000
  C   C94       1.0  0.3123600702382562  0.34369119115937957  0.5964153674697954  1.0000
  C   C95       1.0  0.18763750633164036  0.7840513184475668  0.03133542145779702  1.0000
  C   C96       1.0  0.25271859679707376  0.5964153923165582  0.7840527547468027  1.0000
  N   N1        1.0  0.2956558498564451  0.836782629712886  0.832062651245728  1.0000
  N   N2        1.0  0.9952794780947372  0.832061166415798  0.03640652819458961  1.0000
  N   N3        1.0  0.5047196091448285  0.5411262125208153  0.836782433798028  1.0000
  N   N4        1.0  0.2043458840962842  0.03640810107131637  0.5411266681458642  1.0000
  N   N5        1.0  0.7043428826384643  0.16321596769630994  0.16793767113811242  1.0000
  N   N6        1.0  0.004720119095580299  0.1679389966534046  0.9635926475671681  1.0000
  N   N7        1.0  0.49528169334203653  0.45887495471900763  0.16321761654113934  1.0000
  N   N8        1.0  0.7956547758923024  0.9635924234572286  0.458873014432754  1.0000
  N   N9        1.0  0.22720068343826233  0.9085995358720496  0.8651080565220113  1.0000
  N   N10       1.0  0.956509841390222  0.865107216709589  0.13790871489197776  1.0000
  N   N11       1.0  0.543491057417846  0.6813995955315022  0.9085989069359074  1.0000
  N   N12       1.0  0.272801997386793  0.13790906188030047  0.6813999072690251  1.0000
  N   N13       1.0  0.7727999765514826  0.09140098967098717  0.1348933691434767  1.0000
  N   N14       1.0  0.04349017610046962  0.1348926654458396  0.8620911809550407  1.0000
  N   N15       1.0  0.4565091822715175  0.3186012109253014  0.09140179864431985  1.0000
  N   N16       1.0  0.7271973776060109  0.8620901779020118  0.318600201846408  1.0000
  N   N17       1.0  0.47254053403290924  0.8571060609541165  0.8015127165150061  1.0000
  N   N18       1.0  0.944408641891975  0.801512252475426  0.8289717355409177  1.0000
  N   N19       1.0  0.5555905681488583  0.3845629313953794  0.8571058944703864  1.0000
  N   N20       1.0  0.027457470665865666  0.828973088531768  0.3845622517227553  1.0000
  N   N21       1.0  0.5274590631581759  0.1428941027914093  0.1984876213046647  1.0000
  N   N22       1.0  0.055591795898323006  0.19848734808990534  0.17102771833346248  1.0000
  N   N23       1.0  0.44441009184011193  0.6154375934713272  0.14289436913718123  1.0000
  N   N24       1.0  0.9725414840265646  0.17102643216431096  0.6154371373074099  1.0000
  N   N25       1.0  0.5979117079541254  0.9771201291731728  0.807566212995688  1.0000
  N   N26       1.0  0.8304488593700654  0.8075669029811294  0.7096552563314231  1.0000
  N   N27       1.0  0.6695525445491199  0.3792076011423759  0.9771199930851465  1.0000
  N   N28       1.0  0.902088325432402  0.7096569910657919  0.37920693653730814  1.0000
  N   N29       1.0  0.4020883095365733  0.022879752982255846  0.1924336828513376  1.0000
  N   N30       1.0  0.16955180061852096  0.19243362154741558  0.2903444262471949  1.0000
  N   N31       1.0  0.33044769514025063  0.6207932053144276  0.022880712495073383  1.0000
  N   N32       1.0  0.09791191425657784  0.29034381505285006  0.6207931880139625  1.0000
  O   O1        1.0  0.9888999190242772  0.024180251752731908  0.6950518077504525  1.0000
  O   O2        1.0  0.670870079002356  0.6950522754904754  0.20614879214583234  1.0000
  O   O3        1.0  0.8291302016109583  0.035280733201147996  0.024180589076315876  1.0000
  O   O4        1.0  0.5110976790318633  0.2061474911235521  0.035279880555741314  1.0000
  O   O5        1.0  0.011101161264690473  0.9758199918620463  0.30494859491342635  1.0000
  O   O6        1.0  0.3291308031849098  0.30494917333944466  0.7938517001659803  1.0000
  O   O7        1.0  0.17087110087668106  0.964720434715005  0.9758206233207644  1.0000
  O   O8        1.0  0.4889018940618755  0.793850542767288  0.9647189768538452  1.0000
  O   O9        1.0  0.9823984546592825  0.938857924871293  0.5777102749777612  1.0000
  O   O10       1.0  0.6388516896307338  0.5777106459749959  0.09530707656782057  1.0000
  O   O11       1.0  0.8611440800385921  0.9564568814914198  0.938852067086451  1.0000
  O   O12       1.0  0.5176005889444114  0.09530678847863078  0.9564569827501828  1.0000
  O   O13       1.0  0.017602205329687596  0.0611425999954136  0.42228998862981365  1.0000
  O   O14       1.0  0.36115067565516773  0.42229088340050686  0.9046946426461133  1.0000
  O   O15       1.0  0.13885786494731892  0.04354492913601859  0.0611495130711788  1.0000
  O   O16       1.0  0.4823985397539089  0.904689398500274  0.043543160337797676  1.0000
  O   O17       1.0  0.8068229864443738  0.04691141327027285  0.6528349588404154  1.0000
  O   O18       1.0  0.6059217045353267  0.6528360833039886  0.3460109709712711  1.0000
  O   O19       1.0  0.8940778289568954  0.2400894305752388  0.046911506870507956  1.0000
  O   O20       1.0  0.6931772750830021  0.34601084245855424  0.24009041318229402  1.0000
  O   O21       1.0  0.1931763885484301  0.9530878265120393  0.34716515027501754  1.0000
  O   O22       1.0  0.3940785351536534  0.3471647228146538  0.6539891535799995  1.0000
  O   O23       1.0  0.10592218853379633  0.7599104515801899  0.9530883889765177  1.0000
  O   O24       1.0  0.3068227424080735  0.6539890400350431  0.7599100636936811  1.0000
  O   O25       1.0  0.7447202594622908  0.8934688484803884  0.6214939666969242  1.0000
  O   O26       1.0  0.7280263922412828  0.6215010056088701  0.37676931151957394  1.0000
  O   O27       1.0  0.7719752711315592  0.14874828402696488  0.8934694074355817  1.0000
  O   O28       1.0  0.7552701496142477  0.37677036819438575  0.14874472331542413  1.0000
  O   O29       1.0  0.25527763243187  0.10653031075634087  0.3785049155163804  1.0000
  O   O30       1.0  0.2719732049498092  0.37849915813665563  0.6232310263000969  1.0000
  O   O31       1.0  0.22802538885779458  0.8512522411779103  0.10653143720094946  1.0000
  O   O32       1.0  0.24472860697686372  0.6232303580549968  0.8512553363916311  1.0000
