data_image0
_chemical_formula_structural       FeH20C24N10O2
_chemical_formula_sum              "Fe1 H20 C24 N10 O2"
_cell_length_a       8.311610594225863
_cell_length_b       7.916206048339632
_cell_length_c       9.489032145032537
_cell_angle_alpha    100.95383810783957
_cell_angle_beta     102.20275874046439
_cell_angle_gamma    97.09467864504441

_space_group_name_H-M_alt    "P 1"
_space_group_IT_number       1

loop_
  _space_group_symop_operation_xyz
  'x, y, z'

loop_
  _atom_site_type_symbol
  _atom_site_label
  _atom_site_symmetry_multiplicity
  _atom_site_fract_x
  _atom_site_fract_y
  _atom_site_fract_z
  _atom_site_occupancy
  Fe  Fe1       1.0  0.0004541885410276125  0.9995870396932033  0.9993753538993532  1.0000
  H   H1        1.0  0.9406701099792297  0.24624624296135514  0.8413942215307557  1.0000
  H   H2        1.0  0.06035778762751682  0.7551906030853673  0.15895219445871334  1.0000
  H   H3        1.0  0.134510804988885  0.2181746626441878  0.8549963563058827  1.0000
  H   H4        1.0  0.8658878777746465  0.7816348935699936  0.143239770257118  1.0000
  H   H5        1.0  0.8209434758907361  0.2962605673161818  0.06338240159883667  1.0000
  H   H6        1.0  0.18106881840357397  0.703404512923619  0.9347061226069259  1.0000
  H   H7        1.0  0.8218508434434  0.5288198323472599  0.274597190815399  1.0000
  H   H8        1.0  0.179221377170208  0.47030290495027316  0.7234781726037767  1.0000
  H   H9        1.0  0.15280849075637798  0.27091713946369117  0.5493039523056353  1.0000
  H   H10       1.0  0.8455721821435133  0.7265689107128284  0.4495618524091541  1.0000
  H   H11       1.0  0.1366814489569563  0.05127348665916289  0.32411251662181684  1.0000
  H   H12       1.0  0.8625261876091627  0.946635127217675  0.6747972249303656  1.0000
  H   H13       1.0  0.7447675314631041  0.10285223296222769  0.5517207409893886  1.0000
  H   H14       1.0  0.2560714398505297  0.9001651865522433  0.4498042884615075  1.0000
  H   H15       1.0  0.5554973255367912  0.22823638917357408  0.3835697289823656  1.0000
  H   H16       1.0  0.44480624930756113  0.7742072015978821  0.6180559277606008  1.0000
  H   H17       1.0  0.5905982747426961  0.6597267958660282  0.7530713965042679  1.0000
  H   H18       1.0  0.4075924634479406  0.34148043776287557  0.24898348555419866  1.0000
  H   H19       1.0  0.7875050968371295  0.5203388424172389  0.90421071118692  1.0000
  H   H20       1.0  0.21185019375856476  0.4818137093684172  0.097576268630192  1.0000
  C   C1        1.0  0.6290563180765147  0.9971825245752938  0.8741064662001677  1.0000
  C   C2        1.0  0.3713867935546205  0.0022184459915947996  0.1266232531307878  1.0000
  C   C3        1.0  0.3863047484569435  0.10674596507983132  0.7929641797091449  1.0000
  C   C4        1.0  0.6132771178884155  0.8912908129614081  0.20693347112613478  1.0000
  C   C5        1.0  0.8933892882004032  0.2961166956194532  0.1730261131010451  1.0000
  C   C6        1.0  0.10769651147374046  0.7029428536770296  0.8252679884629046  1.0000
  C   C7        1.0  0.8952796055710689  0.4268605752431397  0.29368715414110363  1.0000
  C   C8        1.0  0.10521225210927546  0.5718581637652633  0.7046418263406125  1.0000
  C   C9        1.0  0.9928502964582151  0.42794127046646924  0.434606873792184  1.0000
  C   C10       1.0  0.006723244800198804  0.5702464352140595  0.563944769977674  1.0000
  C   C11       1.0  0.07718238298195959  0.2854008386164039  0.44474435559175873  1.0000
  C   C12       1.0  0.9218669059314094  0.7124831097245661  0.5539950336168218  1.0000
  C   C13       1.0  0.0685748205224641  0.15944716121650515  0.3188367887319927  1.0000
  C   C14       1.0  0.9310357762287181  0.8387153478192815  0.6798927497738347  1.0000
  C   C15       1.0  0.7073567075447256  0.22641370064975766  0.5937344370437572  1.0000
  C   C16       1.0  0.29287500791483717  0.7761941283224657  0.4079359458712872  1.0000
  C   C17       1.0  0.5987872339927588  0.2979886345708279  0.4985518193657583  1.0000
  C   C18       1.0  0.4010884499879594  0.7042817681763438  0.5031361306870892  1.0000
  C   C19       1.0  0.5538632755482878  0.4587898824879203  0.551045704219412  1.0000
  C   C20       1.0  0.44531004611274483  0.5429983234686588  0.4508507544775142  1.0000
  C   C21       1.0  0.6193498213302816  0.5358418693977074  0.7018861158865874  1.0000
  C   C22       1.0  0.3794146678646301  0.46575875312957044  0.3000553271063566  1.0000
  C   C23       1.0  0.7291749155816304  0.45633247160716905  0.7889311764849225  1.0000
  C   C24       1.0  0.27013956052487487  0.5457566857275465  0.2129157491573608  1.0000
  N   N1        1.0  0.7689384418925795  0.9833135179385478  0.9202514251135696  1.0000
  N   N2        1.0  0.23191251620990266  0.015678766013323298  0.0783374784320188  1.0000
  N   N3        1.0  0.4715080295843351  0.9849553383009847  0.8169585804502546  1.0000
  N   N4        1.0  0.5281853316649218  0.014263983817990303  0.186836684707508  1.0000
  N   N5        1.0  0.29313580191631416  0.20379265249760437  0.763836914720379  1.0000
  N   N6        1.0  0.7060097615447559  0.792928907462141  0.23317671576597124  1.0000
  N   N7        1.0  0.981983633243814  0.16442203352352183  0.18231172569583257  1.0000
  N   N8        1.0  0.018650270616781525  0.834306603784846  0.8162045973121083  1.0000
  N   N9        1.0  0.7746394157477211  0.30388516151676737  0.736399435326625  1.0000
  N   N10       1.0  0.2253409289233019  0.698635326044382  0.2653137076442817  1.0000
  O   O1        1.0  0.04547717676243932  0.22863913293747376  0.9113155396360639  1.0000
  O   O2        1.0  0.9557842549021839  0.7715298141390575  0.08784141704688146  1.0000
