data_image0
_chemical_formula_structural       Hg2H40C52S4I4N12
_chemical_formula_sum              "Hg2 H40 C52 S4 I4 N12"
_cell_length_a       8.532702011309189
_cell_length_b       12.410552133692244
_cell_length_c       13.90325677635623
_cell_angle_alpha    110.16995548047433
_cell_angle_beta     93.00139539856107
_cell_angle_gamma    97.75152515402215

_space_group_name_H-M_alt    "P 1"
_space_group_IT_number       1

loop_
  _space_group_symop_operation_xyz
  'x, y, z'

loop_
  _atom_site_type_symbol
  _atom_site_label
  _atom_site_symmetry_multiplicity
  _atom_site_fract_x
  _atom_site_fract_y
  _atom_site_fract_z
  _atom_site_occupancy
  Hg  Hg1       1.0  0.055558715253198394  0.24452051084591622  0.3631647084051223  1.0000
  Hg  Hg2       1.0  0.9444412894925592  0.7554767249432004  0.6368317585333827  1.0000
  H   H1        1.0  0.5662812991237303  0.9214477389612485  0.6356008427900406  1.0000
  H   H2        1.0  0.4337227818999523  0.078552103238053  0.3644001649417703  1.0000
  H   H3        1.0  0.8669564684232612  0.0262731836105417  0.3979727472780752  1.0000
  H   H4        1.0  0.1330338739887154  0.9737283115764086  0.6020269090947608  1.0000
  H   H5        1.0  0.9802053639301819  0.357937620747343  0.6183677799282847  1.0000
  H   H6        1.0  0.019796365436086216  0.6420622276227946  0.38163027892216655  1.0000
  H   H7        1.0  0.7983197056894442  0.3045249081194257  0.7369606301274345  1.0000
  H   H8        1.0  0.2016830162530709  0.6954740727950082  0.2630379073233726  1.0000
  H   H9        1.0  0.646501588631054  0.1040105181894972  0.6816949299147481  1.0000
  H   H10       1.0  0.3534958056150614  0.8959910317906079  0.318304245440615  1.0000
  H   H11       1.0  0.459242376202603  0.7076521406343588  0.5557867377879049  1.0000
  H   H12       1.0  0.5407646830326129  0.2923450879200402  0.4442171407698297  1.0000
  H   H13       1.0  0.6673396243651338  0.8118186649835266  0.17127136630463724  1.0000
  H   H14       1.0  0.3326575871112993  0.1881820093484947  0.828728248235258  1.0000
  H   H15       1.0  0.8499102814711889  0.810609267933465  0.2377630457091726  1.0000
  H   H16       1.0  0.1500835089748449  0.18939748061001888  0.7622362069254152  1.0000
  H   H17       1.0  0.5739428868418345  0.5954909337252872  0.007032483438834346  1.0000
  H   H18       1.0  0.4260602011228158  0.4045097872075092  0.9929666106677715  1.0000
  H   H19       1.0  0.6733208713563669  0.48989864908127595  0.8411064098419346  1.0000
  H   H20       1.0  0.32668772828133535  0.5101003502394476  0.15889519473770966  1.0000
  H   H21       1.0  0.9609890586489768  0.5247373837338429  0.8196288393462936  1.0000
  H   H22       1.0  0.0390214486203035  0.4752650981770898  0.18037463547319282  1.0000
  H   H23       1.0  0.053099103574943726  0.7631801528613666  0.13284734784296862  1.0000
  H   H24       1.0  0.9469020009269613  0.23682226351055394  0.8671558116499085  1.0000
  H   H25       1.0  0.21194127062769036  0.6992612954850512  0.8954113640518386  1.0000
  H   H26       1.0  0.7880649790423392  0.3007376705342324  0.10459231423343598  1.0000
  H   H27       1.0  0.24432841084173165  0.5807390256924165  0.9333966197736743  1.0000
  H   H28       1.0  0.7556744960429995  0.41926078012002677  0.06660793610444672  1.0000
  H   H29       1.0  0.11847510313516102  0.020919414617168293  0.9372876884859238  1.0000
  H   H30       1.0  0.8815274355548935  0.9790787019269873  0.06270985312456666  1.0000
  H   H31       1.0  0.3032038987007297  0.19630997383426765  0.05618359032165899  1.0000
  H   H32       1.0  0.6967905958203391  0.803688949733534  0.9438146712183694  1.0000
  H   H33       1.0  0.3829773253907902  0.32024817421288526  0.2073732947160565  1.0000
  H   H34       1.0  0.6170190772446418  0.6797542206673342  0.7926282720886634  1.0000
  H   H35       1.0  0.583398724079963  0.48525713529598863  0.32452308058790896  1.0000
  H   H36       1.0  0.4166021966866965  0.5147444279834448  0.6754776480397879  1.0000
  H   H37       1.0  0.8522462514878839  0.4436844162635509  0.37093567923507464  1.0000
  H   H38       1.0  0.1477527609230123  0.5563136813423667  0.6290610266155028  1.0000
  H   H39       1.0  0.7144769936414265  0.0889847344379362  0.2175687959880577  1.0000
  H   H40       1.0  0.28551632577511293  0.9110141752985966  0.7824301436485683  1.0000
  C   C1        1.0  0.5833316740480967  0.8725962658263599  0.5563315099751945  1.0000
  C   C2        1.0  0.4166686976853669  0.1274026874255298  0.4436683836688147  1.0000
  C   C3        1.0  0.8487165506988887  0.08599957212688031  0.4736696912767471  1.0000
  C   C4        1.0  0.15128183636486625  0.9140011047586183  0.5263306801914  1.0000
  C   C5        1.0  0.9121334812508907  0.2707060383689138  0.5968991862409752  1.0000
  C   C6        1.0  0.08786255439683538  0.7292946390485255  0.4030989538582403  1.0000
  C   C7        1.0  0.8107792298172355  0.24051679178720772  0.662213771605991  1.0000
  C   C8        1.0  0.1892179806936269  0.759483905100403  0.33778297288419873  1.0000
  C   C9        1.0  0.7264533375374711  0.12776934470196719  0.6310139117071714  1.0000
  C   C10       1.0  0.2735401644073506  0.872230446321538  0.3689838712324942  1.0000
  C   C11       1.0  0.745763335867167  0.04713819883699699  0.5344073190832788  1.0000
  C   C12       1.0  0.25423233424121616  0.9528607272842892  0.4655916993850013  1.0000
  C   C13       1.0  0.6684895423338021  0.9237947927762631  0.4953467905432163  1.0000
  C   C14       1.0  0.3315074861315637  0.07620501154657688  0.5046525456687903  1.0000
  C   C15       1.0  0.524427707883774  0.7537346818546952  0.5121550827621135  1.0000
  C   C16       1.0  0.4755760078419513  0.2462634034095572  0.48784752085119015  1.0000
  C   C17       1.0  0.626199471112635  0.7473599882517165  0.36285240098872873  1.0000
  C   C18       1.0  0.3738040608778519  0.25263724392004144  0.6371477717593947  1.0000
  C   C19       1.0  0.7503114189743199  0.7553309548545072  0.1820706628559846  1.0000
  C   C20       1.0  0.2496871508591028  0.24467059767907529  0.8179292694276371  1.0000
  C   C21       1.0  0.8069258380915869  0.6869739771529738  0.08145105404410206  1.0000
  C   C22       1.0  0.1930754484558079  0.3130293317837242  0.9185495137269655  1.0000
  C   C23       1.0  0.7007444542422975  0.6089186597757958  0.9986751783833654  1.0000
  C   C24       1.0  0.2992596262986069  0.39108119370129646  0.0013243943235891583  1.0000
  C   C25       1.0  0.7568470286379991  0.5500276011956302  0.9052886350706898  1.0000
  C   C26       1.0  0.2431580449619375  0.4499713735479674  0.09471285126147681  1.0000
  C   C27       1.0  0.9185105611003977  0.5689070518463166  0.8935555793129167  1.0000
  C   C28       1.0  0.08149641940693898  0.43109542240417636  0.10644562472180749  1.0000
  C   C29       1.0  0.026536518444878303  0.6459390927148618  0.9756569925959937  1.0000
  C   C30       1.0  0.973466937231656  0.35406332876402064  0.024347680753393823  1.0000
  C   C31       1.0  0.9692579381796878  0.7032805552821133  0.06882206189156656  1.0000
  C   C32       1.0  0.030743531861567405  0.29672361238596784  0.9311802192322531  1.0000
  C   C33       1.0  0.1999220153341028  0.6642869337319155  0.9576981841381809  1.0000
  C   C34       1.0  0.8000826156883463  0.3357154959393398  0.04230652862703723  1.0000
  C   C35       1.0  0.3256600710883433  0.8973498170821441  0.05925179914395772  1.0000
  C   C36       1.0  0.6743393080688662  0.102650003625449  0.9407476158996957  1.0000
  C   C37       1.0  0.20859147626006086  0.0132222787491685  0.9923393567942113  1.0000
  C   C38       1.0  0.7914069105622942  0.9867784037752328  0.00766029716151436  1.0000
  C   C39       1.0  0.310214608890881  0.1103807808538519  0.058550960287583095  1.0000
  C   C40       1.0  0.6897814274810301  0.8896198796469006  0.9414493323489167  1.0000
  C   C41       1.0  0.4220657449119471  0.09212176064097122  0.1266146544554303  1.0000
  C   C42       1.0  0.5779349930850373  0.9078789269903779  0.873386513356799  1.0000
  C   C43       1.0  0.5346607735388105  0.19113493864193737  0.19919023424077412  1.0000
  C   C44       1.0  0.46533779557043436  0.8088666308083318  0.8008075455055632  1.0000
  C   C45       1.0  0.4990054103684328  0.30455647540507863  0.23076116102474487  1.0000
  C   C46       1.0  0.5009906257620855  0.6954441907345696  0.7692384140993268  1.0000
  C   C47       1.0  0.6108557449583358  0.39716114687765003  0.2948651299003373  1.0000
  C   C48       1.0  0.3891426421054192  0.6028395300078558  0.7051352415678097  1.0000
  C   C49       1.0  0.758003406114142  0.37433340121773273  0.3234173222236052  1.0000
  C   C50       1.0  0.2419956067795468  0.6256646851103939  0.6765808186518285  1.0000
  C   C51       1.0  0.6823468789268218  0.17569912980299313  0.2371047818394914  1.0000
  C   C52       1.0  0.3176487904573833  0.8242998132349868  0.7628920840915043  1.0000
  S   S1        1.0  0.6481407059631364  0.6557563070929434  0.23725699828339228  1.0000
  S   S2        1.0  0.3518610243687093  0.3442435187216121  0.7627439306167717  1.0000
  S   S3        1.0  0.3413249825363067  0.7592200868823866  0.06453608314509303  1.0000
  S   S4        1.0  0.6586786559098955  0.24078321024457242  0.9354681510197622  1.0000
  I   I1        1.0  0.2229632183113139  0.45722267127231225  0.4074172385662038  1.0000
  I   I2        1.0  0.7770346180294894  0.5427754350579264  0.5925772753312657  1.0000
  I   I3        1.0  0.06253832025858941  0.021595510457977696  0.2445919483732695  1.0000
  I   I4        1.0  0.9374615024416711  0.9784008327663685  0.7554071102870523  1.0000
  N   N1        1.0  0.929093742470812  0.19454157594082488  0.5035618932367427  1.0000
  N   N2        1.0  0.07090346852283602  0.8054591096689877  0.4964362862783034  1.0000
  N   N3        1.0  0.6881913203329333  0.8601610516725913  0.3971450274755099  1.0000
  N   N4        1.0  0.31180886814807  0.1398370372090127  0.6028538703281754  1.0000
  N   N5        1.0  0.21459690033261586  0.9053897439446247  0.9915020724616924  1.0000
  N   N6        1.0  0.7854036534463376  0.09461010187203561  0.008495229460507412  1.0000
  N   N7        1.0  0.4309985239851031  0.9846407140011094  0.12674242248984774  1.0000
  N   N8        1.0  0.568998870502398  0.015360830340092904  0.8732574703779434  1.0000
  N   N9        1.0  0.791284070789736  0.2655607242725893  0.2964012269762719  1.0000
  N   N10       1.0  0.2087112335379047  0.7344364561914319  0.7035979523486446  1.0000
  N   N11       1.0  0.5451476253468854  0.6894317354917306  0.415824051058408  1.0000
  N   N12       1.0  0.4548592503944775  0.31056463433127846  0.5841781141465746  1.0000
