data_image0
_chemical_formula_structural       Cu4H52C52N8O20
_chemical_formula_sum              "Cu4 H52 C52 N8 O20"
_cell_length_a       8.420047224701415
_cell_length_b       12.817672007526038
_cell_length_c       17.86181511543318
_cell_angle_alpha    110.99456314499531
_cell_angle_beta     94.22847825230728
_cell_angle_gamma    90.00254319151905

_space_group_name_H-M_alt    "P 1"
_space_group_IT_number       1

loop_
  _space_group_symop_operation_xyz
  'x, y, z'

loop_
  _atom_site_type_symbol
  _atom_site_label
  _atom_site_symmetry_multiplicity
  _atom_site_fract_x
  _atom_site_fract_y
  _atom_site_fract_z
  _atom_site_occupancy
  Cu  Cu1       1.0  0.5830618137068768  0.06470224420554159  0.5633486209201733  1.0000
  Cu  Cu2       1.0  0.9170857832211041  0.5016161727307632  0.4367274039020187  1.0000
  Cu  Cu3       1.0  0.4169414316531218  0.9352967262788564  0.4366669743247866  1.0000
  Cu  Cu4       1.0  0.0829032859891967  0.49839076715393543  0.5632667806334124  1.0000
  H   H1        1.0  0.41257449379146044  0.6942805758141688  0.5713741189249217  1.0000
  H   H2        1.0  0.08597655740660308  0.12277500147217771  0.4285213585916096  1.0000
  H   H3        1.0  0.5874756702500078  0.30569757434548706  0.4286254346314421  1.0000
  H   H4        1.0  0.9140024961468002  0.8772303862923106  0.5714923320444141  1.0000
  H   H5        1.0  0.6233100696360977  0.7045254843725883  0.5733806045432812  1.0000
  H   H6        1.0  0.8752675021971399  0.13099971089321358  0.4266008185087599  1.0000
  H   H7        1.0  0.3767365028671747  0.2954785541559487  0.4266189792305609  1.0000
  H   H8        1.0  0.12472073545794868  0.8690149193261334  0.5734154492498789  1.0000
  H   H9        1.0  0.5261645047700086  0.7862504934012403  0.6598000275960556  1.0000
  H   H10       1.0  0.9722870508012206  0.1266211233388788  0.3401863657907782  1.0000
  H   H11       1.0  0.4738801509497463  0.21372099178853435  0.340203756086197  1.0000
  H   H12       1.0  0.02769256371602319  0.8733694991842923  0.659823367748366  1.0000
  H   H13       1.0  0.9970832733944021  0.0613635330921056  0.5823702640420406  1.0000
  H   H14       1.0  0.5028829157985868  0.478602877104258  0.4175388083301001  1.0000
  H   H15       1.0  0.0029201291765588097  0.9386339882321408  0.4176480793165566  1.0000
  H   H16       1.0  0.4970852851695538  0.5213495819246176  0.5824315755003509  1.0000
  H   H17       1.0  0.1125429304852901  0.14863416731568424  0.6728823619196687  1.0000
  H   H18       1.0  0.38749601568979136  0.4752485998867612  0.32694327105490817  1.0000
  H   H19       1.0  0.887459524590362  0.8513822637448669  0.32713401592322805  1.0000
  H   H20       1.0  0.6124602004601413  0.5247089511749932  0.6730322728854005  1.0000
  H   H21       1.0  0.0652207129630682  0.19555463553068353  0.5914942448500751  1.0000
  H   H22       1.0  0.4345242282221378  0.6035379989418033  0.4082419872048176  1.0000
  H   H23       1.0  0.93476807981434  0.8044377241376636  0.4085071201389637  1.0000
  H   H24       1.0  0.5654617005106388  0.3964149363038983  0.5917246369486191  1.0000
  H   H25       1.0  0.7419755636813008  0.059613785238937546  0.7271526034366289  1.0000
  H   H26       1.0  0.7583184455854309  0.33322566527638026  0.2730860010231523  1.0000
  H   H27       1.0  0.2580283422596139  0.9403977750069998  0.2728647507438708  1.0000
  H   H28       1.0  0.241676651551444  0.6667721988095393  0.7268973270370649  1.0000
  H   H29       1.0  0.9429614504007517  0.17445501071490802  0.8385682897056339  1.0000
  H   H30       1.0  0.5572957670885118  0.3371375744118978  0.16176745538036386  1.0000
  H   H31       1.0  0.05705501107100021  0.8255685583255143  0.1614493751253718  1.0000
  H   H32       1.0  0.4427181871060101  0.6628652555170687  0.838216643442905  1.0000
  H   H33       1.0  0.923537999856549  0.4244540866056281  0.7271808252004843  1.0000
  H   H34       1.0  0.5777660791457677  0.6983242368491602  0.27316783452098287  1.0000
  H   H35       1.0  0.07645017998964221  0.5755488655473683  0.2728169155134026  1.0000
  H   H36       1.0  0.4222021946842602  0.30167336492941355  0.7268329602712595  1.0000
  H   H37       1.0  0.7393616024274081  0.2952548912392458  0.6189794367223198  1.0000
  H   H38       1.0  0.7617074040900251  0.6768816575467581  0.3813604744873444  1.0000
  H   H39       1.0  0.2606462613528748  0.7047408497883296  0.3810269949622693  1.0000
  H   H40       1.0  0.2382587919651584  0.3231097562377413  0.6186408150009794  1.0000
  H   H41       1.0  0.9320141610547452  0.5110980314671422  0.8751355820252582  1.0000
  H   H42       1.0  0.5687710197544718  0.6366871972304367  0.12466678254169486  1.0000
  H   H43       1.0  0.0679796098311058  0.48891353671040605  0.12486326706763144  1.0000
  H   H44       1.0  0.4312278642474682  0.36331512773330127  0.8753294651813589  1.0000
  H   H45       1.0  0.25071878572034484  0.4574067249617996  0.00018316051481552588  1.0000
  H   H46       1.0  0.7492682778246689  0.5425927807541554  0.99981194510201  1.0000
  H   H47       1.0  0.24961731612297913  0.8443672675574302  0.999451790481167  1.0000
  H   H48       1.0  0.7504066365951446  0.1556374913637555  0.0005493999423080916  1.0000
  H   H49       1.0  0.060195281960190486  0.6995589015337982  0.9042512336958237  1.0000
  H   H50       1.0  0.4394310383015636  0.7958462258024  0.09508870652266664  1.0000
  H   H51       1.0  0.939812660220369  0.3004578000379539  0.09575108978202705  1.0000
  H   H52       1.0  0.5605907462361088  0.20415094949552762  0.9049082008087834  1.0000
  C   C1        1.0  0.5070697105594065  0.8446667828001467  0.5605403459197476  1.0000
  C   C2        1.0  0.9917277493478309  0.2840736604418553  0.4395167831717329  1.0000
  C   C3        1.0  0.49296235325244436  0.15532789221683868  0.43947591926994517  1.0000
  C   C4        1.0  0.0082628043990667  0.7159299395810661  0.5604816076705317  1.0000
  C   C5        1.0  0.5158975660768094  0.7517989016605354  0.5939230740791144  1.0000
  C   C6        1.0  0.982626344360142  0.1578621784091112  0.4060572756175985  1.0000
  C   C7        1.0  0.4841417395187193  0.24818507750337904  0.4060806971908163  1.0000
  C   C8        1.0  0.017358521328475297  0.8421437787756004  0.5939527690002107  1.0000
  C   C9        1.0  0.24763158334766194  0.07700980693407887  0.5702176547451356  1.0000
  C   C10       1.0  0.2522745059004734  0.5062542377752379  0.4295625892089773  1.0000
  C   C11       1.0  0.7523654940962315  0.9229905169230929  0.42979342103832596  1.0000
  C   C12       1.0  0.7476990848316518  0.49374404048553794  0.5704195077615779  1.0000
  C   C13       1.0  0.09579981949939048  0.122242601596966  0.6073246986561927  1.0000
  C   C14       1.0  0.40414597441404954  0.5144164656724044  0.392493689288841  1.0000
  C   C15       1.0  0.9042007688258878  0.8777623043308436  0.39269099697893467  1.0000
  C   C16       1.0  0.5958266551667109  0.4855444954969741  0.6074785321242544  1.0000
  C   C17       1.0  0.786708877001047  0.14116231510133279  0.7303514475905002  1.0000
  C   C18       1.0  0.7136978042955774  0.41165622445358707  0.2699107374657855  1.0000
  C   C19       1.0  0.21329574810117438  0.8588536388473001  0.2696577069549092  1.0000
  C   C20       1.0  0.2862965116415168  0.5883357826386371  0.7300767863508566  1.0000
  C   C21       1.0  0.8965220756407036  0.20492084967528962  0.7918512938056279  1.0000
  C   C22       1.0  0.6039045925617401  0.41419500621645966  0.20846273586271735  1.0000
  C   C23       1.0  0.10349405841729718  0.7951045744962784  0.2081589794551205  1.0000
  C   C24       1.0  0.39610412106980425  0.5857956862802991  0.791525964001458  1.0000
  C   C25       1.0  0.9470622972892501  0.3094149689486726  0.7926854399657726  1.0000
  C   C26       1.0  0.5535601818974315  0.5179092561070888  0.20768647451559727  1.0000
  C   C27       1.0  0.05294034565982031  0.690606585963877  0.20730747324590476  1.0000
  C   C28       1.0  0.44644401325320615  0.4820774453149993  0.7923040995907724  1.0000
  C   C29       1.0  0.8867717809111467  0.345207270328295  0.7311843362543725  1.0000
  C   C30       1.0  0.6141993057372943  0.6150454882318002  0.26914943053244395  1.0000
  C   C31       1.0  0.11322189426490331  0.65480130360541  0.2688072789906143  1.0000
  C   C32       1.0  0.3857821590804065  0.3849459568851044  0.7308451274221637  1.0000
  C   C33       1.0  0.7822792827242538  0.273707909039892  0.670417043814062  1.0000
  C   C34       1.0  0.7185649843975668  0.6040731091577527  0.32990540960088305  1.0000
  C   C35       1.0  0.2177231688933219  0.7262988626708164  0.3295853715795331  1.0000
  C   C36       1.0  0.2814104726357414  0.3959219928265936  0.6700928498422271  1.0000
  C   C37       1.0  0.07416133854294321  0.3761609173151539  0.8544757245005526  1.0000
  C   C38       1.0  0.42630583039447595  0.5230453202321782  0.14602121827407183  1.0000
  C   C39       1.0  0.9258436288110161  0.6238461639563154  0.14553121056862028  1.0000
  C   C40       1.0  0.5736908162382194  0.47695441993779747  0.8539757928080148  1.0000
  C   C41       1.0  0.14634475914869682  0.569135521771322  0.9456038979984454  1.0000
  C   C42       1.0  0.3541589845859505  0.6239666098663716  0.0543043379715158  1.0000
  C   C43       1.0  0.8536640954589032  0.4308835012556358  0.054393187150594685  1.0000
  C   C44       1.0  0.6458525707988015  0.3760452992043495  0.9456922992632283  1.0000
  C   C45       1.0  0.25043264881402655  0.5418325857913544  4.955798230104472e-05  1.0000
  C   C46       1.0  0.749570725839  0.45817970460388574  0.9999525312020693  1.0000
  C   C47       1.0  0.14306379854932771  0.6789128409641378  0.9464062084706341  1.0000
  C   C48       1.0  0.3568184610687127  0.7327399927569686  0.053106391994504065  1.0000
  C   C49       1.0  0.856945161839164  0.3211064668409875  0.05359453303294258  1.0000
  C   C50       1.0  0.6431931303708113  0.26727129322642157  0.9468904584329036  1.0000
  C   C51       1.0  0.24982224839695277  0.7593901178593042  0.9996303724542555  1.0000
  C   C52       1.0  0.7501939980549538  0.2406232222749267  0.00036601721837569253  1.0000
  N   N1        1.0  0.7317296290604958  0.1741452215010495  0.669928777281555  1.0000
  N   N2        1.0  0.7688250171206618  0.5049315807055662  0.3303337034564534  1.0000
  N   N3        1.0  0.2682834858911675  0.8258658541880661  0.33007796548169915  1.0000
  N   N4        1.0  0.2311551097629945  0.495058557883617  0.6696544841853722  1.0000
  N   N5        1.0  0.0433733927760827  0.48684930048869984  0.8889588739816146  1.0000
  N   N6        1.0  0.4572523287766828  0.5988579858380235  0.11117689050551857  1.0000
  N   N7        1.0  0.9566356344177648  0.5131671625270967  0.1110398378474926  1.0000
  N   N8        1.0  0.5427525813056917  0.40114332406210446  0.8888200071318335  1.0000
  O   O1        1.0  0.5775817155360984  0.9371913963503283  0.6031732348756406  1.0000
  O   O2        1.0  0.9214655580538604  0.3341948944504621  0.3969232495584264  1.0000
  O   O3        1.0  0.4224934321201487  0.06278939075227892  0.3968289396528205  1.0000
  O   O4        1.0  0.07855950512392697  0.66580580559809  0.6030696302893828  1.0000
  O   O5        1.0  0.43240299855190056  0.8225521551129801  0.4914924646564954  1.0000
  O   O6        1.0  0.06617057292634598  0.3307841780174813  0.5086262517526947  1.0000
  O   O7        1.0  0.567542642266936  0.17747090468926513  0.5085450166706875  1.0000
  O   O8        1.0  0.9338103338482711  0.6692257849955751  0.49137773613514896  1.0000
  O   O9        1.0  0.3783064926504665  0.11699657639173464  0.6114386659033497  1.0000
  O   O10       1.0  0.12164856131301603  0.5051882645432997  0.38835082554190575  1.0000
  O   O11       1.0  0.6216873094844929  0.8829606051211272  0.3885928747272445  1.0000
  O   O12       1.0  0.8783236801051685  0.4948253840856083  0.6116484746116697  1.0000
  O   O13       1.0  0.23335083368055354  0.0033496078193166407  0.49932317753532357  1.0000
  O   O14       1.0  0.266445461896744  0.5031427490922977  0.5004018257837045  1.0000
  O   O15       1.0  0.7666487148095699  0.9966896676649666  0.5006733113077855  1.0000
  O   O16       1.0  0.7335361153148625  0.49683661198726264  0.4995788485827929  1.0000
  O   O17       1.0  0.19739318088741695  0.330528018752325  0.8687669933785  1.0000
  O   O18       1.0  0.3027723119728378  0.46353947814436214  0.13213680577178616  1.0000
  O   O19       1.0  0.8026209339761367  0.6694830213663253  0.1312338160076933  1.0000
  O   O20       1.0  0.6972183570887296  0.5364557904960563  0.867853174318732  1.0000
