data_image0
_chemical_formula_structural       Zn8H66C84N6O32
_chemical_formula_sum              "Zn8 H66 C84 N6 O32"
_cell_length_a       20.79583880893432
_cell_length_b       21.428839552918543
_cell_length_c       21.532550261806517
_cell_angle_alpha    90.01985525024365
_cell_angle_beta     118.67327596219619
_cell_angle_gamma    119.03585488701371

_space_group_name_H-M_alt    "P 1"
_space_group_IT_number       1

loop_
  _space_group_symop_operation_xyz
  'x, y, z'

loop_
  _atom_site_type_symbol
  _atom_site_label
  _atom_site_symmetry_multiplicity
  _atom_site_fract_x
  _atom_site_fract_y
  _atom_site_fract_z
  _atom_site_occupancy
  Zn  Zn1       1.0  0.930322521021097  0.9645508425083662  0.04373203098554508  1.0000
  Zn  Zn2       1.0  0.06964406465758088  0.11298614922865367  0.04764193252720618  1.0000
  Zn  Zn3       1.0  0.9339469793877978  0.9754668373183787  0.9005048275006043  1.0000
  Zn  Zn4       1.0  0.09072291388454798  0.9715492965419089  0.04841185594352735  1.0000
  Zn  Zn5       1.0  0.08538341469540707  0.5431458976256635  0.4748307465143212  1.0000
  Zn  Zn6       1.0  0.9344309569213536  0.39970440020606895  0.47357115903573543  1.0000
  Zn  Zn7       1.0  0.9305583200236072  0.5476393428252706  0.4755215465894195  1.0000
  Zn  Zn8       1.0  0.08012452216859602  0.5374928582489816  0.6190832823278001  1.0000
  H   H1        1.0  0.9384456569678717  0.05413362493896298  0.2221346178297379  1.0000
  H   H2        1.0  0.938303768346664  0.12751581207754006  0.3143582021168712  1.0000
  H   H3        1.0  0.03575821622179378  0.24686466317898947  0.15190186541118317  1.0000
  H   H4        1.0  0.06053742196155548  0.4322965646981842  0.3003184831956743  1.0000
  H   H5        1.0  0.0833826016349875  0.34832779120047513  0.17502090822036107  1.0000
  H   H6        1.0  0.16541121426315178  0.48165919366976323  0.2012161777686997  1.0000
  H   H7        1.0  0.1309646676259107  0.4956357051787351  0.25766625648982705  1.0000
  H   H8        1.0  0.20056694792490506  0.46141093589492505  0.2872755474965629  1.0000
  H   H9        1.0  0.9986832811611562  0.39881685382684395  0.09345797349641305  1.0000
  H   H10       1.0  0.9647703131158352  0.4033983620505025  0.15411556493713632  1.0000
  H   H11       1.0  0.9280251029419873  0.3148598977850128  0.10315783573703631  1.0000
  H   H12       1.0  0.6749320558103946  0.8962991131434421  0.94104802968301  1.0000
  H   H13       1.0  0.5084988193795326  0.8180226932290751  0.8723838768855571  1.0000
  H   H14       1.0  0.6568422637030409  0.7915846536435964  0.7589812767841053  1.0000
  H   H15       1.0  0.34818341314853274  0.6147928406878334  0.5890070815825722  1.0000
  H   H16       1.0  0.5809609582726125  0.7143351870456768  0.6717968914300414  1.0000
  H   H17       1.0  0.5042036409676527  0.6624207148861885  0.5384156001577408  1.0000
  H   H18       1.0  0.40052006742743623  0.6289566655790961  0.524503350863334  1.0000
  H   H19       1.0  0.48025637603696214  0.7272726500458404  0.5560807864437434  1.0000
  H   H20       1.0  0.5254529746010232  0.5810870263897953  0.6260171733380558  1.0000
  H   H21       1.0  0.42549607244067283  0.55185021270767  0.61862584915999  1.0000
  H   H22       1.0  0.5262264860315325  0.5977257152278312  0.7075350307834896  1.0000
  H   H23       1.0  0.850648292113405  0.781109595476529  0.10434717291283145  1.0000
  H   H24       1.0  0.8267075198663605  0.6927940585113888  0.18056191270753155  1.0000
  H   H25       1.0  0.12288352777541417  0.8592631149963167  0.22315302058974126  1.0000
  H   H26       1.0  0.15299351728719296  0.7231604832071524  0.3993061725120056  1.0000
  H   H27       1.0  0.20642446019994054  0.8454957489796086  0.29446007095668847  1.0000
  H   H28       1.0  0.31396479239683805  0.8131513514582732  0.3536546776290661  1.0000
  H   H29       1.0  0.2576844773373706  0.7519981948740617  0.39076792569028374  1.0000
  H   H30       1.0  0.20801572320320344  0.729618255872232  0.29286387763692534  1.0000
  H   H31       1.0  0.32797252695331747  0.9212767785537679  0.4262028827058301  1.0000
  H   H32       1.0  0.2629422730563959  0.8585309837288334  0.45689906703401556  1.0000
  H   H33       1.0  0.2301948178994945  0.9139457022358566  0.4053922892347044  1.0000
  H   H34       1.0  0.1599854697260739  0.26465472403197043  0.9465385602935753  1.0000
  H   H35       1.0  0.18743599788265183  0.35630598992539564  0.8736966265595995  1.0000
  H   H36       1.0  0.8969815405770803  0.11438249948524505  0.7586546438566443  1.0000
  H   H37       1.0  0.8720286001153638  0.247569310290764  0.5803206336615006  1.0000
  H   H38       1.0  0.8244334316726238  0.0946490918568514  0.6559794647299667  1.0000
  H   H39       1.0  0.722592225447734  0.05027289433954959  0.5237217010616889  1.0000
  H   H40       1.0  0.7677267994893243  0.14122912515771446  0.5142279792063036  1.0000
  H   H41       1.0  0.8309559540241551  0.10109521523456519  0.5424594442285198  1.0000
  H   H42       1.0  0.6917573167671165  0.0995523760307506  0.6107864253787483  1.0000
  H   H43       1.0  0.7514178940515421  0.19349598703271906  0.6107358959578235  1.0000
  H   H44       1.0  0.7829876907254772  0.1717386798514653  0.6961683173124343  1.0000
  H   H45       1.0  0.3113884414534737  0.2595708205078821  0.22850333495091485  1.0000
  H   H46       1.0  0.4733672219554493  0.3589198995150937  0.3183830004008144  1.0000
  H   H47       1.0  0.37624846119090455  0.12041881654008078  0.16455194964419917  1.0000
  H   H48       1.0  0.68927948686175  0.26738444444702475  0.3068695450408752  1.0000
  H   H49       1.0  0.46807119202149755  0.11007005511891778  0.1884352341099671  1.0000
  H   H50       1.0  0.5687612798179842  0.07129798242519307  0.22461938368682138  1.0000
  H   H51       1.0  0.6624126178964432  0.16308137465457404  0.2787088442388566  1.0000
  H   H52       1.0  0.5875269267212248  0.11635455330095817  0.3066066119946028  1.0000
  H   H53       1.0  0.5306958760002303  0.1234205623226359  0.11120511757977164  1.0000
  H   H54       1.0  0.6164457401878138  0.21757014852050094  0.168079650733425  1.0000
  H   H55       1.0  0.5055091623835253  0.1917919462878643  0.11236610125790478  1.0000
  H   H56       1.0  0.9806180148608377  0.913239261906476  0.7589751216726411  1.0000
  H   H57       1.0  0.9726384800826081  0.8380316930714855  0.6617912135146822  1.0000
  H   H58       1.0  0.06091052767279591  0.797133806762595  0.9093960984984975  1.0000
  H   H59       1.0  0.05467088635813873  0.621059096934147  0.7669769415777948  1.0000
  H   H60       1.0  0.09511843494422571  0.729987183880574  0.9226310763515642  1.0000
  H   H61       1.0  0.1665257478281746  0.663613955766415  0.9635223970413589  1.0000
  H   H62       1.0  0.12861177051361483  0.6209551197995608  0.8724370590768372  1.0000
  H   H63       1.0  0.2052885439583676  0.7196090720352615  0.9130988009071785  1.0000
  H   H64       1.0  0.0017237524822774346  0.5986601248374795  0.9191910230717965  1.0000
  H   H65       1.0  0.964502339715487  0.5655370927450389  0.8252200143768745  1.0000
  H   H66       1.0  0.9360993229838571  0.6238044495127253  0.8489075122530422  1.0000
  C   C1        1.0  0.9902964618723118  0.106556378167241  0.1294998474696456  1.0000
  C   C2        1.0  0.9878656804143378  0.1482257124074238  0.18291143550626293  1.0000
  C   C3        1.0  0.95936824616728  0.11239040484510102  0.22768594733041425  1.0000
  C   C4        1.0  0.959217224626542  0.15232464375396396  0.2779613679904854  1.0000
  C   C5        1.0  0.9863390545041  0.2274506617698933  0.28482637576698266  1.0000
  C   C6        1.0  0.014822814647793281  0.26343867650270164  0.23943117668421368  1.0000
  C   C7        1.0  0.014990136142976996  0.22271739576450503  0.18840065137406004  1.0000
  C   C8        1.0  0.03934629503627458  0.3742597842044688  0.29696601093613134  1.0000
  C   C9        1.0  0.011543080601903418  0.3433038605641697  0.34215727450578015  1.0000
  C   C10       1.0  0.011375203251112943  0.39206469280285455  0.3910695921853388  1.0000
  C   C11       1.0  0.9832965555119771  0.2658308603707056  0.34015095470050494  1.0000
  C   C12       1.0  0.06494603125428  0.3782409678760743  0.19718610311440438  1.0000
  C   C13       1.0  0.14507389804094123  0.4588944217069226  0.2389247449270471  1.0000
  C   C14       1.0  0.9841558392606232  0.37332822798967397  0.1331038836346679  1.0000
  C   C15       1.0  0.7710602357276101  0.8958155450407542  0.8926342031603763  1.0000
  C   C16       1.0  0.6731685782961705  0.8475774825109993  0.852121838252387  1.0000
  C   C17       1.0  0.6333939040566391  0.8557440160043369  0.8863074779263868  1.0000
  C   C18       1.0  0.5428687360275503  0.8128876733440791  0.8492434848345523  1.0000
  C   C19       1.0  0.4900307544043656  0.7599708318631428  0.7792144378203503  1.0000
  C   C20       1.0  0.5300937901500689  0.7496432230268084  0.7457880132077577  1.0000
  C   C21       1.0  0.622394963568091  0.7952633748248272  0.7826276190018219  1.0000
  C   C22       1.0  0.38699444977784475  0.6559950567097629  0.6428452031998403  1.0000
  C   C23       1.0  0.34318700748906383  0.6637960647455826  0.6706616268133061  1.0000
  C   C24       1.0  0.24544146660587524  0.6161000168090139  0.6237312492782151  1.0000
  C   C25       1.0  0.3928480546079669  0.7176815914502086  0.7430722532803598  1.0000
  C   C26       1.0  0.5101544735355644  0.6720436086749472  0.6410155095746858  1.0000
  C   C27       1.0  0.4711024626206352  0.6728441204167837  0.5602961618405116  1.0000
  C   C28       1.0  0.49602218358432987  0.5962054947697197  0.6489719454018399  1.0000
  C   C29       1.0  8.54274820412448e-05  0.8758412288591444  0.11413757197953335  1.0000
  C   C30       1.0  0.9884948689684946  0.8239133340615864  0.159972554682831  1.0000
  C   C31       1.0  0.9041306662142431  0.7779036801582534  0.14720551522628966  1.0000
  C   C32       1.0  0.8910587321128745  0.7299474754175179  0.189019014347771  1.0000
  C   C33       1.0  0.9606719697492851  0.7270630035997814  0.2450478058715646  1.0000
  C   C34       1.0  0.046162061868663694  0.7741500866138791  0.2588832461620355  1.0000
  C   C35       1.0  0.05897363179067116  0.8221062816308444  0.21517427300928185  1.0000
  C   C36       1.0  0.09720176498373678  0.7232186367776164  0.35575335426149474  1.0000
  C   C37       1.0  0.016814855404952204  0.6763100220226476  0.3461739925350215  1.0000
  C   C38       1.0  0.013928031296970393  0.6287052316104821  0.39647214825006927  1.0000
  C   C39       1.0  0.9399481100988323  0.6732687520757494  0.28715198230184297  1.0000
  C   C40       1.0  0.20768991087345484  0.8201516596172735  0.33881317481818474  1.0000
  C   C41       1.0  0.24871081602530148  0.7756682490893638  0.3442854364726386  1.0000
  C   C42       1.0  0.26019993704450434  0.882223504820935  0.4110753551207438  1.0000
  C   C43       1.0  0.011374952456414183  0.1311448669172179  0.8987385192151149  1.0000
  C   C44       1.0  0.0263824022691921  0.1848474614165241  0.8552689612898021  1.0000
  C   C45       1.0  0.10917215091014745  0.25299070044783883  0.8895500746548919  1.0000
  C   C46       1.0  0.1241532910099536  0.3031450924882648  0.850020363143109  1.0000
  C   C47       1.0  0.05772707463235343  0.28813452519943883  0.7770110716775633  1.0000
  C   C48       1.0  0.974239242285023  0.2194114847898518  0.7423159987773859  1.0000
  C   C49       1.0  0.9596646746160147  0.16776829984174674  0.7822716161216547  1.0000
  C   C50       1.0  0.9257582253107941  0.26009587627604697  0.6360520410200791  1.0000
  C   C51       1.0  0.003603405842795727  0.3289044734372481  0.6666174993905684  1.0000
  C   C52       1.0  0.0053546944699575825  0.381282995417429  0.621362014111277  1.0000
  C   C53       1.0  0.07881789060177614  0.34692813613547446  0.739807226528022  1.0000
  C   C54       1.0  0.8187128013342146  0.13670877100821596  0.6290877933635526  1.0000
  C   C55       1.0  0.7836075401025226  0.1061556108222419  0.5477038406849104  1.0000
  C   C56       1.0  0.7577095309343775  0.1512619544364213  0.6374414572216409  1.0000
  C   C57       1.0  0.2400684299624629  0.1270143484269397  0.13889838062865317  1.0000
  C   C58       1.0  0.3362826063992017  0.18451899386202086  0.19247412076491335  1.0000
  C   C59       1.0  0.36201701170509176  0.25177492047466626  0.23508309153562118  1.0000
  C   C60       1.0  0.45043368738586037  0.3062106710044147  0.2839615696284666  1.0000
  C   C61       1.0  0.5155562293466005  0.2965309266034311  0.2913650618841999  1.0000
  C   C62       1.0  0.4896913002684116  0.22889365373814738  0.248175984840003  1.0000
  C   C63       1.0  0.3994689380359304  0.1730092891986317  0.19908874518534958  1.0000
  C   C64       1.0  0.6411313865185518  0.2770376651433181  0.3034585862078032  1.0000
  C   C65       1.0  0.6719470333900331  0.3443438718161004  0.34687431251543893  1.0000
  C   C66       1.0  0.7696806592228428  0.396119000288742  0.39511814650508364  1.0000
  C   C67       1.0  0.6096444251751193  0.35890590053450916  0.3451680088724628  1.0000
  C   C68       1.0  0.5369025759248417  0.1542495332087057  0.2109510876546992  1.0000
  C   C69       1.0  0.5925947023495084  0.12513355363223158  0.25848140428950467  1.0000
  C   C70       1.0  0.5477955179544054  0.1728832931883986  0.1466728857080284  1.0000
  C   C71       1.0  0.024363526031962103  0.9031943643507888  0.8949944455172484  1.0000
  C   C72       1.0  0.02184938182575259  0.8586100656050062  0.8393597604248271  1.0000
  C   C73       1.0  0.996145296537506  0.8711164556410509  0.7695986535802816  1.0000
  C   C74       1.0  0.9913022057166643  0.82994498510255  0.7163666853645905  1.0000
  C   C75       1.0  0.009459408925174292  0.7745569717928404  0.729728705113736  1.0000
  C   C76       1.0  0.034868635607644145  0.761386045389713  0.7997935324112504  1.0000
  C   C77       1.0  0.041701881077187856  0.8047088398092797  0.8547204054091964  1.0000
  C   C78       1.0  0.04136599296103327  0.664333436023405  0.7549755686259799  1.0000
  C   C79       1.0  0.015552447363944556  0.6726655971742587  0.685296156262602  1.0000
  C   C80       1.0  0.007379204421802385  0.6206006546294275  0.6321073455358144  1.0000
  C   C81       1.0  0.0001339550084790836  0.7317669371375783  0.667869447353098  1.0000
  C   C82       1.0  0.07234198778813539  0.6827832367627379  0.8802515784721335  1.0000
  C   C83       1.0  0.14744667242396745  0.6711202763427478  0.9083013335210308  1.0000
  C   C84       1.0  0.9885397040540126  0.6137106177056565  0.8676116058496177  1.0000
  N   N1        1.0  0.0425323584548777  0.33872492614762706  0.24756259152895407  1.0000
  N   N2        1.0  0.4754987568607162  0.6950306026515135  0.6764969189183673  1.0000
  N   N3        1.0  0.11446729325993468  0.7702795116535552  0.31567768215912634  1.0000
  N   N4        1.0  0.909166751089387  0.2057494186524735  0.6692032626053005  1.0000
  N   N5        1.0  0.555847614100486  0.22043991021726578  0.25650618717253343  1.0000
  N   N6        1.0  0.05227087356773547  0.7053788207595488  0.8112743400398371  1.0000
  O   O1        1.0  0.0095359824021912  0.004919023992322  0.0090541000595508  1.0000
  O   O2        1.0  0.02234236432167343  0.14268485373629863  0.09358378540011358  1.0000
  O   O3        1.0  0.9602976527094215  0.0373256005178249  0.123960709648003  1.0000
  O   O4        1.0  0.9630860855830788  0.3597459656824499  0.4157888168483695  1.0000
  O   O5        1.0  0.0592154465472631  0.46302722911793376  0.403203355839679  1.0000
  O   O6        1.0  0.9597078852637395  0.23262091798019213  0.37974017700637563  1.0000
  O   O7        1.0  0.8073454160242619  0.9002761454851013  0.85727010096803  1.0000
  O   O8        1.0  0.8117278311408782  0.9302993412674497  0.9611263406619271  1.0000
  O   O9        1.0  0.20490361949847372  0.6052718940114232  0.6557419500266163  1.0000
  O   O10       1.0  0.2101317284215226  0.5893767312452098  0.5539659536389934  1.0000
  O   O11       1.0  0.36122300459145845  0.731078654999102  0.773369960232962  1.0000
  O   O12       1.0  0.0718621211340107  0.9106900448277244  0.11635314884848207  1.0000
  O   O13       1.0  0.9341379649213125  0.8807898436265233  0.07488492126590529  1.0000
  O   O14       1.0  0.9522933715246678  0.603770393097065  0.4073692719084361  1.0000
  O   O15       1.0  0.07668005162469173  0.6179223308990061  0.4252972284937684  1.0000
  O   O16       1.0  0.8632501914634714  0.6299900153923799  0.2696876357652369  1.0000
  O   O17       1.0  0.9465352841294533  0.0628934747830172  0.863531039745453  1.0000
  O   O18       1.0  0.06639650033763192  0.15895302075561804  0.969095372227585  1.0000
  O   O19       1.0  0.06659964147401351  0.4501737062977255  0.6543056499787099  1.0000
  O   O20       1.0  0.9426488957560011  0.3521788349905535  0.5522352489745045  1.0000
  O   O21       1.0  0.15421654450074118  0.4039960486168041  0.7705774689103746  1.0000
  O   O22       1.0  0.21493868677286798  0.0610626812914603  0.10923657417917808  1.0000
  O   O23       1.0  0.1901526922857713  0.14995080486437468  0.1275103251034366  1.0000
  O   O24       1.0  0.8043657639536334  0.4654398688266922  0.4211730267291072  1.0000
  O   O25       1.0  0.8111932833118304  0.3641970852618286  0.4053199487149969  1.0000
  O   O26       1.0  0.6286933705414839  0.4151670238003645  0.3842469718115281  1.0000
  O   O27       1.0  0.06748398749552832  0.9074550576451373  0.9635476280930744  1.0000
  O   O28       1.0  0.9820233070716996  0.9340863424941689  0.8677503390226134  1.0000
  O   O29       1.0  0.9644944253450731  0.614264014412882  0.5635146458248811  1.0000
  O   O30       1.0  0.04412315219416748  0.5851733968271021  0.6609681570694478  1.0000
  O   O31       1.0  0.9824319885713351  0.748397431894567  0.609327528975612  1.0000
  O   O32       1.0  0.007148090288161842  0.5088053337426075  0.5101298118641893  1.0000
