data_image0
_chemical_formula_structural       Ho2H8C24O16F12
_chemical_formula_sum              "Ho2 H8 C24 O16 F12"
_cell_length_a       8.777552078742236
_cell_length_b       8.777766476478584
_cell_length_c       11.165467421858187
_cell_angle_alpha    107.2226680763358
_cell_angle_beta     110.23454961083664
_cell_angle_gamma    100.5365595463688

_space_group_name_H-M_alt    "P 1"
_space_group_IT_number       1

loop_
  _space_group_symop_operation_xyz
  'x, y, z'

loop_
  _atom_site_type_symbol
  _atom_site_label
  _atom_site_symmetry_multiplicity
  _atom_site_fract_x
  _atom_site_fract_y
  _atom_site_fract_z
  _atom_site_occupancy
  Ho  Ho1       1.0  0.3687527048773802  0.16113274203994618  0.5300438732504701  1.0000
  Ho  Ho2       1.0  0.6312465034302264  0.838869151189165  0.46995385980915927  1.0000
  H   H1        1.0  0.5335801924835266  0.5355652007521384  0.6360131256374897  1.0000
  H   H2        1.0  0.8996616321268858  0.8972113560296434  0.36385336485893277  1.0000
  H   H3        1.0  0.4664188774357712  0.46442910594080894  0.3639863852554156  1.0000
  H   H4        1.0  0.1003370685406466  0.102785480438115  0.6361475293060295  1.0000
  H   H5        1.0  0.49643844634888273  0.5008727286162938  0.7521182744135045  1.0000
  H   H6        1.0  0.7486152050087113  0.7442481959732775  0.2478240357098187  1.0000
  H   H7        1.0  0.5035610461388415  0.49912283614115444  0.2478816455427974  1.0000
  H   H8        1.0  0.2513795044111902  0.25575121844507714  0.7521763621602273  1.0000
  C   C1        1.0  0.3700460089421967  0.8635056392302902  0.23300805433154884  1.0000
  C   C2        1.0  0.629954033917265  0.1364987665086588  0.7669922843562701  1.0000
  C   C3        1.0  0.23943632302572831  0.8635067463666883  0.10219082539818189  1.0000
  C   C4        1.0  0.7605645116539178  0.13649638766194266  0.8978085390809695  1.0000
  C   C5        1.0  0.07128915960424108  0.7569312515011716  0.03831732415459043  1.0000
  C   C6        1.0  0.7179286429706054  0.03224849958866831  0.9617630456754822  1.0000
  C   C7        1.0  0.9287127828307079  0.24306429320300538  0.9616778905083833  1.0000
  C   C8        1.0  0.282073438244332  0.9677584013951305  0.038241120996644874  1.0000
  C   C9        1.0  0.9530722780928046  0.7498401048266744  0.9139092585516337  1.0000
  C   C10       1.0  0.835263227608678  0.03846140444096589  0.08616886154018741  1.0000
  C   C11       1.0  0.04693049889400669  0.2501579523873403  0.08608856173952258  1.0000
  C   C12       1.0  0.1647419944245385  0.9615404006536326  0.9138358770507649  1.0000
  C   C13       1.0  0.9961164928181816  0.8496412671183079  0.8450136748583927  1.0000
  C   C14       1.0  0.003884695235747389  0.15035933170674554  0.15498698760079319  1.0000
  C   C15       1.0  0.8718976091718604  0.8358299793758661  0.7070030017334757  1.0000
  C   C16       1.0  0.1281076446163496  0.16417183657626572  0.2929963743532937  1.0000
  C   C17       1.0  0.7391257533862117  0.2393066621092288  0.5000987554296117  1.0000
  C   C18       1.0  0.2608701651298162  0.7606927368537343  0.49990197104585826  1.0000
  C   C19       1.0  0.8735382851035424  0.3736503467226271  0.49999046296877464  1.0000
  C   C20       1.0  0.12646164583010483  0.6263464815280881  0.5000071847988322  1.0000
  C   C21       1.0  0.8631196212315402  0.39140664499299754  0.37815084782382496  1.0000
  C   C22       1.0  0.013051330346492286  0.4849367903343166  0.621831738831588  1.0000
  C   C23       1.0  0.13688229474092842  0.6085888906632418  0.6218488355926367  1.0000
  C   C24       1.0  0.9869470275317624  0.5150625849562046  0.37816606985195006  1.0000
  O   O1        1.0  0.3883762330313231  0.9621201909795543  0.3500640709041888  1.0000
  O   O2        1.0  0.6116277904907647  0.0378816331896203  0.649938551579943  1.0000
  O   O3        1.0  0.45683963001942357  0.764958426677211  0.2214995450656757  1.0000
  O   O4        1.0  0.543162841617267  0.23504595177011817  0.778499663331601  1.0000
  O   O5        1.0  0.9173795487177474  0.929334717561005  0.6486379533560153  1.0000
  O   O6        1.0  0.2798362091057882  0.26821264021465663  0.351316257941086  1.0000
  O   O7        1.0  0.0826212912544051  0.07066841827721501  0.3513605173724342  1.0000
  O   O8        1.0  0.7201674130178688  0.7317879331283662  0.648682380476856  1.0000
  O   O9        1.0  0.6249728625044072  0.2855493150452091  0.5313777752397896  1.0000
  O   O10       1.0  0.7541593465213481  0.09392763518803089  0.4689074893028716  1.0000
  O   O11       1.0  0.37502270263734516  0.7144526191213316  0.46862165325564575  1.0000
  O   O12       1.0  0.24583092262000858  0.9060730900684819  0.5310964719623427  1.0000
  O   O13       1.0  0.44846742557343316  0.46374535219992896  0.6517270816349309  1.0000
  O   O14       1.0  0.8119539258657157  0.796556632569832  0.3482058587146355  1.0000
  O   O15       1.0  0.5515280703741609  0.5362527886985261  0.3482732357771496  1.0000
  O   O16       1.0  0.1880432017464244  0.20344275093773231  0.6517951963662654  1.0000
  F   F1        1.0  0.01966412628330967  0.6579895682682989  0.09815821641378618  1.0000
  F   F2        1.0  0.5592522302233363  0.9207689807631  0.9019442505996195  1.0000
  F   F3        1.0  0.980338068185098  0.34199586736324517  0.9018338178076134  1.0000
  F   F4        1.0  0.4407463197515611  0.07924553864635442  0.09806430242853278  1.0000
  F   F5        1.0  0.7940534425708989  0.6413929264204511  0.8629799601792596  1.0000
  F   F6        1.0  0.7777998750132297  0.9303801233580982  0.13717310016815518  1.0000
  F   F7        1.0  0.20595092334879442  0.35860258918252447  0.13701501794386667  1.0000
  F   F8        1.0  0.2221997985944597  0.0696268121556614  0.8628286217917207  1.0000
  F   F9        1.0  0.7291067989865851  0.2884132864131814  0.2560687000750264  1.0000
  F   F10       1.0  0.031870774586501185  0.4729780692371151  0.7439414117832895  1.0000
  F   F11       1.0  0.27089069787732706  0.7115835673195647  0.7439309717338104  1.0000
  F   F12       1.0  0.9681299428748389  0.5270174854937012  0.2560561555263519  1.0000
