data_image0
_chemical_formula_structural       Zn8H59C72N7O31
_chemical_formula_sum              "Zn8 H59 C72 N7 O31"
_cell_length_a       18.234286788282454
_cell_length_b       18.257636793838824
_cell_length_c       18.192129739362816
_cell_angle_alpha    120.0806105250359
_cell_angle_beta     89.97089945362633
_cell_angle_gamma    120.36724188820236

_space_group_name_H-M_alt    "P 1"
_space_group_IT_number       1

loop_
  _space_group_symop_operation_xyz
  'x, y, z'

loop_
  _atom_site_type_symbol
  _atom_site_label
  _atom_site_symmetry_multiplicity
  _atom_site_fract_x
  _atom_site_fract_y
  _atom_site_fract_z
  _atom_site_occupancy
  Zn  Zn1       1.0  0.9535467703508899  0.41329230798153554  0.8677567988327579  1.0000
  Zn  Zn2       1.0  0.1303069791699796  0.5862497000509277  0.04274486311017955  1.0000
  Zn  Zn3       1.0  0.9526131942283912  0.4084574333757088  0.043461593165943654  1.0000
  Zn  Zn4       1.0  0.9590758084567454  0.5900304217837017  0.04635885693396343  1.0000
  Zn  Zn5       1.0  0.5428517294414448  0.5853416587988037  0.6348174573884434  1.0000
  Zn  Zn6       1.0  0.5400049515767265  0.5835105688848897  0.4531747721715006  1.0000
  Zn  Zn7       1.0  0.36626144062355337  0.41113972760508927  0.4556558478779848  1.0000
  Zn  Zn8       1.0  0.5456135230792823  0.4171005178668636  0.46022040142587867  1.0000
  H   H1        1.0  0.6067041395002447  0.44972152744188776  0.7789965008665829  1.0000
  H   H2        1.0  0.6587245697594921  0.5686390584917048  0.25739264107086496  1.0000
  H   H3        1.0  0.6891504899525458  0.3501124842707596  0.08962507747394702  1.0000
  H   H4        1.0  0.5981094195837429  0.3828821401767897  0.17149617780941634  1.0000
  H   H5        1.0  0.8897187860339741  0.5142981433055381  0.2950374479256225  1.0000
  H   H6        1.0  0.909711423772997  0.6357841622787814  0.33299796695693096  1.0000
  H   H7        1.0  0.8203423420481569  0.6085555486937722  0.4199271936538621  1.0000
  H   H8        1.0  0.7454657798172805  0.3503491169726587  0.16898788605858775  1.0000
  H   H9        1.0  0.8234986271389741  0.6755195396839182  0.7830611208340981  1.0000
  H   H10       1.0  0.11424064098198956  0.9047905654816047  0.11950951436688215  1.0000
  H   H11       1.0  0.21213743460234008  0.9257782633499901  0.08935205725562413  1.0000
  H   H12       1.0  0.7787024671259817  0.08979259228836159  0.6726169660807811  1.0000
  H   H13       1.0  0.18810180798732293  0.0806506275117158  0.23669043463092268  1.0000
  H   H14       1.0  0.10948615802904951  0.9124873844256239  0.2650761305109269  1.0000
  H   H15       1.0  0.2086522315483563  0.0930164861853342  0.3711773208719506  1.0000
  H   H16       1.0  0.3165929878563388  0.9190468110050957  0.2594942804141238  1.0000
  H   H17       1.0  0.3192224945150525  0.9081845154284448  0.15796167533519395  1.0000
  H   H18       1.0  0.3986346107210111  0.08925842977077987  0.23282178550590513  1.0000
  H   H19       1.0  0.8962141946134777  0.557023947195695  0.7261446662577097  1.0000
  H   H20       1.0  0.4162533938424673  0.09931857174604627  0.33296906616729416  1.0000
  H   H21       1.0  0.18546634734257583  0.9025365905562807  0.31384612999764266  1.0000
  H   H22       1.0  0.2976070429305222  0.6674698831931491  0.28539246068544316  1.0000
  H   H23       1.0  0.6707190239540209  0.9114472123662337  0.5963717920043903  1.0000
  H   H24       1.0  0.32079240457278485  0.6046696360438444  0.18763848879296305  1.0000
  H   H25       1.0  0.40396574434758037  0.5803655796861945  0.25745435193654487  1.0000
  H   H26       1.0  0.1559939487293107  0.5622835022288868  0.31243346674613537  1.0000
  H   H27       1.0  0.2610851900372209  0.5816085333902448  0.4061061932167574  1.0000
  H   H28       1.0  0.1255646403194389  0.3326982890039786  0.10957316744403997  1.0000
  H   H29       1.0  0.7239348675642034  0.3775273756288087  0.5937020257503532  1.0000
  H   H30       1.0  0.3032867289612255  0.3882710450656504  0.17480394853814119  1.0000
  H   H31       1.0  0.20822081629790293  0.33095830233067863  0.2046100196130141  1.0000
  H   H32       1.0  0.09436288887883382  0.4253008637034838  0.2446535829613196  1.0000
  H   H33       1.0  0.19080555038812005  0.4451922909206587  0.34955524579962116  1.0000
  H   H34       1.0  0.8255063153962682  0.08444051639668258  0.8998740250163733  1.0000
  H   H35       1.0  0.2833420612534851  0.6651813429928736  0.8877778457650294  1.0000
  H   H36       1.0  0.2056399763077933  0.6092117836074634  0.785484192017236  1.0000
  H   H37       1.0  0.3321180815979402  0.6493154577098181  0.7374460703278557  1.0000
  H   H38       1.0  0.392074412147501  0.6578915509145986  0.8208848016317629  1.0000
  H   H39       1.0  0.6790598636841524  0.3309669995930164  0.7219134645211082  1.0000
  H   H40       1.0  0.38439797238246587  0.4992548793477096  0.784841507584005  1.0000
  H   H41       1.0  0.11295112714645222  0.33288135198910845  0.6862313993547957  1.0000
  H   H42       1.0  0.08292687599479351  0.40922041660949293  0.6836616731065133  1.0000
  H   H43       1.0  0.18793103471513456  0.4646830547233094  0.6151677902128583  1.0000
  H   H44       1.0  0.18409230771533902  0.354125065967679  0.5832732794721733  1.0000
  H   H45       1.0  0.8673594897448922  0.0825674550686202  0.6966001244815201  1.0000
  H   H46       1.0  0.22744370602173788  0.4057230496192686  0.8244035113310202  1.0000
  H   H47       1.0  0.28188506487763476  0.37515511636917853  0.7051353473200378  1.0000
  H   H48       1.0  0.6664838700088325  0.06478446801003909  0.7563768461140085  1.0000
  H   H49       1.0  0.6967197774535734  0.08610271586859143  0.8614892726562998  1.0000
  H   H50       1.0  0.6358375568998653  0.9107627690044494  0.7941944652566942  1.0000
  H   H51       1.0  0.5474757475941485  0.8896988140052425  0.6327276286859627  1.0000
  H   H52       1.0  0.8345448203140081  0.8377649553382085  0.7230076866872676  1.0000
  H   H53       1.0  0.748050480119005  0.8089944874660517  0.5395801400296846  1.0000
  H   H54       1.0  0.7386640749577039  0.44388214946359017  0.4129679276181334  1.0000
  H   H55       1.0  0.35196030428605946  0.18031110975749698  0.48464681048113784  1.0000
  H   H56       1.0  0.7226832332915192  0.529295020460843  0.14337207629642273  1.0000
  H   H57       1.0  0.778962130583544  0.6293668153590629  0.9111638458335346  1.0000
  H   H58       1.0  0.825647648636476  0.6450481326501317  0.2281946629494484  1.0000
  H   H59       1.0  0.7640203774455756  0.659613643904251  0.34369518516475484  1.0000
  C   C1        1.0  0.14199405755145716  0.7814659004392652  0.13427712646327447  1.0000
  C   C2        1.0  0.8381938288031421  0.06439712936527538  0.8356206111338904  1.0000
  C   C3        1.0  0.7974038798768035  0.09800057399377948  0.7941856542030903  1.0000
  C   C4        1.0  0.850707244777226  0.21748399134675367  0.855890672290421  1.0000
  C   C5        1.0  0.7037777041402933  0.893534947560326  0.6951352316540634  1.0000
  C   C6        1.0  0.7339798964424131  0.9368732299144965  0.6376885189593862  1.0000
  C   C7        1.0  0.7877969423992253  0.9417134471305174  0.7728719121448434  1.0000
  C   C8        1.0  0.7690595018056429  0.5686249617011184  0.20986508748207194  1.0000
  C   C9        1.0  0.7216907356868704  0.5805202211845213  0.28093254433353815  1.0000
  C   C10       1.0  0.7219987372710436  0.3919721641376909  0.1620168060559378  1.0000
  C   C11       1.0  0.8569741884007624  0.5521739776072179  0.29893673777032576  1.0000
  C   C12       1.0  0.792497744435302  0.5991549606940794  0.7703874791064749  1.0000
  C   C13       1.0  0.803352788975417  0.5048187257616376  0.2028470076397183  1.0000
  C   C14       1.0  0.7003652467946752  0.502417705657969  0.30354142846976356  1.0000
  C   C15       1.0  0.6519418381446583  0.39261337869087487  0.21135581966859002  1.0000
  C   C16       1.0  0.1375874864794823  0.49398914127890226  0.859208593480403  1.0000
  C   C17       1.0  0.7925187079668488  0.534532268277239  0.35300833881501587  1.0000
  C   C18       1.0  0.18681371738882988  0.9428057811857612  0.14636627300463786  1.0000
  C   C19       1.0  0.2367416649434517  0.0627913847733979  0.21502188026716595  1.0000
  C   C20       1.0  0.17962286753936477  0.9377540381357362  0.2817798889586171  1.0000
  C   C21       1.0  0.30373026466022407  0.9431394909087274  0.2194043579656436  1.0000
  C   C22       1.0  0.20343584945652526  0.9002298316810876  0.19443141074278683  1.0000
  C   C23       1.0  0.8312167268545849  0.5329787951609859  0.7369638490702851  1.0000
  C   C24       1.0  0.30476313997102267  0.10343983215185658  0.30104525558540723  1.0000
  C   C25       1.0  0.24534201984378257  0.05703431836156619  0.34847643995843197  1.0000
  C   C26       1.0  0.3631786507666633  0.0630851112912083  0.2727421480449123  1.0000
  C   C27       1.0  0.2961736642856251  0.5980418944969584  0.24046855908118647  1.0000
  C   C28       1.0  0.8647748274623767  0.5048293717242415  0.1458790899481882  1.0000
  C   C29       1.0  0.35846671269146657  0.592752838168721  0.2935138108298359  1.0000
  C   C30       1.0  0.16256815399771793  0.497645942159238  0.27511463906511574  1.0000
  C   C31       1.0  0.1965074618316932  0.40095511655578514  0.1403760704971474  1.0000
  C   C32       1.0  0.19856769235840932  0.5007429927965958  0.1992340772409377  1.0000
  C   C33       1.0  0.29964310324884014  0.4989097264214165  0.2994627070270467  1.0000
  C   C34       1.0  0.7365861422131559  0.4331529709110242  0.6644761279733016  1.0000
  C   C35       1.0  0.22739523978408013  0.5068655219853966  0.3392162392857045  1.0000
  C   C36       1.0  0.25273633429426207  0.3979060237631342  0.2022635959005895  1.0000
  C   C37       1.0  0.2524653949994472  0.602466021188185  0.81523773884588  1.0000
  C   C38       1.0  0.3257016971103892  0.6107280222224388  0.7703478020096522  1.0000
  C   C39       1.0  0.2652208564902025  0.4762360454696121  0.8253159514952201  1.0000
  C   C40       1.0  0.13713906149460797  0.49886333158596585  0.14011472884581613  1.0000
  C   C41       1.0  0.14102748063660894  0.4094650267352548  0.6996817263638633  1.0000
  C   C42       1.0  0.1972372575772709  0.4952500047905061  0.8004138936379089  1.0000
  C   C43       1.0  0.300133350095038  0.5000401585470583  0.7002360541309115  1.0000
  C   C44       1.0  0.3123619896320662  0.45886190350883277  0.7523589061999727  1.0000
  C   C45       1.0  0.7103013837838644  0.40733233366620414  0.7345704518951093  1.0000
  C   C46       1.0  0.20009325427992042  0.4279871331419968  0.6418568631096873  1.0000
  C   C47       1.0  0.6416545362411481  0.5048197018086781  0.36356946806429125  1.0000
  C   C48       1.0  0.36132466082703013  0.5029709299622667  0.6431989668459861  1.0000
  C   C49       1.0  0.6431274749411812  0.7736985749144196  0.635951071050087  1.0000
  C   C50       1.0  0.360914153353363  0.22220338191807792  0.36371675713750307  1.0000
  C   C51       1.0  0.35753675029285853  0.4935434760153399  0.3546458300116412  1.0000
  C   C52       1.0  0.8623137442040587  0.5065451451669886  0.8646123232186083  1.0000
  C   C53       1.0  0.6399087974560801  0.49839296547044387  0.6396554323953721  1.0000
  C   C54       1.0  0.7663310227613138  0.5734066136219198  0.8405237187615524  1.0000
  C   C55       1.0  0.6716251678558294  0.4735742169102222  0.7680765121739835  1.0000
  C   C56       1.0  0.8055829243576724  0.5081624951565471  0.8082599589898576  1.0000
  C   C57       1.0  0.6970190703005555  0.4980186094197234  0.6967038308566769  1.0000
  C   C58       1.0  0.5520378475928424  0.8707025651907896  0.6813419922964952  1.0000
  C   C59       1.0  0.9363732568782126  0.1242939290184708  0.8605234965522968  1.0000
  C   C60       1.0  0.76270299461396  0.9059531960583556  0.8310423054455638  1.0000
  C   C61       1.0  0.8463915321634801  0.9064435389139477  0.7279526597707358  1.0000
  C   C62       1.0  0.7689541046256848  0.8886970662389896  0.5648420683634751  1.0000
  C   C63       1.0  0.7855236223896825  0.46139339844493327  0.37562788739212744  1.0000
  C   C64       1.0  0.6077675547759752  0.3022967688313897  0.21488580984544822  1.0000
  C   C65       1.0  0.2825544386651941  0.11933199805073968  0.17596823888312224  1.0000
  C   C66       1.0  0.3048910974935453  0.09363550137420161  0.4348312027020568  1.0000
  C   C67       1.0  0.6986142333428021  0.0491580333911585  0.7925129423111912  1.0000
  C   C68       1.0  0.41616773543982793  0.6908578158530078  0.3827852004146591  1.0000
  C   C69       1.0  0.22953272552484083  0.3979653485362035  0.06641277307654286  1.0000
  C   C70       1.0  0.332602374601741  0.5615544278953164  0.915598330322055  1.0000
  C   C71       1.0  0.6463828467616679  0.9300832158217884  0.7450131755455657  1.0000
  C   C72       1.0  0.7986548930189414  0.056976835664855174  0.6978654435862522  1.0000
  N   N1        1.0  0.015112070525944366  0.17797457155557334  0.8871405746345643  1.0000
  N   N2        1.0  0.7531678542481755  0.8870456992709773  0.8842582682423622  1.0000
  N   N3        1.0  0.5723771280589675  0.2256168634662856  0.21063600577576838  1.0000
  N   N4        1.0  0.32008021222222993  0.16667428599377127  0.14673113073974514  1.0000
  N   N5        1.0  0.4613055533741458  0.769488882856379  0.4540715243069328  1.0000
  N   N6        1.0  0.2567673854922673  0.3979011416291342  0.008390344876907756  1.0000
  N   N7        1.0  0.3894351972466764  0.6295617977456657  0.9858804015037063  1.0000
  O   O1        1.0  0.9973899308348564  0.49682903685997815  1.15347606453168e-05  1.0000
  O   O2        1.0  0.31750303028250926  0.26244123850637635  0.3782429508123285  1.0000
  O   O3        1.0  0.4412128615448267  0.5410192020469607  0.36371187779423747  1.0000
  O   O4        1.0  0.05710977581912136  0.7385408454123661  0.10988082315637356  1.0000
  O   O5        1.0  0.633691686764024  0.4549304986390651  0.5564196575394217  1.0000
  O   O6        1.0  0.317231758953767  0.44038044899802736  0.3853878504841786  1.0000
  O   O7        1.0  0.6022451148689782  0.5433768930454548  0.6784787051667038  1.0000
  O   O8        1.0  0.641073994078603  0.7289871294239206  0.6721729553942736  1.0000
  O   O9        1.0  0.4453564907659384  0.27039224773565707  0.3968905875078263  1.0000
  O   O10       1.0  0.6312050813832216  0.57790305557765  0.39694256512545667  1.0000
  O   O11       1.0  0.3232659807769238  0.43471215497728355  0.5580755207771444  1.0000
  O   O12       1.0  0.052414732344338584  0.4273356192853867  0.8195189923015958  1.0000
  O   O13       1.0  0.8688476338103754  0.2634871087066059  0.8175699510216458  1.0000
  O   O14       1.0  0.17839522262295288  0.5612634754130922  0.9440473851242215  1.0000
  O   O15       1.0  0.8801785704810499  0.4362076281588541  0.11916670810570903  1.0000
  O   O16       1.0  0.1752260309391643  0.5693190421934844  0.1266434929906594  1.0000
  O   O17       1.0  0.8752277784309043  0.5570424122082825  0.9491393810116262  1.0000
  O   O18       1.0  0.05280284613721877  0.4265867202899614  0.10968676436235816  1.0000
  O   O19       1.0  0.8924225623733121  0.45271638474955  0.822883309994985  1.0000
  O   O20       1.0  0.4842900608868631  0.8064641393214274  0.6834874063365033  1.0000
  O   O21       1.0  0.898907958155739  0.9479473438796969  0.6978819946931903  1.0000
  O   O22       1.0  0.8132886989629995  0.9318873610143682  0.5314218549851331  1.0000
  O   O23       1.0  0.896480105701272  0.5738683519411862  0.13050394815522268  1.0000
  O   O24       1.0  0.8304578054271445  0.4269474904353955  0.3580370367555829  1.0000
  O   O25       1.0  0.3034205767865714  0.03677465619198729  0.45234673843867046  1.0000
  O   O26       1.0  0.17945564565845706  0.7345489799977184  0.11438793464687778  1.0000
  O   O27       1.0  0.8705329246849163  0.2589948996709026  0.9403716631712056  1.0000
  O   O28       1.0  0.49856414177715885  0.5012276184555516  0.5017937508447544  1.0000
  O   O29       1.0  0.6085311201129002  0.433963801113407  0.37657452979098577  1.0000
  O   O30       1.0  0.44615898781914615  0.5728994933313132  0.6850848853716014  1.0000
  O   O31       1.0  0.5972119746741313  0.7303224901399545  0.5561558362750672  1.0000
