data_image0
_chemical_formula_structural       Fe2Cu4H40C24N20
_chemical_formula_sum              "Fe2 Cu4 H40 C24 N20"
_cell_length_a       7.449321825269641
_cell_length_b       10.501018451055014
_cell_length_c       12.371308418502489
_cell_angle_alpha    90.00012781912278
_cell_angle_beta     92.27809520741461
_cell_angle_gamma    90.00033836192576

_space_group_name_H-M_alt    "P 1"
_space_group_IT_number       1

loop_
  _space_group_symop_operation_xyz
  'x, y, z'

loop_
  _atom_site_type_symbol
  _atom_site_label
  _atom_site_symmetry_multiplicity
  _atom_site_fract_x
  _atom_site_fract_y
  _atom_site_fract_z
  _atom_site_occupancy
  Fe  Fe1       1.0  0.9999996093213425  0.9999955644391461  7.785567817093008e-06  1.0000
  Fe  Fe2       1.0  0.4999885355321822  0.4999922173453298  0.49999622702721075  1.0000
  Cu  Cu1       1.0  0.5020187032446373  0.7688390662788149  0.1706550121183597  1.0000
  Cu  Cu2       1.0  0.9979782724270406  0.2688449854014435  0.32935023985887574  1.0000
  Cu  Cu3       1.0  0.49798552722728556  0.23115489136578296  0.8293466586025531  1.0000
  Cu  Cu4       1.0  0.0020193226752880005  0.731160399695291  0.670653777329065  1.0000
  H   H1        1.0  0.5394460074082518  0.5371644149204471  0.12439991760270891  1.0000
  H   H2        1.0  0.9605501505249804  0.0371664846057627  0.37559918144155796  1.0000
  H   H3        1.0  0.46055271599680475  0.4628304949961332  0.8755976451390096  1.0000
  H   H4        1.0  0.03944459704902668  0.962839852767516  0.6243999509460281  1.0000
  H   H5        1.0  0.46410841231678274  0.6241814016657655  0.020127974507325095  1.0000
  H   H6        1.0  0.0358880041753054  0.124180058376318  0.4798718396145887  1.0000
  H   H7        1.0  0.5358916543140566  0.375820174273727  0.979869604232718  1.0000
  H   H8        1.0  0.9641081940089862  0.8758234221382962  0.5201305439737922  1.0000
  H   H9        1.0  0.057054169144045416  0.49974916006478753  0.2973083145120086  1.0000
  H   H10       1.0  0.4429452308084051  0.9997480147459824  0.2026858515638281  1.0000
  H   H11       1.0  0.9429418679148468  0.5002571773091733  0.7026892162601612  1.0000
  H   H12       1.0  0.5570588385381258  0.0002487997579692  0.7973109663408735  1.0000
  H   H13       1.0  0.1658672731008153  0.4229738595531102  0.2038122201170509  1.0000
  H   H14       1.0  0.3341303446941737  0.9229734469777068  0.296188232279718  1.0000
  H   H15       1.0  0.8341289250834761  0.577029620961504  0.796190163471323  1.0000
  H   H16       1.0  0.6658753095723284  0.077027176693008  0.7038158808491985  1.0000
  H   H17       1.0  0.7650050571550295  0.6910834086821395  0.9821585672243459  1.0000
  H   H18       1.0  0.7349944537298754  0.19108554884992654  0.5178379572416034  1.0000
  H   H19       1.0  0.23499635266916388  0.30891721497158636  0.017839027505687  1.0000
  H   H20       1.0  0.2649975806011682  0.8089226930938191  0.4821603343627814  1.0000
  H   H21       1.0  0.7457697229655124  0.5221940215688434  0.970768275787215  1.0000
  H   H22       1.0  0.754224373793619  0.022197222624868104  0.5292294484967144  1.0000
  H   H23       1.0  0.2542316062696273  0.4778018406387544  0.0292268925279373  1.0000
  H   H24       1.0  0.24576771423372173  0.9778072101666733  0.4707704607099502  1.0000
  H   H25       1.0  0.0233655307889649  0.6073555211727423  0.0779368789701635  1.0000
  H   H26       1.0  0.4766266591337497  0.1073596785791153  0.42206123273465584  1.0000
  H   H27       1.0  0.976633246340775  0.3926422456117251  0.922062301381125  1.0000
  H   H28       1.0  0.5233626081972033  0.892639992758532  0.5779346004686161  1.0000
  H   H29       1.0  0.8784796142618703  0.6581496427880823  0.1773026653743344  1.0000
  H   H30       1.0  0.6215240751483506  0.15816064301778707  0.322690308130035  1.0000
  H   H31       1.0  0.12152045234464738  0.34184621941989957  0.8226949133594559  1.0000
  H   H32       1.0  0.3784771467225739  0.841849503514318  0.6773016249878623  1.0000
  H   H33       1.0  0.9008538579958979  0.3790852311500714  0.099217799893168  1.0000
  H   H34       1.0  0.5991478981173727  0.8790898148883102  0.40078207983880537  1.0000
  H   H35       1.0  0.09914897557826657  0.6209115833553296  0.9007822372334005  1.0000
  H   H36       1.0  0.4008643378629699  0.12091271336832682  0.5992180692312274  1.0000
  H   H37       1.0  0.7716656282444632  0.43562151695972057  0.2063384121450085  1.0000
  H   H38       1.0  0.7283417941249509  0.9356263710694319  0.2936559937261336  1.0000
  H   H39       1.0  0.2283357278550469  0.5643762498261181  0.7936575649754475  1.0000
  H   H40       1.0  0.2716728865560398  0.06437901404898838  0.7063369081000772  1.0000
  C   C1        1.0  0.7440980230390365  0.603251643695053  0.0278343715276677  1.0000
  C   C2        1.0  0.7559095238299418  0.1032521499900412  0.47216742656379307  1.0000
  C   C3        1.0  0.2558966707940655  0.3967480276559955  0.9721631432461706  1.0000
  C   C4        1.0  0.24409462611374974  0.8967513305372063  0.5278318177578782  1.0000
  C   C5        1.0  0.8941610985181396  0.5861070600009483  0.1137613783881335  1.0000
  C   C6        1.0  0.6058394789817283  0.0861181537658169  0.3862370670054318  1.0000
  C   C7        1.0  0.10583625483324247  0.4138878499117453  0.8862353595593363  1.0000
  C   C8        1.0  0.3941619577311712  0.9138900881976537  0.6137613365361645  1.0000
  C   C9        1.0  0.8949851671723152  0.4525962628908785  0.1623722264411924  1.0000
  C   C10       1.0  0.6050170000971631  0.9525988085983813  0.33762134382963194  1.0000
  C   C11       1.0  0.10501626950814108  0.5474043607639131  0.8376261770920691  1.0000
  C   C12       1.0  0.39498827817358517  0.0473999104802232  0.6623714460520702  1.0000
  C   C13       1.0  0.15383102696961967  0.8676981231354756  0.0484648142442126  1.0000
  C   C14       1.0  0.3461649380747643  0.3677056198933002  0.45154035395242437  1.0000
  C   C15       1.0  0.846161141610281  0.13230250050492737  0.9515375213679461  1.0000
  C   C16       1.0  0.6538435637443809  0.632299765232375  0.5484686439830995  1.0000
  C   C17       1.0  0.8030256537089854  0.9210171758727695  0.06040585926511711  1.0000
  C   C18       1.0  0.6969685614606789  0.4210249735335623  0.4395988691617704  1.0000
  C   C19       1.0  0.1969652790904348  0.07898154319191518  0.9395996955668195  1.0000
  C   C20       1.0  0.30303580334931013  0.5789823161565621  0.5604068455898528  1.0000
  C   C21       1.0  0.9637587976828141  0.9075226900167973  0.8708974916028113  1.0000
  C   C22       1.0  0.53624011168543  0.40752237579935263  0.6291067540437822  1.0000
  C   C23       1.0  0.03624285382744571  0.09247317220360429  0.129107382351016  1.0000
  C   C24       1.0  0.4637534806768783  0.5924820570014119  0.37089802397324695  1.0000
  N   N1        1.0  0.5670245409985596  0.613318930538739  0.0764384143993695  1.0000
  N   N2        1.0  0.9329762950698279  0.11332481440989278  0.4235608993774633  1.0000
  N   N3        1.0  0.4329690244953213  0.38668264539520425  0.9235655548113115  1.0000
  N   N4        1.0  0.0670277743253607  0.886683427557081  0.576435918539751  1.0000
  N   N5        1.0  0.04576566527137519  0.42902449694913253  0.240524218852741  1.0000
  N   N6        1.0  0.45423049972936974  0.9290273497743866  0.2594713779862944  1.0000
  N   N7        1.0  0.9542357982531795  0.5709732698409694  0.7594749934806161  1.0000
  N   N8        1.0  0.5457681699915466  0.07097422616014631  0.740524567156271  1.0000
  N   N9        1.0  0.25328594762454765  0.7848759215103555  0.0756762673751084  1.0000
  N   N10       1.0  0.24671205223713596  0.2848876973673526  0.42433036905921984  1.0000
  N   N11       1.0  0.7467279268788046  0.21510470412338384  0.9243327944974311  1.0000
  N   N12       1.0  0.7532842264834939  0.7151081648417801  0.5756744409304915  1.0000
  N   N13       1.0  0.6791382830685178  0.8713351184120482  0.09908261951874661  1.0000
  N   N14       1.0  0.8208592162985652  0.3713357171616636  0.4009123424460341  1.0000
  N   N15       1.0  0.32086194467960627  0.12866169609091566  0.9009198120354256  1.0000
  N   N16       1.0  0.17913550440296425  0.6286668110562059  0.5990859811341593  1.0000
  N   N17       1.0  0.9483195964450104  0.8468255876141342  0.7905629933374456  1.0000
  N   N18       1.0  0.5516815629590538  0.34681696797226635  0.7094435777835387  1.0000
  N   N19       1.0  0.05168049702182029  0.1531712268835008  0.2094353942006109  1.0000
  N   N20       1.0  0.44832156601775347  0.6531760373905299  0.2905653561743122  1.0000
