data_image0
_chemical_formula_structural       Cu2H28C48N10O8
_chemical_formula_sum              "Cu2 H28 C48 N10 O8"
_cell_length_a       9.542602966922203
_cell_length_b       10.808187866112823
_cell_length_c       11.650254194178947
_cell_angle_alpha    111.05234311355062
_cell_angle_beta     91.41424368196192
_cell_angle_gamma    107.09315469859993

_space_group_name_H-M_alt    "P 1"
_space_group_IT_number       1

loop_
  _space_group_symop_operation_xyz
  'x, y, z'

loop_
  _atom_site_type_symbol
  _atom_site_label
  _atom_site_symmetry_multiplicity
  _atom_site_fract_x
  _atom_site_fract_y
  _atom_site_fract_z
  _atom_site_occupancy
  Cu  Cu1       1.0  0.8003183701554518  0.25403509748837655  0.21988261041277476  1.0000
  Cu  Cu2       1.0  0.19968771908432356  0.7459686011277854  0.7801242395993383  1.0000
  H   H1        1.0  0.46610665500243426  0.106667354417894  0.0906103480754155  1.0000
  H   H2        1.0  0.5338913417683244  0.8933460526438285  0.909401751045607  1.0000
  H   H3        1.0  0.26515312203285646  0.9012744055372439  0.09620325969419957  1.0000
  H   H4        1.0  0.7348408934461401  0.0987244075644469  0.9037855024698657  1.0000
  H   H5        1.0  0.5270175161900355  0.8913924671833161  0.3827756035663796  1.0000
  H   H6        1.0  0.4729786662842983  0.10859483242485618  0.6172115151454776  1.0000
  H   H7        1.0  0.741700714480295  0.008825577552947501  0.5142031940454288  1.0000
  H   H8        1.0  0.2583040962962429  0.9911621305510184  0.48577396080492014  1.0000
  H   H9        1.0  0.15951105367318516  0.3415892868008116  0.582833062933716  1.0000
  H   H10       1.0  0.840481586103138  0.658391356533592  0.4171648744839729  1.0000
  H   H11       1.0  0.27992190188835037  0.5113180962182823  0.5181266175449437  1.0000
  H   H12       1.0  0.7200899016375641  0.48869543014978234  0.4818712709021682  1.0000
  H   H13       1.0  0.24870656849137157  0.6885650657559169  0.2592921409281105  1.0000
  H   H14       1.0  0.7513120111513698  0.311443721474305  0.7406959255379988  1.0000
  H   H15       1.0  0.0006582199329016974  0.5001419595001124  0.15566193313917148  1.0000
  H   H16       1.0  0.9993698997959299  0.49985832846511613  0.8443247173577859  1.0000
  H   H17       1.0  0.8156643151288634  0.954063532672308  0.6355582055434539  1.0000
  H   H18       1.0  0.18434151991449  0.0459332837763853  0.3644354260429452  1.0000
  H   H19       1.0  0.9074710689595094  0.8939141563950489  0.8001194778317072  1.0000
  H   H20       1.0  0.09251483835897288  0.10609156177773121  0.1998805738091392  1.0000
  H   H21       1.0  0.30177139262629277  0.24999222905304921  0.8956949632755382  1.0000
  H   H22       1.0  0.6982042841333252  0.7500028456006833  0.10431712680238557  1.0000
  H   H23       1.0  0.21759844566125955  0.3092378100445146  0.7263954154640047  1.0000
  H   H24       1.0  0.7824030962478544  0.6907621814701345  0.2736188070183019  1.0000
  H   H25       1.0  0.4658153721831936  0.5667728565860629  0.2224164372132762  1.0000
  H   H26       1.0  0.5341831239178064  0.43320919597675833  0.7775700430838057  1.0000
  H   H27       1.0  0.6644483619209963  0.35861198385347853  0.9182533418263149  1.0000
  H   H28       1.0  0.33554994571707647  0.6413755079385554  0.08173818485472849  1.0000
  C   C1        1.0  0.4819192048839653  0.057599276761628515  0.1545656217821261  1.0000
  C   C2        1.0  0.5180784648008159  0.9424160624756515  0.8454436059326939  1.0000
  C   C3        1.0  0.36875167341315757  0.943654332559504  0.16015487876332912  1.0000
  C   C4        1.0  0.6312442249840869  0.0563498040956247  0.8398372310597324  1.0000
  C   C5        1.0  0.5143626475672319  0.9408884020430152  0.31795384732784265  1.0000
  C   C6        1.0  0.48563938749122554  0.05910951695614841  0.6820400127468176  1.0000
  C   C7        1.0  0.628400196823108  0.05468815139045091  0.3145580875180372  1.0000
  C   C8        1.0  0.3716020616988943  0.9453164738563876  0.6854455014428282  1.0000
  C   C9        1.0  0.7727136423177896  0.12214252455537891  0.39427568591208473  1.0000
  C   C10       1.0  0.22728775361010634  0.8778566313402295  0.6057219612575437  1.0000
  C   C11       1.0  0.8175981323053563  0.09130265626362193  0.4921183560695823  1.0000
  C   C12       1.0  0.18241096379925648  0.908697581684962  0.5078823899893053  1.0000
  C   C13       1.0  0.9590579710039078  0.16799395604281392  0.5628094929029785  1.0000
  C   C14       1.0  0.04094727100821423  0.8320043611820226  0.4371931600876522  1.0000
  C   C15       1.0  0.05013573503219252  0.2761366528933281  0.5303046393669888  1.0000
  C   C16       1.0  0.9498567365654719  0.7238669180164123  0.46969580465981403  1.0000
  C   C17       1.0  0.9989141695209152  0.30071957759313506  0.43034940704618657  1.0000
  C   C18       1.0  0.0010841580763739406  0.699282687130463  0.5696473649976426  1.0000
  C   C19       1.0  0.07837376108537339  0.40735565295964454  0.3832605589487627  1.0000
  C   C20       1.0  0.9216294218215636  0.5926575088925718  0.6167481657447382  1.0000
  C   C21       1.0  0.21818833462899076  0.507870885383852  0.4359835749589536  1.0000
  C   C22       1.0  0.7818160416985831  0.49213660348146954  0.564015764448591  1.0000
  C   C23       1.0  0.2014892180793808  0.6047056207685558  0.2927875367026759  1.0000
  C   C24       1.0  0.7985252649003343  0.39530366169292114  0.7072091615226199  1.0000
  C   C25       1.0  0.06392600533331463  0.5028974921086801  0.23630530968576122  1.0000
  C   C26       1.0  0.9360812696438783  0.49710048954063524  0.7636912826555147  1.0000
  C   C27       1.0  0.009420324928065306  0.1360961515228141  0.6659300165876658  1.0000
  C   C28       1.0  0.9905787800977847  0.8639056679434274  0.3340786712889993  1.0000
  C   C29       1.0  0.9235485302268526  0.0200194502539972  0.6904011382926427  1.0000
  C   C30       1.0  0.07643766543643697  0.9799814004289121  0.30960520796765684  1.0000
  C   C31       1.0  0.9748838620990838  0.9841957466477  0.7825107193177203  1.0000
  C   C32       1.0  0.025107473276001695  0.0158018795314518  0.2174948033434134  1.0000
  C   C33       1.0  0.11268039086554182  0.06635945119580812  0.8561128978970274  1.0000
  C   C34       1.0  0.8872965914725911  0.9336452511619701  0.14390552087626676  1.0000
  C   C35       1.0  0.19642929197431863  0.1850286548168256  0.8361123163478085  1.0000
  C   C36       1.0  0.8035537655592646  0.8149694780453842  0.1639008735980454  1.0000
  C   C37       1.0  0.14733975369982485  0.2182957832248392  0.7412597994950404  1.0000
  C   C38       1.0  0.8526521940156043  0.7817096842805925  0.2587575173998999  1.0000
  C   C39       1.0  0.17379911113702204  0.02984578939263829  0.9556668301209257  1.0000
  C   C40       1.0  0.8261925436408147  0.9701498606310044  0.04434069156153701  1.0000
  C   C41       1.0  0.6526204163359495  0.4163039772200891  0.1649270478780593  1.0000
  C   C42       1.0  0.3473749803765073  0.5836782928363535  0.8350628528913405  1.0000
  C   C43       1.0  0.4797161284958094  0.5377101893344118  0.12469925090750418  1.0000
  C   C44       1.0  0.5202829338462107  0.4622794406749903  0.8752937893141136  1.0000
  C   C45       1.0  0.5734030778403748  0.4583830239166745  0.0789475523744656  1.0000
  C   C46       1.0  0.4266292734339813  0.5416294860335286  0.9210565826368865  1.0000
  C   C47       1.0  0.5927942725989794  0.4213659293635673  0.9535134166562003  1.0000
  C   C48       1.0  0.40720313028832317  0.5786250833400715  0.0464860047926194  1.0000
  N   N1        1.0  0.6099490591629004  0.11133359216444921  0.2305357270278563  1.0000
  N   N2        1.0  0.3900514938050604  0.8886721518969195  0.7694690088509404  1.0000
  N   N3        1.0  0.3854277792033117  0.8856756245498264  0.2415479185599097  1.0000
  N   N4        1.0  0.6145840166393838  0.1143378578382865  0.7584490975023214  1.0000
  N   N5        1.0  0.863375973845038  0.22404483737484077  0.36487145170148244  1.0000
  N   N6        1.0  0.13661490777197124  0.775963227463244  0.6351354398788019  1.0000
  N   N7        1.0  0.0025134261109869362  0.4064562290925836  0.2824441331750478  1.0000
  N   N8        1.0  0.9974931602208128  0.5935546511506189  0.7175614252977027  1.0000
  N   N9        1.0  0.27878853171358736  0.6071398997466133  0.3918014568743686  1.0000
  N   N10       1.0  0.7212141544263773  0.3928687958931363  0.6082007742208617  1.0000
  O   O1        1.0  0.2488117817691631  0.13003600696637824  0.05209042777654101  1.0000
  O   O2        1.0  0.7511635291633212  0.8699580645485981  0.9479222141084095  1.0000
  O   O3        1.0  0.14521290934668243  0.8986761330880317  0.93461319454849  1.0000
  O   O4        1.0  0.8548027279874545  0.1013218256576565  0.065385326741719  1.0000
  O   O5        1.0  0.7123425988925476  0.32042806700700777  0.109824855937255  1.0000
  O   O6        1.0  0.2876447890141094  0.6795405001402061  0.89015819109828  1.0000
  O   O7        1.0  0.6591307010133959  0.4733898086993236  0.280488687786395  1.0000
  O   O8        1.0  0.34088557545130266  0.5266069131499195  0.7195060464088526  1.0000
