data_image0
_chemical_formula_structural       Cu2H6C10I2N6
_chemical_formula_sum              "Cu2 H6 C10 I2 N6"
_cell_length_a       3.9927909300026814
_cell_length_b       7.2226674617621445
_cell_length_c       12.427023255490335
_cell_angle_alpha    97.30131849971738
_cell_angle_beta     90.00008151709599
_cell_angle_gamma    90.00009099042025

_space_group_name_H-M_alt    "P 1"
_space_group_IT_number       1

loop_
  _space_group_symop_operation_xyz
  'x, y, z'

loop_
  _atom_site_type_symbol
  _atom_site_label
  _atom_site_symmetry_multiplicity
  _atom_site_fract_x
  _atom_site_fract_y
  _atom_site_fract_z
  _atom_site_occupancy
  Cu  Cu1       1.0  0.750004007692901  0.9802282663765779  0.4284703312186836  1.0000
  Cu  Cu2       1.0  0.25000202568131163  0.019767001456173702  0.5715322208582166  1.0000
  H   H1        1.0  0.7500109461690981  0.9990064569236594  0.1897154488878527  1.0000
  H   H2        1.0  0.25000260075652386  0.0009944068718751994  0.8102882916774946  1.0000
  H   H3        1.0  0.7500058549474532  0.5598238815959818  0.3766779817003467  1.0000
  H   H4        1.0  0.2500051874382621  0.4401657518793485  0.6233209650622983  1.0000
  H   H5        1.0  0.749985102871243  0.32981458794258595  0.20620698755345054  1.0000
  H   H6        1.0  0.25000339890005563  0.6701861734353044  0.7937903081291328  1.0000
  C   C1        1.0  0.7500003529748368  0.7196891922560411  0.10008306366368203  1.0000
  C   C2        1.0  0.2500081849249511  0.2803199822715641  0.8999172231680534  1.0000
  C   C3        1.0  0.750000751342057  0.8495751499192822  0.19397960442264411  1.0000
  C   C4        1.0  0.25000528203808875  0.15042568827115593  0.8060225249217156  1.0000
  C   C5        1.0  0.749998198586539  0.6062850003373512  0.29646899384486863  1.0000
  C   C6        1.0  0.24999030317290755  0.3937046203251596  0.7035291473027954  1.0000
  C   C7        1.0  0.7499976748194827  0.7865804949045341  0.9962599750126843  1.0000
  C   C8        1.0  0.25000334953061554  0.2134327773841491  0.0037349597078630975  1.0000
  C   C9        1.0  0.749995297615996  0.4796479095444965  0.20170886320497067  1.0000
  C   C10       1.0  0.25000322220649457  0.5203514432488276  0.7982875311511395  1.0000
  I   I1        1.0  0.750001670789608  0.7857013329168298  0.5926516450747032  1.0000
  I   I2        1.0  0.2500093715940253  0.214289670747057  0.40734578618801015  1.0000
  N   N1        1.0  0.750003431425533  0.7919051845622888  0.29285902237018047  1.0000
  N   N2        1.0  0.25000510645647017  0.2080872788922434  0.7071425326591908  1.0000
  N   N3        1.0  0.7499901087771832  0.5337375829677313  0.1029291489856234  1.0000
  N   N4        1.0  0.2500034020276516  0.4662687487705952  0.8970677239656056  1.0000
  N   N5        1.0  0.7500000585307801  0.8522318377604776  0.9152304350973354  1.0000
  N   N6        1.0  0.24999595682243134  0.14777609457665622  0.08477942332733333  1.0000
