data_image0
_chemical_formula_structural       La2H12C18Cl6O18
_chemical_formula_sum              "La2 H12 C18 Cl6 O18"
_cell_length_a       7.7061560652700125
_cell_length_b       8.957293049046667
_cell_length_c       11.773723410857075
_cell_angle_alpha    73.8274142102563
_cell_angle_beta     73.96947928681706
_cell_angle_gamma    83.42702879031005

_space_group_name_H-M_alt    "P 1"
_space_group_IT_number       1

loop_
  _space_group_symop_operation_xyz
  'x, y, z'

loop_
  _atom_site_type_symbol
  _atom_site_label
  _atom_site_symmetry_multiplicity
  _atom_site_fract_x
  _atom_site_fract_y
  _atom_site_fract_z
  _atom_site_occupancy
  La  La1       1.0  0.11382249009965048  0.4079486256216428  0.17903562510570484  1.0000
  La  La2       1.0  0.8861803262551575  0.5920450095240001  0.8209641352103816  1.0000
  H   H1        1.0  0.2968206608810959  0.5645171978689449  0.87468194671024  1.0000
  H   H2        1.0  0.7031981436217407  0.4354795947063153  0.1253105739434943  1.0000
  H   H3        1.0  0.21974998814697946  0.39738464381118643  0.9089758771734682  1.0000
  H   H4        1.0  0.7802686500923456  0.6026132795401012  0.09101303140007395  1.0000
  H   H5        1.0  0.20376503558757256  0.4210928872835425  0.41786717631542575  1.0000
  H   H6        1.0  0.7962290911369506  0.5789299906594111  0.5821296295822194  1.0000
  H   H7        1.0  0.27787169265522493  0.5818311217585119  0.34090733431802533  1.0000
  H   H8        1.0  0.7221601450822347  0.41817232701566104  0.6590735193266115  1.0000
  H   H9        1.0  0.5536325135596486  0.3304385132830775  0.05001602622080263  1.0000
  H   H10       1.0  0.4463686022242683  0.6695644191282853  0.9499786463718822  1.0000
  H   H11       1.0  0.46802559063296206  0.26231797727104583  0.18938818008236782  1.0000
  H   H12       1.0  0.5319837511519124  0.7376918484465521  0.8106101662853792  1.0000
  C   C1        1.0  0.979549534867047  0.05565022496701033  0.18616101324161605  1.0000
  C   C2        1.0  0.020439924505190298  0.9443448632113279  0.8138453134940278  1.0000
  C   C3        1.0  0.14302989609442562  0.08074206947577521  0.07410209947223481  1.0000
  C   C4        1.0  0.8569567833845324  0.91925655784673  0.9259040049107982  1.0000
  C   C5        1.0  0.22542647906362132  0.9551798105010506  0.026047028440089492  1.0000
  C   C6        1.0  0.7745574817734922  0.0448212009646696  0.973959942674043  1.0000
  C   C7        1.0  0.17353980611610348  0.8034789243871148  0.09050053506868483  1.0000
  C   C8        1.0  0.8264467595941483  0.19651850755956707  0.9095024534039311  1.0000
  C   C9        1.0  0.006120632882705497  0.7780419954371  0.19874937905193948  1.0000
  C   C10       1.0  0.9938687477248535  0.2219519054403847  0.8012546727721175  1.0000
  C   C11       1.0  0.9224981677522593  0.903445429357511  0.24569951926360994  1.0000
  C   C12       1.0  0.07748989728379742  0.0965485045531409  0.7543056345103029  1.0000
  C   C13       1.0  0.9690152639995374  0.16469752065631135  0.45390431922481167  1.0000
  C   C14       1.0  0.0309888767058482  0.8353019291357101  0.5460964627122635  1.0000
  C   C15       1.0  0.13229746974277387  0.07477617906611303  0.39178990948951764  1.0000
  C   C16       1.0  0.8677052678922691  0.9252256218359566  0.6082106372288081  1.0000
  C   C17       1.0  0.8479125014566692  0.08597771004006201  0.5613422267811077  1.0000
  C   C18       1.0  0.1520902011743459  0.9140240827870375  0.4386574789383957  1.0000
  Cl  Cl1       1.0  0.4014141576243375  0.9896826711992905  0.8964385110874178  1.0000
  Cl  Cl2       1.0  0.5985710838027032  0.0103229756869325  0.10356804773494586  1.0000
  Cl  Cl3       1.0  0.7439767098030075  0.869240843491177  0.3736819541734705  1.0000
  Cl  Cl4       1.0  0.25601835311643123  0.1307483456247098  0.6263262511801531  1.0000
  Cl  Cl5       1.0  0.6666963312929681  0.18783045363861822  0.6326604720084961  1.0000
  Cl  Cl6       1.0  0.3333089587204013  0.8121700938962776  0.36733559589852405  1.0000
  O   O1        1.0  0.9087493568306398  0.1774658414721628  0.21732269616682495  1.0000
  O   O2        1.0  0.09124148812115608  0.822529229822962  0.7826842106166085  1.0000
  O   O3        1.0  0.19557646228535927  0.2190525216655459  0.032677408471869285  1.0000
  O   O4        1.0  0.8044075860505868  0.780946171723294  0.9673308998108752  1.0000
  O   O5        1.0  0.255076356945672  0.6788455221723523  0.0671156527246737  1.0000
  O   O6        1.0  0.7449139542340076  0.32115760990453174  0.9328811074762627  1.0000
  O   O7        1.0  0.9534332423525952  0.6394704264980008  0.24103955041850597  1.0000
  O   O8        1.0  0.046561768072031405  0.360521088769744  0.7589681587653276  1.0000
  O   O9        1.0  0.9543424750161619  0.30821203093243815  0.40238264941525875  1.0000
  O   O10       1.0  0.0456630775161884  0.6917862389004416  0.5976189606545006  1.0000
  O   O11       1.0  0.23856597751798597  0.15653729075940254  0.2976213047950083  1.0000
  O   O12       1.0  0.7614380931793435  0.8434621428826719  0.7023777951444147  1.0000
  O   O13       1.0  0.1838114290649742  0.5069846062539584  0.9075920740333107  1.0000
  O   O14       1.0  0.8162073491680033  0.4930086728685906  0.09239866787861936  1.0000
  O   O15       1.0  0.26796184284814467  0.4759043449063398  0.3354384413071828  1.0000
  O   O16       1.0  0.7320488232199408  0.524097265871717  0.6645563347108238  1.0000
  O   O17       1.0  0.4771789259644592  0.360052429165748  0.12480007685047668  1.0000
  O   O18       1.0  0.5228223211013939  0.6399540409232573  0.8751988974804874  1.0000
