data_image0
_chemical_formula_structural       Nd2Cu3P6H24C30N6O18
_chemical_formula_sum              "Nd2 Cu3 P6 H24 C30 N6 O18"
_cell_length_a       10.39649979104469
_cell_length_b       11.445559994097993
_cell_length_c       11.444429742164601
_cell_angle_alpha    111.25419853686901
_cell_angle_beta     107.62135685261889
_cell_angle_gamma    107.62696261460405

_space_group_name_H-M_alt    "P 1"
_space_group_IT_number       1

loop_
  _space_group_symop_operation_xyz
  'x, y, z'

loop_
  _atom_site_type_symbol
  _atom_site_label
  _atom_site_symmetry_multiplicity
  _atom_site_fract_x
  _atom_site_fract_y
  _atom_site_fract_z
  _atom_site_occupancy
  Nd  Nd1       1.0  0.49999980322786547  0.9999980306720034  0.9999974321735294  1.0000
  Nd  Nd2       1.0  0.9999930287337122  0.9999987325560085  0.9999957466458154  1.0000
  Cu  Cu1       1.0  0.9999991116610332  2.281038966599997e-06  0.5000029944353557  1.0000
  Cu  Cu2       1.0  0.9999991471413382  0.5000039547887168  1.9659455717478034e-06  1.0000
  Cu  Cu3       1.0  0.4999926174663614  0.49999460264871226  0.49999420259473476  1.0000
  P   P1        1.0  0.1727625070322887  0.0149454931329558  0.7633239766991052  1.0000
  P   P2        1.0  0.15777639552971587  0.7484114433076742  0.9850618535483021  1.0000
  P   P3        1.0  0.4093534744476131  0.2366125273333211  0.2515458830058535  1.0000
  P   P4        1.0  0.827238168686506  0.9850564152907849  0.23667763908741785  1.0000
  P   P5        1.0  0.8422238458237244  0.25159364072521834  0.01493817479775573  1.0000
  P   P6        1.0  0.5906357986295846  0.763376678027413  0.7484445021805826  1.0000
  H   H1        1.0  0.3357589712719573  0.3114406928676132  0.019127400668423965  1.0000
  H   H2        1.0  0.024333976539935524  0.7077044489726062  0.6886363059593206  1.0000
  H   H3        1.0  0.31653367227027474  0.9808342032236723  0.2922557431029347  1.0000
  H   H4        1.0  0.6642468011715296  0.6885633327682897  0.9808772537317622  1.0000
  H   H5        1.0  0.9756716908558404  0.29229534221578757  0.3113624133985483  1.0000
  H   H6        1.0  0.6834667072859518  0.0191550023523845  0.7077411797586918  1.0000
  H   H7        1.0  0.3718634034710745  0.5435557328466131  0.026720426434032184  1.0000
  H   H8        1.0  0.8283282878149479  0.48321497725622464  0.45646908521320034  1.0000
  H   H9        1.0  0.34515018793053537  0.9732961535051956  0.5168318309294689  1.0000
  H   H10       1.0  0.628142370237775  0.45644829282228006  0.9732851021129603  1.0000
  H   H11       1.0  0.17167536240663847  0.5167848139500036  0.543529955366388  1.0000
  H   H12       1.0  0.6548559150959647  0.026700462107022798  0.4831693500156645  1.0000
  H   H13       1.0  0.2560231318680195  0.5418990070390278  0.801019546562685  1.0000
  H   H14       1.0  0.7140736835628658  0.25913176967466006  0.45807525188278214  1.0000
  H   H15       1.0  0.4550499458568922  0.1989801505001765  0.7408943358412045  1.0000
  H   H16       1.0  0.7439760597628151  0.4581039600759452  0.19898554219432185  1.0000
  H   H17       1.0  0.28592651349163134  0.7408711973489234  0.5419274908963487  1.0000
  H   H18       1.0  0.5449461105361593  0.8010185820785622  0.25910224019223443  1.0000
  H   H19       1.0  0.0854347030880689  0.3039635171995485  0.5735356870246945  1.0000
  H   H20       1.0  0.7814367417464537  0.2695800384348104  0.6960048199598248  1.0000
  H   H21       1.0  0.511942066537415  0.42646115035680776  0.7304214154281963  1.0000
  H   H22       1.0  0.914560454194394  0.696039449951094  0.42647004417575124  1.0000
  H   H23       1.0  0.21855845856958916  0.7304250456921579  0.30399732266074136  1.0000
  H   H24       1.0  0.4880478788496845  0.5735354648702327  0.26956834894181714  1.0000
  C   C1        1.0  0.19676519291843422  0.1903016325380378  0.7930423716078109  1.0000
  C   C2        1.0  0.006406808970957841  0.6027447798451603  0.8097345107891697  1.0000
  C   C3        1.0  0.40361921774699283  0.20689802409723507  0.39718991178001056  1.0000
  C   C4        1.0  0.8032344786420681  0.8097002760100909  0.20696246430339485  1.0000
  C   C5        1.0  0.9935943935072018  0.39725818708702576  0.19026588601208516  1.0000
  C   C6        1.0  0.596372604325225  0.7930922398860785  0.6028024297866635  1.0000
  C   C7        1.0  0.2847413866834571  0.31585315741311587  0.9234249983720628  1.0000
  C   C8        1.0  0.9688772758612032  0.6075749175552828  0.6841861006789286  1.0000
  C   C9        1.0  0.36123555671449037  0.07653573874491572  0.39237546234241444  1.0000
  C   C10       1.0  0.7152618405611122  0.6841498096991855  0.07658032208831134  1.0000
  C   C11       1.0  0.031125945056508907  0.3924280493920591  0.3158148490474133  1.0000
  C   C12       1.0  0.6387608327923147  0.9234555838761266  0.607619388529585  1.0000
  C   C13       1.0  0.30468306321527194  0.44344310397900694  0.9270663979492608  1.0000
  C   C14       1.0  0.8612451014547986  0.4836357331027727  0.5565609129626594  1.0000
  C   C15       1.0  0.37762469316109565  0.0729497511715849  0.5163809271618192  1.0000
  C   C16       1.0  0.6953196347391926  0.5565588045588613  0.07293839320276167  1.0000
  C   C17       1.0  0.1387560516629307  0.5163651166881351  0.44343870168444965  1.0000
  C   C18       1.0  0.6223758319456679  0.9270458057623404  0.4836165938686464  1.0000
  C   C19       1.0  0.23771008797985624  0.442952655297006  0.8009290192086238  1.0000
  C   C20       1.0  0.7947247429218365  0.3579789963050716  0.5570199676752239  1.0000
  C   C21       1.0  0.43684876402127065  0.19909926362346647  0.6420500054245508  1.0000
  C   C22       1.0  0.7622906421608561  0.5570513703999751  0.19907687531927107  1.0000
  C   C23       1.0  0.20527545033655065  0.6420239706195332  0.44298015266349466  1.0000
  C   C24       1.0  0.5631477216756479  0.8008962932141585  0.35794466146213466  1.0000
  C   C25       1.0  0.14611317048409223  0.3137905895321466  0.6754000632751695  1.0000
  C   C26       1.0  0.8322970737468296  0.3616156708943094  0.6861885849525604  1.0000
  C   C27       1.0  0.47075148080006807  0.3246067150239896  0.6383765316275714  1.0000
  C   C28       1.0  0.8538824692587924  0.6862113191176248  0.3246071633730806  1.0000
  C   C29       1.0  0.16770158479778977  0.6383862375472659  0.3138133520556891  1.0000
  C   C30       1.0  0.5292419759721483  0.6753888417579076  0.3616164317246841  1.0000
  N   N1        1.0  0.12642410128878367  0.19093031229037646  0.6728730348543762  1.0000
  N   N2        1.0  0.9354507454004732  0.4819428964759069  0.8090806723927029  1.0000
  N   N3        1.0  0.4535046234052942  0.3270887681887302  0.5180011559826454  1.0000
  N   N4        1.0  0.8735720652134589  0.8090726548678475  0.327132972808613  1.0000
  N   N5        1.0  0.06455002777381226  0.5180632461974001  0.1909216335553126  1.0000
  N   N6        1.0  0.5464826793274041  0.6729025542651357  0.48198858428605706  1.0000
  O   O1        1.0  0.1100352120478901  0.9289073264588692  0.6007712648509907  1.0000
  O   O2        1.0  0.1811172330304558  0.6719067978415936  0.07109540109984643  1.0000
  O   O3        1.0  0.5091637630762308  0.3991574582019197  0.3280843521922066  1.0000
  O   O4        1.0  0.8899665197203747  0.07109669904774311  0.3992296612586088  1.0000
  O   O5        1.0  0.818880564375668  0.3281014620162352  0.9289086059083046  1.0000
  O   O6        1.0  0.4908260392910718  0.6008328057332405  0.6719065623025812  1.0000
  O   O7        1.0  0.05773598867236284  0.9582850351172355  0.8107550695782348  1.0000
  O   O8        1.0  0.09939731688897513  0.8524849797502224  0.041724297924147793  1.0000
  O   O9        1.0  0.24690970239694104  0.18919104440114856  0.14745265762181956  1.0000
  O   O10       1.0  0.942262087425611  0.0417136975096568  0.18924293352709745  1.0000
  O   O11       1.0  0.9006055126969558  0.14752327978260382  0.9582714757818562  1.0000
  O   O12       1.0  0.7530806786208899  0.8108023952497235  0.8525395683354657  1.0000
  O   O13       1.0  0.3308893823454966  0.0341269708824328  0.8430333952957979  1.0000
  O   O14       1.0  0.2966783148660496  0.8089777197730328  0.9658252439515136  1.0000
  O   O15       1.0  0.4877905919132601  0.1569314548249636  0.19098914439005193  1.0000
  O   O16       1.0  0.6691102335277248  0.9658728203594575  0.15696628772722918  1.0000
  O   O17       1.0  0.7033232662901838  0.19101995424375673  0.03417158740203522  1.0000
  O   O18       1.0  0.5121986798985674  0.8430577505027798  0.8090003666495844  1.0000
