data_image0
_chemical_formula_structural       Cu4H32C24O20
_chemical_formula_sum              "Cu4 H32 C24 O20"
_cell_length_a       5.49039968922365
_cell_length_b       7.060213851001746
_cell_length_c       18.21418664435586
_cell_angle_alpha    89.9999280489405
_cell_angle_beta     89.99912674437006
_cell_angle_gamma    90.0000098887978

_space_group_name_H-M_alt    "P 1"
_space_group_IT_number       1

loop_
  _space_group_symop_operation_xyz
  'x, y, z'

loop_
  _atom_site_type_symbol
  _atom_site_label
  _atom_site_symmetry_multiplicity
  _atom_site_fract_x
  _atom_site_fract_y
  _atom_site_fract_z
  _atom_site_occupancy
  Cu  Cu1       1.0  0.834137456086026  0.7500032338500586  0.801332249390512  1.0000
  Cu  Cu2       1.0  0.3341506136979858  0.2499999703381874  0.6986544347183921  1.0000
  Cu  Cu3       1.0  0.1660001376303484  0.24999501004552369  0.19864574079856814  1.0000
  Cu  Cu4       1.0  0.6659942646131255  0.7499954407219603  0.30136473214617604  1.0000
  H   H1        1.0  0.34485078952810266  0.7500086272832648  0.8839214011571169  1.0000
  H   H2        1.0  0.8448892702998804  0.2500229111089424  0.6160696168129717  1.0000
  H   H3        1.0  0.6551993794121955  0.25003919019671633  0.11602913812703256  1.0000
  H   H4        1.0  0.15518093168666516  0.7500178242975223  0.383974256259556  1.0000
  H   H5        1.0  0.13436219649277348  0.7500056443934466  0.941314050191998  1.0000
  H   H6        1.0  0.6343921188378444  0.25000735424026743  0.5586830533373897  1.0000
  H   H7        1.0  0.8655823341147411  0.2500209272833516  0.05860739118733699  1.0000
  H   H8        1.0  0.3655596939969358  0.7500107188768579  0.44139431044106897  1.0000
  H   H9        1.0  0.08878638820596758  0.12352473577021068  0.8562021090898353  1.0000
  H   H10       1.0  0.5888124507032018  0.8764811534967833  0.6437897520002662  1.0000
  H   H11       1.0  0.9112274230080217  0.6235165810687776  0.14376167252418526  1.0000
  H   H12       1.0  0.4112085048148017  0.3764839320205269  0.3562529574934742  1.0000
  H   H13       1.0  0.9112218891810072  0.8764834228227015  0.14376105783814805  1.0000
  H   H14       1.0  0.4112122173269128  0.1235142574939871  0.35625137609482477  1.0000
  H   H15       1.0  0.0887899611402929  0.376485911972793  0.8562036904708844  1.0000
  H   H16       1.0  0.5888125204233033  0.6235185609026246  0.6437914647452416  1.0000
  H   H17       1.0  0.1532378718682992  0.376505557943787  0.9903923235840606  1.0000
  H   H18       1.0  0.6532550440226713  0.623493288181784  0.5095980890943251  1.0000
  H   H19       1.0  0.8467630502071231  0.876506268474195  0.009575718879212  1.0000
  H   H20       1.0  0.34672598120131676  0.1234899566415848  0.49043871262890065  1.0000
  H   H21       1.0  0.8467631200077362  0.6234983514788797  0.009574137500393898  1.0000
  H   H22       1.0  0.34672955414620793  0.37649504086427754  0.4904391959533711  1.0000
  H   H23       1.0  0.15323429888940862  0.12350047371860741  0.9903934873273739  1.0000
  H   H24       1.0  0.6532549742564626  0.8764997887918966  0.5095980234057294  1.0000
  H   H25       1.0  0.5951187772008596  0.12294399838112469  0.9692082495205621  1.0000
  H   H26       1.0  0.09513669957888739  0.877060478315954  0.5307780869398613  1.0000
  H   H27       1.0  0.4048713565255539  0.6229401296982359  0.030761022684202992  1.0000
  H   H28       1.0  0.9048423646678572  0.3770617959586745  0.4692476026668968  1.0000
  H   H29       1.0  0.40487310777898233  0.8770613274198525  0.03076260376903409  1.0000
  H   H30       1.0  0.9048369706251549  0.12293776545560321  0.46924931572826967  1.0000
  H   H31       1.0  0.5951168857893094  0.3770637797180996  0.9692070855026881  1.0000
  H   H32       1.0  0.09514041236318602  0.6229392805926608  0.5307787019305577  1.0000
  C   C1        1.0  0.4631450595047679  0.2500025894220031  0.8656947573421758  1.0000
  C   C2        1.0  0.9631661197430573  0.750000692426056  0.6342923234365043  1.0000
  C   C3        1.0  0.5368486468830014  0.7499970708320731  0.13427389985356086  1.0000
  C   C4        1.0  0.03683851355344099  0.24999613496380138  0.365737275238203  1.0000
  C   C5        1.0  0.17771385274420481  0.250003901111711  0.878123208658877  1.0000
  C   C6        1.0  0.6777372474411861  0.7499977925225069  0.6218687180051956  1.0000
  C   C7        1.0  0.8222926031699558  0.7499985919215891  0.12184544850146745  1.0000
  C   C8        1.0  0.32227831387487527  0.2499962020844677  0.37816801793427146  1.0000
  C   C9        1.0  0.22112608362563443  0.2500023710833402  0.961940173998208  1.0000
  C   C10       1.0  0.7211438325437384  0.7499979322977952  0.5380493205792334  1.0000
  C   C11       1.0  0.7788694441337114  0.750000121947501  0.0380279341692429  1.0000
  C   C12       1.0  0.27883712295859897  0.2499946459143915  0.4619852193642941  1.0000
  C   C13       1.0  0.5005249367228684  0.25000247352993915  0.9497999759405642  1.0000
  C   C14       1.0  0.0005439491293088999  0.7499991134499736  0.550186325757444  1.0000
  C   C15       1.0  0.4994705909680803  0.7500014358836112  0.05017142636209119  1.0000
  C   C16       1.0  0.9994424706366801  0.24999629755252067  0.44983942980898206  1.0000
  C   C17       1.0  0.5483728095862688  0.4256319184733854  0.8244222555854318  1.0000
  C   C18       1.0  0.048390384517460895  0.5743796120263907  0.6755615898970644  1.0000
  C   C19       1.0  0.45162262084222254  0.9255724010287025  0.1755693693703293  1.0000
  C   C20       1.0  0.9516198101018956  0.0744168052749217  0.32444888415488277  1.0000
  C   C21       1.0  0.45162818176640934  0.5744201480934591  0.17556891150325526  1.0000
  C   C22       1.0  0.9516124278729735  0.4255704746014644  0.3244465969135674  1.0000
  C   C23       1.0  0.5483729063890479  0.0743720200669316  0.8244250918967208  1.0000
  C   C24       1.0  0.048392109034651305  0.9256239301654574  0.6755609496752368  1.0000
  O   O1        1.0  0.665673153146848  0.552096907755292  0.8600512741616483  1.0000
  O   O2        1.0  0.16570319714560358  0.44790619502956736  0.6399346786950915  1.0000
  O   O3        1.0  0.33427694855240014  0.05209462831548001  0.13997403524457033  1.0000
  O   O4        1.0  0.8342904000000929  0.9478888418124783  0.3600388169428327  1.0000
  O   O5        1.0  0.3342968744406747  0.44788858853340235  0.13997118731634825  1.0000
  O   O6        1.0  0.8342704742146195  0.5520920488266371  0.3600367236684433  1.0000
  O   O7        1.0  0.6656694012683247  0.9479106973887994  0.8600517204282025  1.0000
  O   O8        1.0  0.1657124130966423  0.05208957262149741  0.6399347814370129  1.0000
  O   O9        1.0  0.4972358464262285  0.4451455785050983  0.7568212375161705  1.0000
  O   O10       1.0  0.9972397690820781  0.5548591402422502  0.7431689521086539  1.0000
  O   O11       1.0  0.5026976469587011  0.9449881566848716  0.24317202456838052  1.0000
  O   O12       1.0  0.0027030460399757004  0.05500361217581679  0.2568354929863617  1.0000
  O   O13       1.0  0.5026886477020865  0.555005635174652  0.24317157682249757  1.0000
  O   O14       1.0  0.0026992958034241996  0.44498613368469364  0.2568342936991215  1.0000
  O   O15       1.0  0.49723231131437734  0.0548571172534409  0.7568218878800506  1.0000
  O   O16       1.0  0.9972341973891973  0.945146185103475  0.7431683017698913  1.0000
  O   O17       1.0  0.16746287223439538  0.7500014844065818  0.8889141457942741  1.0000
  O   O18       1.0  0.6674942736556418  0.24998179001508455  0.6110805816955673  1.0000
  O   O19       1.0  0.8325745476950601  0.24998259565995073  0.11101223654694078  1.0000
  O   O20       1.0  0.3325649995862534  0.7499782112456683  0.38899238962510907  1.0000
