data_image0
_chemical_formula_structural       Cs4H12C8N16O16
_chemical_formula_sum              "Cs4 H12 C8 N16 O16"
_cell_length_a       6.549622923146234
_cell_length_b       8.41125977925744
_cell_length_c       13.257863238616
_cell_angle_alpha    89.99990388841229
_cell_angle_beta     95.63572183490615
_cell_angle_gamma    89.99912472516293

_space_group_name_H-M_alt    "P 1"
_space_group_IT_number       1

loop_
  _space_group_symop_operation_xyz
  'x, y, z'

loop_
  _atom_site_type_symbol
  _atom_site_label
  _atom_site_symmetry_multiplicity
  _atom_site_fract_x
  _atom_site_fract_y
  _atom_site_fract_z
  _atom_site_occupancy
  Cs  Cs1       1.0  0.7488213722227073  0.45730781979210633  0.8759987548146243  1.0000
  Cs  Cs2       1.0  0.7511957564185394  0.957309266507032  0.6239973943085105  1.0000
  Cs  Cs3       1.0  0.2511812898770813  0.5426935381349764  0.12399997070458821  1.0000
  Cs  Cs4       1.0  0.24880383320593322  0.0426909025544333  0.3760026887003534  1.0000
  H   H1        1.0  0.23116460470293987  0.8185173882793465  0.6965935631416258  1.0000
  H   H2        1.0  0.2688461302623821  0.31851347406269076  0.8034136426595069  1.0000
  H   H3        1.0  0.7688365231768658  0.18148396965696634  0.3034050869512086  1.0000
  H   H4        1.0  0.7311534532912206  0.6814866949964795  0.19658870286094296  1.0000
  H   H5        1.0  0.8272216210116314  0.2253215137212834  0.08352817764221501  1.0000
  H   H6        1.0  0.6727797476066755  0.7253232947331086  0.4164676242904619  1.0000
  H   H7        1.0  0.17277950688007593  0.7746786553324725  0.9164704724519694  1.0000
  H   H8        1.0  0.3272198400060732  0.2746756854450325  0.5835332128902877  1.0000
  H   H9        1.0  0.786281668153606  0.3837093854308621  0.14356462598009762  1.0000
  H   H10       1.0  0.7137165357918179  0.8837131792918315  0.35642855345961527  1.0000
  H   H11       1.0  0.21372252816616572  0.6162919724869977  0.8564341749654929  1.0000
  H   H12       1.0  0.2862815176009478  0.11628580089553962  0.6435722082947494  1.0000
  C   C1        1.0  0.28020060678855424  0.562567353950037  0.6699258520770002  1.0000
  C   C2        1.0  0.21981066754187142  0.06256159202015972  0.830074921627734  1.0000
  C   C3        1.0  0.7198020533114048  0.43743162621117904  0.330073627615441  1.0000
  C   C4        1.0  0.7801873858389925  0.9374385770497613  0.16992584012528775  1.0000
  C   C5        1.0  0.23060689045750854  0.5996157707962554  0.5112542111786169  1.0000
  C   C6        1.0  0.2693913481762493  0.09961384700800122  0.9887534166135056  1.0000
  C   C7        1.0  0.7693942313633287  0.4003843982552199  0.4887467014271536  1.0000
  C   C8        1.0  0.730606707240142  0.9003851331801372  0.011246590970330319  1.0000
  N   N1        1.0  0.24281195884478277  0.722446148044888  0.6473670710934556  1.0000
  N   N2        1.0  0.25719455228657045  0.2224482160457413  0.8526438221957733  1.0000
  N   N3        1.0  0.757186098571438  0.27755520990911003  0.3526321823171585  1.0000
  N   N4        1.0  0.7428050332787565  0.7775531418967532  0.1473577691527979  1.0000
  N   N5        1.0  0.2090902203547742  0.7463786585053215  0.5465340115223256  1.0000
  N   N6        1.0  0.2909096869817915  0.24637655056580599  0.9534720006498958  1.0000
  N   N7        1.0  0.7909063048412862  0.2536250772237807  0.4534644122886746  1.0000
  N   N8        1.0  0.7090898985835283  0.7536248073766815  0.04652959069867532  1.0000
  N   N9        1.0  0.27352309613411313  0.48351749597126326  0.5803297624119709  1.0000
  N   N10       1.0  0.2264827873507684  0.9835138743959391  0.919682272148961  1.0000
  N   N11       1.0  0.7264764915024385  0.5164791064417785  0.4196710747714789  1.0000
  N   N12       1.0  0.7735121996494598  0.0164827280455384  0.08031758458482591  1.0000
  N   N13       1.0  0.20567266536736645  0.5696823443503618  0.4043777960100386  1.0000
  N   N14       1.0  0.2943379727830404  0.0696880640247244  0.095635888511346  1.0000
  N   N15       1.0  0.7943284625362425  0.4303166358208443  0.5956208540854959  1.0000
  N   N16       1.0  0.7056616148178066  0.9303121050359735  0.9043649486680465  1.0000
  O   O1        1.0  0.3134522362087536  0.5068762386480685  0.7590831028292444  1.0000
  O   O2        1.0  0.18656777539503375  0.0068829452161339  0.7409362746589281  1.0000
  O   O3        1.0  0.6865519580992939  0.4931239303864815  0.24091645228822503  1.0000
  O   O4        1.0  0.813430275926507  0.9931207905006831  0.259065241260565  1.0000
  O   O5        1.0  0.15836543624571683  0.6823851863916276  0.3454243972726232  1.0000
  O   O6        1.0  0.34163376271976637  0.1823866541666632  0.1545802826719651  1.0000
  O   O7        1.0  0.8416341553904799  0.3176161715531549  0.6545749315643618  1.0000
  O   O8        1.0  0.658365824869179  0.8176147037765846  0.8454205545060773  1.0000
  O   O9        1.0  0.23161613806107076  0.4306221938695529  0.375361852651551  1.0000
  O   O10       1.0  0.2684087597283735  0.9306234340132703  0.1246498049995992  1.0000
  O   O11       1.0  0.7683865220864945  0.5693720307614497  0.6246376270462903  1.0000
  O   O12       1.0  0.7315938963243411  0.06937554614641782  0.8753511830338994  1.0000
  O   O13       1.0  0.8622771726142703  0.3404372302533147  0.08876567258862883  1.0000
  O   O14       1.0  0.6377310867313711  0.8404394400744977  0.41123409112299925  1.0000
  O   O15       1.0  0.13772549150913702  0.6595641276745356  0.9112322987600622  1.0000
  O   O16       1.0  0.3622685008813776  0.1595595401036505  0.5887667460577504  1.0000
