data_image0
_chemical_formula_structural       Li4H32C32N12O12
_chemical_formula_sum              "Li4 H32 C32 N12 O12"
_cell_length_a       7.254309230611276
_cell_length_b       9.492591757044549
_cell_length_c       12.885083307437702
_cell_angle_alpha    89.99997374449775
_cell_angle_beta     100.63221643194366
_cell_angle_gamma    90.00035788029467

_space_group_name_H-M_alt    "P 1"
_space_group_IT_number       1

loop_
  _space_group_symop_operation_xyz
  'x, y, z'

loop_
  _atom_site_type_symbol
  _atom_site_label
  _atom_site_symmetry_multiplicity
  _atom_site_fract_x
  _atom_site_fract_y
  _atom_site_fract_z
  _atom_site_occupancy
  Li  Li1       1.0  0.1446284391449808  0.36576012289827986  0.6071001719170752  1.0000
  Li  Li2       1.0  0.3553696614541905  0.8657611408108677  0.3928998800207495  1.0000
  Li  Li3       1.0  0.8553689977716276  0.6342397141264016  0.3928993612656981  1.0000
  Li  Li4       1.0  0.6446305805872258  0.1342397496736609  0.6070999505265604  1.0000
  H   H1        1.0  0.2595977467908952  0.13349505112687854  0.6654788035117392  1.0000
  H   H2        1.0  0.24040406349726604  0.6334955435299319  0.3345232745961085  1.0000
  H   H3        1.0  0.7404038924029379  0.8665047859077005  0.3345219512415909  1.0000
  H   H4        1.0  0.7595961677370371  0.36650534695408504  0.6654781069995224  1.0000
  H   H5        1.0  0.04702962660578441  0.13148980670171537  0.6752173952365795  1.0000
  H   H6        1.0  0.4529721727709343  0.6314902920892179  0.3247839063144937  1.0000
  H   H7        1.0  0.9529720125880489  0.868510030332864  0.32478335951675064  1.0000
  H   H8        1.0  0.5470280584547922  0.36850849148864023  0.67521747528059  1.0000
  H   H9        1.0  0.2485491038950229  0.6129858298584947  0.5095715922530104  1.0000
  H   H10       1.0  0.2514497398107025  0.1129864623122216  0.4904294024050699  1.0000
  H   H11       1.0  0.7514483330258771  0.38701506061926944  0.4904279409300401  1.0000
  H   H12       1.0  0.7485505022264293  0.887013374719231  0.5095704281419629  1.0000
  H   H13       1.0  0.4757886711275248  0.4443948179867759  0.8170595529109905  1.0000
  H   H14       1.0  0.0242114663929058  0.9443911884037987  0.18294146372547712  1.0000
  H   H15       1.0  0.5242101737657592  0.5556081794007852  0.18293935343056944  1.0000
  H   H16       1.0  0.9757901673930931  0.0556075951774417  0.8170600665517469  1.0000
  H   H17       1.0  0.5963072918247648  0.4737210985516072  0.9463710627193436  1.0000
  H   H18       1.0  0.9036880195727408  0.9737162478670668  0.05363000705202843  1.0000
  H   H19       1.0  0.4036887425487308  0.5262829522820027  0.053628321782383595  1.0000
  H   H20       1.0  0.09630800396363533  0.026280428794478897  0.9463709284961157  1.0000
  H   H21       1.0  0.6505609061200701  0.7102206895846662  0.015570396788596988  1.0000
  H   H22       1.0  0.849435066525679  0.21021727373126708  0.9844308346558392  1.0000
  H   H23       1.0  0.3494379333567963  0.2897791474434044  0.9844292850763097  1.0000
  H   H24       1.0  0.1505609570149815  0.7897804563833546  0.015570100892574601  1.0000
  H   H25       1.0  0.6421285761123842  0.9655942438063433  0.9795683416669122  1.0000
  H   H26       1.0  0.8578736927764651  0.46559042854971705  0.02043191628208517  1.0000
  H   H27       1.0  0.35787729238504085  0.034407700145585786  0.020429757036723107  1.0000
  H   H28       1.0  0.1421237333244534  0.5344073015682936  0.9795691679484692  1.0000
  H   H29       1.0  0.5260034157644639  0.05846662553945238  0.7987490624378282  1.0000
  H   H30       1.0  0.9740011617319838  0.5584651854478437  0.20125002953848545  1.0000
  H   H31       1.0  0.47400526865631326  0.9415342649666841  0.20124778258148274  1.0000
  H   H32       1.0  0.025994861812961303  0.4415335981198609  0.7987509060101985  1.0000
  C   C1        1.0  0.3752181362695666  0.6130756335676109  0.6660822711218871  1.0000
  C   C2        1.0  0.12478351327664683  0.1130736387269025  0.33391902094602693  1.0000
  C   C3        1.0  0.6247821057761412  0.3869263103700007  0.3339175594256929  1.0000
  C   C4        1.0  0.8752167233483518  0.8869240913981428  0.6660815851246299  1.0000
  C   C5        1.0  0.45354707295858526  0.7043153687160879  0.752779278374163  1.0000
  C   C6        1.0  0.046455308119092806  0.2043130456667583  0.24722361172658947  1.0000
  C   C7        1.0  0.5464545608402674  0.29568657522438707  0.24722225190387093  1.0000
  C   C8        1.0  0.9535435259585014  0.7956878448141324  0.7527768456627443  1.0000
  C   C9        1.0  0.524688221593621  0.6510234255983035  0.8563092447252316  1.0000
  C   C10       1.0  0.975315690179997  0.15102010671441948  0.14369207280378052  1.0000
  C   C11       1.0  0.47531343382374314  0.34897957179629197  0.1436891834564378  1.0000
  C   C12       1.0  0.0246859490052671  0.8489776234140081  0.8563086819490024  1.0000
  C   C13       1.0  0.5951500465220575  0.7487450404607399  0.9361544207675508  1.0000
  C   C14       1.0  0.9048448316031498  0.24874248094172202  0.06384745735754652  1.0000
  C   C15       1.0  0.40484457445834465  0.25125268965050646  0.06384636609872979  1.0000
  C   C16       1.0  0.0951497893815372  0.7512563026226003  0.9361533295090112  1.0000
  C   C17       1.0  0.5917870848375842  0.892577201351798  0.9152802202688761  1.0000
  C   C18       1.0  0.9082145953782543  0.3925735915857231  0.08471922455532173  1.0000
  C   C19       1.0  0.40821737028388594  0.10742263569007093  0.08471928080039959  1.0000
  C   C20       1.0  0.0917842332829295  0.6074241385356771  0.9152820083573587  1.0000
  C   C21       1.0  0.5238213270737261  0.9459987259642302  0.8149079821691033  1.0000
  C   C22       1.0  0.976180787797169  0.445997491908166  0.18509149016553292  1.0000
  C   C23       1.0  0.476181736294599  0.0540011110747685  0.1850898191697254  1.0000
  C   C24       1.0  0.0238180462718631  0.554001291666566  0.8149089672232607  1.0000
  C   C25       1.0  0.45591948253363773  0.8517398181988939  0.7332775260673686  1.0000
  C   C26       1.0  0.0440841088223607  0.3517385245998241  0.2667238889026891  1.0000
  C   C27       1.0  0.5440863751480975  0.1482600188463579  0.2667221236840405  1.0000
  C   C28       1.0  0.9559161062055567  0.6482634193364873  0.7332798192656895  1.0000
  C   C29       1.0  0.39262071648227703  0.9027394680405364  0.6252440221245124  1.0000
  C   C30       1.0  0.1073776795743129  0.4027384155229114  0.3747568243797375  1.0000
  C   C31       1.0  0.6073795363619681  0.0972603689914351  0.3747542573742066  1.0000
  C   C32       1.0  0.8926183385713671  0.5972614214976133  0.6252448866933805  1.0000
  N   N1        1.0  0.3162753112815864  0.6751850058938726  0.5716700287285619  1.0000
  N   N2        1.0  0.18372403848888302  0.17518639984252357  0.4283309979596552  1.0000
  N   N3        1.0  0.683722125635029  0.32481483113081566  0.4283295044542115  1.0000
  N   N4        1.0  0.8162748009879837  0.8248134371855469  0.5716686839052443  1.0000
  N   N5        1.0  0.3266557387597331  0.8147075249976438  0.5472569972737205  1.0000
  N   N6        1.0  0.173341941061409  0.3147077991721545  0.4527438038981444  1.0000
  N   N7        1.0  0.673341703560439  0.18529231202730048  0.45274176038488895  1.0000
  N   N8        1.0  0.8266568984111731  0.6852909844028403  0.5472558779664922  1.0000
  N   N9        1.0  0.5190109964420202  0.5110026353899498  0.8785417649776974  1.0000
  N   N10       1.0  0.9809917707027437  0.011000411871002296  0.12146025597097318  1.0000
  N   N11       1.0  0.48099065356321813  0.48899825509822376  0.12145743872758173  1.0000
  N   N12       1.0  0.019009868482527295  0.9889973182574248  0.8785404987818168  1.0000
  O   O1        1.0  0.35566773246240757  0.4789731135382736  0.6734160972139875  1.0000
  O   O2        1.0  0.14433268100343347  0.9789731408446228  0.326585712753932  1.0000
  O   O3        1.0  0.6443296936556565  0.5210288303920477  0.3265849870176467  1.0000
  O   O4        1.0  0.8556675610294064  0.021025642733754096  0.6734141177928308  1.0000
  O   O5        1.0  0.4047351131414985  0.036613560199498386  0.6035923975000018  1.0000
  O   O6        1.0  0.09526311458385092  0.5366122495426778  0.39640778230493373  1.0000
  O   O7        1.0  0.5952651451063105  0.9633862768327361  0.3964051064745604  1.0000
  O   O8        1.0  0.9047357194894589  0.4633875874851299  0.6035926750841298  1.0000
  O   O9        1.0  0.15855380160031982  0.19368383922832064  0.6851197374570503  1.0000
  O   O10       1.0  0.34144709042663374  0.6936837851405288  0.3148829984873629  1.0000
  O   O11       1.0  0.8414492239431014  0.8063159978088592  0.3148834925508908  1.0000
  O   O12       1.0  0.6585517490502326  0.3063160518875419  0.6851166833775437  1.0000
