data_image0
_chemical_formula_structural       Cu6H18C32N28
_chemical_formula_sum              "Cu6 H18 C32 N28"
_cell_length_a       9.659627344084836
_cell_length_b       10.04663825007687
_cell_length_c       10.96242452449447
_cell_angle_alpha    108.30678049551756
_cell_angle_beta     90.91548653370413
_cell_angle_gamma    108.82331288384704

_space_group_name_H-M_alt    "P 1"
_space_group_IT_number       1

loop_
  _space_group_symop_operation_xyz
  'x, y, z'

loop_
  _atom_site_type_symbol
  _atom_site_label
  _atom_site_symmetry_multiplicity
  _atom_site_fract_x
  _atom_site_fract_y
  _atom_site_fract_z
  _atom_site_occupancy
  Cu  Cu1       1.0  0.28409684841751937  0.8412529221245177  0.6530135118043887  1.0000
  Cu  Cu2       1.0  0.7159086184021533  0.15873557886285983  0.34698107157428376  1.0000
  Cu  Cu3       1.0  0.4516808462034376  0.4158756295050237  0.5635306338546967  1.0000
  Cu  Cu4       1.0  0.548329666528467  0.584118436624692  0.4364665030684165  1.0000
  Cu  Cu5       1.0  0.9128092189404527  0.955945753787198  0.7159284083596519  1.0000
  Cu  Cu6       1.0  0.0871904698235753  0.044052906687213095  0.2840707540252936  1.0000
  H   H1        1.0  0.883284486931693  0.4710094101362329  0.8983788162846906  1.0000
  H   H2        1.0  0.11671405572123918  0.5289948739608332  0.10162281616509715  1.0000
  H   H3        1.0  0.5891190090861186  0.9471774199697331  0.7938636841138801  1.0000
  H   H4        1.0  0.41088106712480515  0.052822329332307995  0.2061330529950638  1.0000
  H   H5        1.0  0.4292675003055137  0.8249139387874249  0.9358880661933497  1.0000
  H   H6        1.0  0.5707302595373208  0.17508807375166663  0.0641092679430386  1.0000
  H   H7        1.0  0.756466068582455  0.563741537054298  0.7558357992701517  1.0000
  H   H8        1.0  0.2435296272525989  0.4362604949782351  0.24416150703969916  1.0000
  H   H9        1.0  0.5464090465020489  0.7133584020584178  0.06913703203847632  1.0000
  H   H10       1.0  0.4535888539687818  0.28664700878381666  0.9308649058816627  1.0000
  H   H11       1.0  0.9274326067868159  0.4889904597585114  0.40141742151399734  1.0000
  H   H12       1.0  0.07256167276398162  0.5110105307541841  0.5985859557047418  1.0000
  H   H13       1.0  0.8461833267194621  0.7151142365108  0.14485740964024532  1.0000
  H   H14       1.0  0.1538225516930041  0.2848843373124765  0.8551390915646806  1.0000
  H   H15       1.0  0.7851316672665477  0.47704958233104117  0.2024365186883159  1.0000
  H   H16       1.0  0.21486737931537891  0.5229502048885306  0.7975629491669878  1.0000
  H   H17       1.0  0.7664795183724139  0.20054753578983045  0.8814256464628158  1.0000
  H   H18       1.0  0.2335241827166995  0.7994566807930991  0.11857422578022886  1.0000
  C   C1        1.0  0.7804827776264532  0.3986024052098428  0.8358228862782439  1.0000
  C   C2        1.0  0.21951704939068153  0.6013996253968868  0.1641781352308342  1.0000
  C   C3        1.0  0.1923910580907489  0.971811150774677  0.48309915030804257  1.0000
  C   C4        1.0  0.8076065698320252  0.028187566754247904  0.5169036437965246  1.0000
  C   C5        1.0  0.965434848820884  0.8205503969724004  0.890863517156518  1.0000
  C   C6        1.0  0.034565231348196286  0.1794493992809904  0.1091377943851199  1.0000
  C   C7        1.0  0.3852946307276284  0.13640596474602518  0.6000317673224487  1.0000
  C   C8        1.0  0.6147036393772466  0.8635916260377312  0.39997072131176736  1.0000
  C   C9        1.0  0.8197753341082504  0.827088129690935  0.9144079828996041  1.0000
  C   C10       1.0  0.18022384993515322  0.17291501827069308  0.0855924291932908  1.0000
  C   C11       1.0  0.6302752958937674  0.8941767122501856  0.8521762963418382  1.0000
  C   C12       1.0  0.36972388814963614  0.10582643571144247  0.1478241157510567  1.0000
  C   C13       1.0  0.5238986409847187  0.2218763496565117  0.6839468780362523  1.0000
  C   C14       1.0  0.47610066112404326  0.7781212313805238  0.3160556245112289  1.0000
  C   C15       1.0  0.5430526609210985  0.8283688298144791  0.9319219825851375  1.0000
  C   C16       1.0  0.45694368105421296  0.17163212242423498  0.068079592687063  1.0000
  C   C17       1.0  0.7098188359036186  0.45105766679376547  0.7593253622557511  1.0000
  C   C18       1.0  0.2901785372839497  0.5489432663079581  0.24067531204317308  1.0000
  C   C19       1.0  0.606896225705448  0.7653960196020149  0.0032967881293117086  1.0000
  C   C20       1.0  0.3931037371898968  0.23460935296623828  0.9967033478442886  1.0000
  C   C21       1.0  0.07743719550933274  0.8334038205871291  0.41049437690047336  1.0000
  C   C22       1.0  0.9225583660307707  0.16659488826442728  0.5895056447179458  1.0000
  C   C23       1.0  0.9485902138221861  0.5876521910353744  0.37259289236688176  1.0000
  C   C24       1.0  0.0514075499788049  0.41234986845506677  0.6274090162022077  1.0000
  C   C25       1.0  0.9015193072175905  0.7109145735793803  0.23072121156208422  1.0000
  C   C26       1.0  0.09848283300110688  0.2890851562292197  0.7692755533733973  1.0000
  C   C27       1.0  0.8687377919116275  0.5812045477434677  0.26220527109774844  1.0000
  C   C28       1.0  0.13126164290882503  0.41879633769401164  0.7377926863680955  1.0000
  C   C29       1.0  0.7144976032993143  0.24942058093122904  0.8264147127975718  1.0000
  C   C30       1.0  0.2855036463351297  0.7505825663174973  0.17358755689493682  1.0000
  C   C31       1.0  0.40539125354632694  0.5883648604223383  0.5960855593756165  1.0000
  C   C32       1.0  0.5946246846283928  0.4116357657746547  0.4039025569505553  1.0000
  N   N1        1.0  0.029356385851556803  0.868134221264256  0.7959870756267619  1.0000
  N   N2        1.0  0.9706429122990486  0.13186331282143726  0.2040108524880182  1.0000
  N   N3        1.0  0.2984007230782311  0.9925441355958636  0.576315542934367  1.0000
  N   N4        1.0  0.701599610242795  0.007453426304188296  0.423686058639845  1.0000
  N   N5        1.0  0.3331014086035324  0.20105770485687197  0.5267901663356085  1.0000
  N   N6        1.0  0.6668972536980251  0.7989410310961487  0.4732153863418417  1.0000
  N   N7        1.0  0.15813717406102507  0.8440564016986015  0.7948272782777579  1.0000
  N   N8        1.0  0.8418621232979576  0.1559411229968148  0.20516973495048063  1.0000
  N   N9        1.0  0.21041215400686045  0.0959178371554614  0.451949680547905  1.0000
  N   N10       1.0  0.7895848341087087  0.9040820352894411  0.5480561636866385  1.0000
  N   N11       1.0  0.7693414918860952  0.8951172577751833  0.8429597262273842  1.0000
  N   N12       1.0  0.2306576929489381  0.10488589957671476  0.1570416007520521  1.0000
  N   N13       1.0  0.5809592168925591  0.3652790941274942  0.6849583129454969  1.0000
  N   N14       1.0  0.4190382696105885  0.6347162157080246  0.31503896248877067  1.0000
  N   N15       1.0  0.17086027269496631  0.7840207300597581  0.885952923788423  1.0000
  N   N16       1.0  0.8291401949210028  0.21598015502127044  0.11404596247722047  1.0000
  N   N17       1.0  0.05113464818660417  0.7677966249876317  0.9468122508277972  1.0000
  N   N18       1.0  0.9488655670690563  0.23220650383700564  0.05318726029182842  1.0000
  N   N19       1.0  0.5868141385932477  0.15998026001184223  0.7502219601072609  1.0000
  N   N20       1.0  0.41318839619702163  0.8400206431368245  0.2497806135310725  1.0000
  N   N21       1.0  0.7446275153107392  0.763592418466281  0.9947730304131852  1.0000
  N   N22       1.0  0.2553716695242941  0.2364107388856168  0.0052282965662512875  1.0000
  N   N23       1.0  0.006935394999373909  0.8388388860025769  0.30445038008813435  1.0000
  N   N24       1.0  0.9930636507909228  0.16116089182672508  0.6955481728806205  1.0000
  N   N25       1.0  0.053301067368138874  0.7137868148574923  0.4476681825249215  1.0000
  N   N26       1.0  0.9466942449781758  0.2862141752987525  0.5523361234936317  1.0000
  N   N27       1.0  0.36363936241590267  0.6912062593942634  0.6229433370733162  1.0000
  N   N28       1.0  0.6363721613405176  0.3087788505415503  0.3770531302069671  1.0000
