data_image0
_chemical_formula_structural       Co6H60C48N24
_chemical_formula_sum              "Co6 H60 C48 N24"
_cell_length_a       14.639602069713973
_cell_length_b       14.639921429133693
_cell_length_c       14.630422469118502
_cell_angle_alpha    109.46389484242452
_cell_angle_beta     109.46877761040078
_cell_angle_gamma    109.48134273867238

_space_group_name_H-M_alt    "P 1"
_space_group_IT_number       1

loop_
  _space_group_symop_operation_xyz
  'x, y, z'

loop_
  _atom_site_type_symbol
  _atom_site_label
  _atom_site_symmetry_multiplicity
  _atom_site_fract_x
  _atom_site_fract_y
  _atom_site_fract_z
  _atom_site_occupancy
  Co  Co1       1.0  0.7498772528539066  0.5001659678992141  0.2503220197979489  1.0000
  Co  Co2       1.0  0.2500957653264849  0.5001765293436479  0.7501345391168145  1.0000
  Co  Co3       1.0  0.24979888570019435  0.7497050005561903  0.49954992070755816  1.0000
  Co  Co4       1.0  0.7501409314104278  0.25005973393668773  0.5002465740206715  1.0000
  Co  Co5       1.0  0.49970734278080914  0.24969701697136057  0.750015515386032  1.0000
  Co  Co6       1.0  0.5003055066909569  0.750231083993917  0.25013916771290223  1.0000
  H   H1        1.0  0.8837732181510491  0.7623369399641079  0.4148976699239455  1.0000
  H   H2        1.0  0.6493209355201374  0.23732154655904486  0.12079033578056896  1.0000
  H   H3        1.0  0.11657401277224035  0.5321347426904312  0.8788406643271927  1.0000
  H   H4        1.0  0.34903915745038466  0.4702814371108914  0.5867397501520414  1.0000
  H   H5        1.0  0.41424174569896643  0.8829739380206619  0.7617971906232056  1.0000
  H   H6        1.0  0.12136306708381998  0.6524165971642689  0.23679631107390972  1.0000
  H   H7        1.0  0.8786739253245345  0.11637393800072722  0.5312812816849615  1.0000
  H   H8        1.0  0.5867303607300942  0.34940888819838295  0.47041227314030454  1.0000
  H   H9        1.0  0.762864987076682  0.4122867190677367  0.8837318145013241  1.0000
  H   H10       1.0  0.23754311954999  0.12165204881949872  0.6530957529374602  1.0000
  H   H11       1.0  0.5302882613383348  0.878924909764031  0.11651988637638774  1.0000
  H   H12       1.0  0.47015318559159897  0.5869914837141935  0.3493054040021164  1.0000
  H   H13       1.0  0.4138155330078206  0.7627358870937186  0.8837009563573018  1.0000
  H   H14       1.0  0.12128755987757235  0.23802122338094725  0.6515728858326497  1.0000
  H   H15       1.0  0.8790111832661864  0.5288920501130577  0.1166413102677948  1.0000
  H   H16       1.0  0.5851288429003605  0.46928394618981895  0.3480732144077336  1.0000
  H   H17       1.0  0.7625142553035433  0.8837277536005531  0.41344182195833656  1.0000
  H   H18       1.0  0.23793568390833306  0.6505672781127532  0.1206277122974342  1.0000
  H   H19       1.0  0.5314176015590205  0.11561993792003727  0.8785825857796181  1.0000
  H   H20       1.0  0.46883303982134084  0.3473436668224962  0.5852870906752654  1.0000
  H   H21       1.0  0.8839400237921848  0.4159654648674617  0.7626672578687985  1.0000
  H   H22       1.0  0.6513520598239922  0.12133194060522369  0.23759238624112558  1.0000
  H   H23       1.0  0.11649801856360407  0.8789969283906771  0.5296170077709093  1.0000
  H   H24       1.0  0.34743547195923  0.585005373108885  0.46874424085712  1.0000
  H   H25       1.0  0.9145713834254182  0.4356104478982701  0.26479596241237857  1.0000
  H   H26       1.0  0.043331361682319984  0.4912896391571664  0.38691264140040005  1.0000
  H   H27       1.0  0.044676428141741754  0.5073280937401564  0.2728263444721293  1.0000
  H   H28       1.0  0.8512955520702691  0.4838074318409085  0.5655943601435637  1.0000
  H   H29       1.0  0.7555073483086403  0.5232498971317412  0.5036519982832103  1.0000
  H   H30       1.0  0.8800013027657984  0.5607421657530481  0.4966655506183811  1.0000
  H   H31       1.0  0.9304020916889043  0.3106491817690155  0.4377435975461735  1.0000
  H   H32       1.0  0.9896944160826138  0.23518371779117334  0.48211058425913206  1.0000
  H   H33       1.0  0.07891317584921616  0.3718836756712491  0.5141857337059504  1.0000
  H   H34       1.0  0.13418471571569768  0.6236574336311094  0.698265160611669  1.0000
  H   H35       1.0  0.13388728108457593  0.6981268296477482  0.6232400226441541  1.0000
  H   H36       1.0  0.24713150541854384  0.7601665473935099  0.7597390622146917  1.0000
  H   H37       1.0  0.2518012378456617  0.01977473047723067  0.4967001289525186  1.0000
  H   H38       1.0  0.28556839288745567  0.91840516501167  0.4345301738570059  1.0000
  H   H39       1.0  0.3832412305262096  0.06422007307529744  0.5035602409747567  1.0000
  H   H40       1.0  0.5076799677079152  0.7533568801674306  0.518102681509795  1.0000
  H   H41       1.0  0.4926269091390055  0.8730910828627216  0.5623541655343942  1.0000
  H   H42       1.0  0.5648085789116736  0.8579392117231849  0.4859909600773873  1.0000
  H   H43       1.0  0.5106552927428896  0.07481091953938811  0.37678347244377614  1.0000
  H   H44       1.0  0.43597937477570564  0.9253568025396463  0.30176969786413105  1.0000
  H   H45       1.0  0.4874174183338624  0.00043764532316711087  0.24025710827996247  1.0000
  H   H46       1.0  0.6565177971843569  0.10437198720673994  0.6131807293141307  1.0000
  H   H47       1.0  0.6498521239448607  0.1708090102686839  0.735282225969243  1.0000
  H   H48       1.0  0.7718927744952637  0.23447741049916695  0.7271821056661165  1.0000
  H   H49       1.0  0.4444562309912783  0.3351672716330754  0.948788990714611  1.0000
  H   H50       1.0  0.5198094467713831  0.356671299371783  0.08504441744203459  1.0000
  H   H51       1.0  0.46729756994584887  0.22850144868723266  0.9635374225379819  1.0000
  H   H52       1.0  0.5633586324614513  0.4917395980511047  0.8708167966779072  1.0000
  H   H53       1.0  0.4874681080112922  0.5648556205331873  0.8609742281353192  1.0000
  H   H54       1.0  0.5162845449957132  0.5094235368195966  0.7530222318907035  1.0000
  H   H55       1.0  0.2311702008976796  0.47534333172585264  0.9775372623949892  1.0000
  H   H56       1.0  0.3656901187381153  0.5172642561717211  0.08264212507599926  1.0000
  H   H57       1.0  0.3217818828256824  0.4403824278316435  0.9379514616771089  1.0000
  H   H58       1.0  0.6262081963801551  0.7036450113100373  0.1390222802945899  1.0000
  H   H59       1.0  0.6921965613131251  0.6206066170096279  0.12919479577353593  1.0000
  H   H60       1.0  0.763084145542706  0.7562120591112205  0.24683294661571845  1.0000
  C   C1        1.0  0.9425897181270955  0.7331563603877811  0.4138145739447977  1.0000
  C   C2        1.0  0.6790699216671642  0.26671460980609407  0.20915036111715307  1.0000
  C   C3        1.0  0.057667935380024384  0.4719881212903444  0.7908465445187004  1.0000
  C   C4        1.0  0.3199784084076143  0.5293821044345889  0.5868306089370704  1.0000
  C   C5        1.0  0.41368150108226603  0.9420322387601914  0.7327867068887172  1.0000
  C   C6        1.0  0.20937348251765547  0.6802314949780879  0.26618614507734145  1.0000
  C   C7        1.0  0.7906445256862967  0.0575976880958464  0.47139716107119495  1.0000
  C   C8        1.0  0.5868053277168174  0.3201259293571965  0.5293898977376797  1.0000
  C   C9        1.0  0.7334502783627243  0.4122882532222789  0.9426040761902994  1.0000
  C   C10       1.0  0.26687539571869223  0.20965721527976205  0.6810760909794595  1.0000
  C   C11       1.0  0.47071498122056005  0.7908561893945532  0.05756639271727682  1.0000
  C   C12       1.0  0.5293225918073861  0.5871084691562275  0.3203119354624491  1.0000
  C   C13       1.0  0.41318793015661737  0.7334773158744028  0.9425923795704776  1.0000
  C   C14       1.0  0.20943452418485006  0.26713963794860957  0.6805136464327004  1.0000
  C   C15       1.0  0.7908216033453997  0.4698878399023628  0.05762581295579129  1.0000
  C   C16       1.0  0.5862564984465097  0.5291291564489529  0.31984454475245633  1.0000
  C   C17       1.0  0.7332820099228174  0.9426594434314098  0.41329714691414676  1.0000
  C   C18       1.0  0.26698124160233766  0.6796676644716513  0.20882807059848568  1.0000
  C   C19       1.0  0.4714219334301077  0.05696360150329125  0.7904865530179704  1.0000
  C   C20       1.0  0.5287210265144113  0.3192621046952839  0.5862914420507437  1.0000
  C   C21       1.0  0.9427224792027573  0.4145419386801946  0.7334477528650537  1.0000
  C   C22       1.0  0.6797954759049462  0.20940270721106918  0.26680510759222636  1.0000
  C   C23       1.0  0.05752343922957005  0.7907815533216438  0.47060689022361407  1.0000
  C   C24       1.0  0.3192608952111656  0.5861591552370129  0.5286448799266736  1.0000
  C   C25       1.0  3.442543109618893e-05  0.6131113163326988  0.3691717294681426  1.0000
  C   C26       1.0  0.0004335444810408479  0.5061834306967087  0.32056042156401077  1.0000
  C   C27       1.0  0.7569414198429316  0.38719608566552216  0.3871278168756618  1.0000
  C   C28       1.0  0.8138681840100761  0.4942672260065067  0.4939488267210804  1.0000
  C   C29       1.0  2.0521053336642115e-05  0.36976789222782713  0.6132179919129186  1.0000
  C   C30       1.0  0.9998237737031705  0.31916687584981684  0.5062119290105686  1.0000
  C   C31       1.0  0.24284333390356497  0.6300847893105441  0.6298784137648141  1.0000
  C   C32       1.0  0.1865683378259251  0.6806708750560092  0.6804393828869166  1.0000
  C   C33       1.0  0.3698889818869448  0.9999848730601856  0.6129537966843657  1.0000
  C   C34       1.0  0.3198095484905251  0.00043968545556080397  0.5062514270847628  1.0000
  C   C35       1.0  0.38691754824270674  0.7565962011593116  0.3868239585881525  1.0000
  C   C36       1.0  0.49365664557704764  0.8131932590811887  0.49392244968556287  1.0000
  C   C37       1.0  0.6130077397987748  0.0002092452376844063  0.37012676210424184  1.0000
  C   C38       1.0  0.5061537377114932  0.0001881347668088576  0.31957060526847403  1.0000
  C   C39       1.0  0.6308513889944153  0.24387814518171075  0.6308339609401941  1.0000
  C   C40       1.0  0.6799471276552396  0.1856032643589103  0.679482422042767  1.0000
  C   C41       1.0  0.612961517723761  0.36912443984206067  0.9999476689708755  1.0000
  C   C42       1.0  0.5056714644864257  0.3197465376766219  0.9995503954267801  1.0000
  C   C43       1.0  0.3872376099464392  0.3871820875660391  0.7571782757091937  1.0000
  C   C44       1.0  0.494166303354355  0.4939309837099658  0.8134208428618874  1.0000
  C   C45       1.0  0.3694618075612652  0.6131393463749433  0.9999860808527713  1.0000
  C   C46       1.0  0.3194220621318777  0.5060642127306494  0.9997447964750846  1.0000
  C   C47       1.0  0.6300695603521194  0.6300843831650483  0.24313314033335587  1.0000
  C   C48       1.0  0.6805266570735714  0.6803305621799184  0.18659802171919176  1.0000
  N   N1        1.0  0.9065782984964702  0.621105140173107  0.34958168917746224  1.0000
  N   N2        1.0  0.7275448053763542  0.37880965614432693  0.2852869116344434  1.0000
  N   N3        1.0  0.09355440203918157  0.4432341512565471  0.7147971996761199  1.0000
  N   N4        1.0  0.271905292274802  0.5574739769076446  0.6508156643057461  1.0000
  N   N5        1.0  0.349422309010919  0.9063404450747329  0.6208056020458627  1.0000
  N   N6        1.0  0.28523586084188696  0.7284188549458152  0.3784068334935  1.0000
  N   N7        1.0  0.7146006314856875  0.09363226509564983  0.4436798936893424  1.0000
  N   N8        1.0  0.6513502687817977  0.2727314295773838  0.5578907656211243  1.0000
  N   N9        1.0  0.6213130264373916  0.34860139521938993  0.9064999489924475  1.0000
  N   N10       1.0  0.37896849098336816  0.28554971828030057  0.7291571697650879  1.0000
  N   N11       1.0  0.44266593894311523  0.7146986809297999  0.0935000619806843  1.0000
  N   N12       1.0  0.5574399564814956  0.6509908140836986  0.27213287946212017  1.0000
  N   N13       1.0  0.34913042383970344  0.6214276728468916  0.9065339237370508  1.0000
  N   N14       1.0  0.28560110000367434  0.37911462189494927  0.7283871390040912  1.0000
  N   N15       1.0  0.7145259876069404  0.44223580704159104  0.09351333444086399  1.0000
  N   N16       1.0  0.6501154331640111  0.5568143519097078  0.2715289365358373  1.0000
  N   N17       1.0  0.6212329716950152  0.9067331016467222  0.349287676565744  1.0000
  N   N18       1.0  0.37894257355068117  0.7276908431237601  0.2851783255543835  1.0000
  N   N19       1.0  0.44323794979173664  0.09326180244158166  0.7147065998555958  1.0000
  N   N20       1.0  0.557001571744067  0.2714313557007415  0.6505167457611306  1.0000
  N   N21       1.0  0.9066375908603277  0.3498003926483548  0.6214599486470077  1.0000
  N   N22       1.0  0.7286629416134361  0.2856283213269394  0.37906356877363817  1.0000
  N   N23       1.0  0.09347976659147157  0.7148272400657518  0.44203839641505743  1.0000
  N   N24       1.0  0.2708909257760154  0.6498966399664993  0.5562547544295313  1.0000
