data_image0
_chemical_formula_structural       FeH14C20N10Cl2
_chemical_formula_sum              "Fe1 H14 C20 N10 Cl2"
_cell_length_a       7.4679479001002
_cell_length_b       7.992484975613189
_cell_length_c       9.144770091399083
_cell_angle_alpha    112.93473144801749
_cell_angle_beta     96.61512100042324
_cell_angle_gamma    103.87560803982242

_space_group_name_H-M_alt    "P 1"
_space_group_IT_number       1

loop_
  _space_group_symop_operation_xyz
  'x, y, z'

loop_
  _atom_site_type_symbol
  _atom_site_label
  _atom_site_symmetry_multiplicity
  _atom_site_fract_x
  _atom_site_fract_y
  _atom_site_fract_z
  _atom_site_occupancy
  Fe  Fe1       1.0  1.3477348005569969e-05  0.500031506582154  0.500002274620343  1.0000
  H   H1        1.0  0.5998275103697496  0.717475410535286  0.3324391006014693  1.0000
  H   H2        1.0  0.40014268520523905  0.2825560811930358  0.6675180737455406  1.0000
  H   H3        1.0  0.4050509842777855  0.5719010473707654  0.48134626565315847  1.0000
  H   H4        1.0  0.5949484247641762  0.42809873459111  0.5185991102574408  1.0000
  H   H5        1.0  0.9896665103501617  0.8071706312731449  0.39486206142857583  1.0000
  H   H6        1.0  0.010347232624646078  0.19290020007932177  0.6052209779577283  1.0000
  H   H7        1.0  0.06610318165760276  0.4531953039013032  0.12596814474611054  1.0000
  H   H8        1.0  0.9340587990718561  0.5468692876306703  0.8740022745857631  1.0000
  H   H9        1.0  0.20473700933572295  0.3416174970373477  0.8826997862638566  1.0000
  H   H10       1.0  0.7953572071253844  0.6583021050277649  0.11725993354008318  1.0000
  H   H11       1.0  0.33363751013672527  0.06284473500492277  0.8240933792366081  1.0000
  H   H12       1.0  0.6662665123811137  0.936949304794446  0.1758631442489432  1.0000
  H   H13       1.0  0.32694445985575266  0.9078869612099892  0.015287365621936928  1.0000
  H   H14       1.0  0.6729313659514344  0.09199822336407948  0.9847452270640391  1.0000
  C   C1        1.0  0.4662567912493429  0.746283743963893  0.3501588656237545  1.0000
  C   C2        1.0  0.5337187699127027  0.2537385541886649  0.6498275186179683  1.0000
  C   C3        1.0  0.35671512089422197  0.6590724408354304  0.4295981037719799  1.0000
  C   C4        1.0  0.6432769094432516  0.3409412661002662  0.5703785283891706  1.0000
  C   C5        1.0  0.12863693891624442  0.791930731338276  0.38505885451798605  1.0000
  C   C6        1.0  0.8713638949134291  0.20812504926013278  0.6149824846566787  1.0000
  C   C7        1.0  0.2499009111847171  0.8943602348938171  0.3220070089474802  1.0000
  C   C8        1.0  0.7500794738186869  0.10568576486692646  0.6780241807829057  1.0000
  C   C9        1.0  0.19503031038029658  0.04632651325318449  0.2967722292481554  1.0000
  C   C10       1.0  0.8049344506488012  0.9537094374615479  0.7032624187784436  1.0000
  C   C11       1.0  0.1361726699433277  0.25450223775067127  0.20927372545919104  1.0000
  C   C12       1.0  0.8638467282768189  0.7455311100854871  0.7907238210095783  1.0000
  C   C13       1.0  0.13004789685809467  0.33927769871922203  0.10054513786233339  1.0000
  C   C14       1.0  0.8700505301380161  0.660733938157584  0.8994269546336116  1.0000
  C   C15       1.0  0.2034728410815845  0.2728211197160988  0.9650572342857162  1.0000
  C   C16       1.0  0.7965850351086772  0.7270944777483378  0.034897908622298135  1.0000
  C   C17       1.0  0.2767440325356104  0.11665920042336352  0.931574208687735  1.0000
  C   C18       1.0  0.7232296449367296  0.8832132576410814  0.06840650878807955  1.0000
  C   C19       1.0  0.27848108458267967  0.031138268037693692  0.0349206732682816  1.0000
  C   C20       1.0  0.7214591401589698  0.9687812309286625  0.9651039524692637  1.0000
  N   N1        1.0  0.4159279277713777  0.865145456533291  0.2950908825239579  1.0000
  N   N2        1.0  0.5840487468655554  0.13490070742773239  0.7049322660741952  1.0000
  N   N3        1.0  0.12074736063068767  0.1593004617964269  0.4033792533063335  1.0000
  N   N4        1.0  0.8792321859767753  0.8407629336092483  0.5966468631187425  1.0000
  N   N5        1.0  0.08380420586361474  0.2887266965051082  0.35331110262632853  1.0000
  N   N6        1.0  0.9162002122888282  0.7113312225147297  0.6466887240714172  1.0000
  N   N7        1.0  0.21159532614390741  0.102514684717633  0.17304148052551235  1.0000
  N   N8        1.0  0.7883928222099642  0.8975053540741342  0.826987192961461  1.0000
  N   N9        1.0  0.1802286659881815  0.6719229469707174  0.4395493664107307  1.0000
  N   N10       1.0  0.8197679656770875  0.3281131245652488  0.56046611583227  1.0000
  Cl  Cl1       1.0  0.23772172282142628  0.5624400062175425  0.7187156200559174  1.0000
  Cl  Cl2       1.0  0.7622957655563312  0.43760046802833585  0.2812874272661078  1.0000
