data_image0
_chemical_formula_structural       Cu2H20C20N8O12
_chemical_formula_sum              "Cu2 H20 C20 N8 O12"
_cell_length_a       5.075024183021148
_cell_length_b       9.859773497262275
_cell_length_c       13.312972316829383
_cell_angle_alpha    101.12452284481809
_cell_angle_beta     89.99977491952603
_cell_angle_gamma    89.99980757011033

_space_group_name_H-M_alt    "P 1"
_space_group_IT_number       1

loop_
  _space_group_symop_operation_xyz
  'x, y, z'

loop_
  _atom_site_type_symbol
  _atom_site_label
  _atom_site_symmetry_multiplicity
  _atom_site_fract_x
  _atom_site_fract_y
  _atom_site_fract_z
  _atom_site_occupancy
  Cu  Cu1       1.0  0.49999832365324437  0.9999997190851249  1.8968447085275167e-07  1.0000
  Cu  Cu2       1.0  0.9999989271018919  0.4999988006799896  0.5000001353711951  1.0000
  H   H1        1.0  0.772078472420759  0.7787435506477678  0.011392555175341138  1.0000
  H   H2        1.0  0.27207464504887463  0.7212596089195175  0.4886087823328182  1.0000
  H   H3        1.0  0.22792611731250642  0.221257234172846  0.988606670774871  1.0000
  H   H4        1.0  0.7279279742471019  0.2787391007944037  0.5113923967373921  1.0000
  H   H5        1.0  0.8961125238521818  0.9127104752646247  0.08762470702642841  1.0000
  H   H6        1.0  0.39610443621970154  0.5872872437640099  0.412374906392266  1.0000
  H   H7        1.0  0.10388812501753358  0.0872882396696895  0.9123749705018938  1.0000
  H   H8        1.0  0.6038962126541348  0.41271043752952613  0.5876246215374081  1.0000
  H   H9        1.0  0.5313407879162213  0.5760804370883507  0.12237530426444472  1.0000
  H   H10       1.0  0.0313486139550179  0.9239201630186571  0.3776237694612163  1.0000
  H   H11       1.0  0.4686559200814601  0.4239193114911117  0.8776245228661068  1.0000
  H   H12       1.0  0.968655975770801  0.076079580333861  0.6223775592058587  1.0000
  H   H13       1.0  0.39037507673919697  0.7359176407879389  0.1901441744452512  1.0000
  H   H14       1.0  0.8903719872519602  0.7640842385621128  0.3098522939273423  1.0000
  H   H15       1.0  0.6096216312584913  0.26408210779152347  0.8098556526853004  1.0000
  H   H16       1.0  0.1096227503156229  0.2359155126286367  0.6901467824331675  1.0000
  H   H17       1.0  0.2862700657100418  0.6625044614370879  0.061972548981167094  1.0000
  H   H18       1.0  0.7862730642773599  0.8374955683506327  0.4380275631716302  1.0000
  H   H19       1.0  0.7137305831473383  0.3374973544195754  0.9380275773431138  1.0000
  H   H20       1.0  0.21372364371647018  0.16250417761972358  0.5619730147307607  1.0000
  C   C1        1.0  0.7618135965384595  0.2580007202561205  0.1279029146969535  1.0000
  C   C2        1.0  0.261838419837531  0.2420063546432588  0.37208938671656  1.0000
  C   C3        1.0  0.2381890227767798  0.7419980025033295  0.8720945105140742  1.0000
  C   C4        1.0  0.7381641994540686  0.757994424961332  0.6279113407791144  1.0000
  C   C5        1.0  0.7584014232723532  0.44906242150793935  0.2705937828035943  1.0000
  C   C6        1.0  0.258415157680858  0.0509394692817082  0.22940453377202627  1.0000
  C   C7        1.0  0.24159725515955438  0.5509362908194574  0.7294066454983579  1.0000
  C   C8        1.0  0.7415894320608984  0.949058212007458  0.7705949941540665  1.0000
  C   C9        1.0  0.8679208044567375  0.382497388297061  0.1780824315211618  1.0000
  C   C10       1.0  0.3679311859327896  0.11751252623981404  0.32191763365860737  1.0000
  C   C11       1.0  0.13207393310646856  0.617504432784365  0.821916193264819  1.0000
  C   C12       1.0  0.6320694629045391  0.8824923853209798  0.6780844430052966  1.0000
  C   C13       1.0  0.08307927986074758  0.44269116184718627  0.1294002745027072  1.0000
  C   C14       1.0  0.5830887256567506  0.057309037259962316  0.3706018152401711  1.0000
  C   C15       1.0  0.916917428148757  0.5573075583097093  0.8705979014855245  1.0000
  C   C16       1.0  0.4169138936268835  0.9426927733763081  0.6293998126259908  1.0000
  C   C17       1.0  0.3539955466507791  0.6402699061871573  0.135184702858389  1.0000
  C   C18       1.0  0.8540011250729405  0.8597310071101564  0.364815435856258  1.0000
  C   C19       1.0  0.6460011613548744  0.35972881136063256  0.864814223901682  1.0000
  C   C20       1.0  0.1459995237849583  0.14026873624673186  0.6351858928143913  1.0000
  N   N1        1.0  0.6783071713567708  0.1524230209499677  0.0842533224781121  1.0000
  N   N2        1.0  0.17831115821664406  0.3475759621291772  0.4157401861837613  1.0000
  N   N3        1.0  0.3216954479556549  0.8475715542008333  0.9157472581974915  1.0000
  N   N4        1.0  0.821681608909003  0.6524248200954404  0.5842597905490265  1.0000
  N   N5        1.0  0.6721726749806861  0.5050150502947445  0.3496627152472911  1.0000
  N   N6        1.0  0.17217646847024068  0.9949852219774658  0.15034060726878815  1.0000
  N   N7        1.0  0.3278181217228279  0.49498470350948054  0.6503356103449605  1.0000
  N   N8        1.0  0.8278320620962631  0.0050155393568403015  0.8496653756243687  1.0000
  O   O1        1.0  0.1960862341483534  0.38506730409424256  0.049734902810300206  1.0000
  O   O2        1.0  0.6960905466003595  0.11493573499991779  0.4502704335248424  1.0000
  O   O3        1.0  0.803914414716992  0.6149334807307413  0.9502643231434932  1.0000
  O   O4        1.0  0.30391207267967957  0.8850650367773624  0.5497325462863429  1.0000
  O   O5        1.0  0.1469186979071821  0.5697372997580175  0.1801125578540947  1.0000
  O   O6        1.0  0.6469341344305449  0.9302713132631197  0.3198875026875996  1.0000
  O   O7        1.0  0.853070128373929  0.4302624618757065  0.8198835154244365  1.0000
  O   O8        1.0  0.3530724257125186  0.0697336009002285  0.6801138231991003  1.0000
  O   O9        1.0  0.7287894797088512  0.8686269928528179  0.05771337850113413  1.0000
  O   O10       1.0  0.22878671043658017  0.6313710996871151  0.44228578811069497  1.0000
  O   O11       1.0  0.27121116916498517  0.1313706884407182  0.9422861494285399  1.0000
  O   O12       1.0  0.7712139384290212  0.3686286488879844  0.5577140390162825  1.0000
