data_image0
_chemical_formula_structural       H24Pb2C16O10
_chemical_formula_sum              "H24 Pb2 C16 O10"
_cell_length_a       5.085940272302749
_cell_length_b       8.146153885305988
_cell_length_c       11.471511761985262
_cell_angle_alpha    92.02373679484639
_cell_angle_beta     91.04671254283755
_cell_angle_gamma    97.30817502432866

_space_group_name_H-M_alt    "P 1"
_space_group_IT_number       1

loop_
  _space_group_symop_operation_xyz
  'x, y, z'

loop_
  _atom_site_type_symbol
  _atom_site_label
  _atom_site_symmetry_multiplicity
  _atom_site_fract_x
  _atom_site_fract_y
  _atom_site_fract_z
  _atom_site_occupancy
  H   H1        1.0  0.709382386705208  0.2136343282854867  0.04454775233178051  1.0000
  H   H2        1.0  0.2906589356447782  0.7863643821575721  0.9554419165970033  1.0000
  H   H3        1.0  0.49490420310065997  0.2086425027140919  0.8452485371859383  1.0000
  H   H4        1.0  0.5051071794308938  0.7913435423441157  0.15473730236243452  1.0000
  H   H5        1.0  0.22261186964913549  0.07349251556333058  0.8937297219218865  1.0000
  H   H6        1.0  0.7774071069075106  0.9265022916644412  0.10625980332168443  1.0000
  H   H7        1.0  0.45817305671610586  0.086855684112038  0.20868467877605923  1.0000
  H   H8        1.0  0.5418206991866086  0.9131291063337911  0.7913124177450044  1.0000
  H   H9        1.0  0.19938173581515165  0.0008271554052256999  0.11123931246526553  1.0000
  H   H10       1.0  0.8006367207955662  0.999155190046906  0.8887421141956438  1.0000
  H   H11       1.0  0.7003681547554876  0.1356052000119234  0.5135963029466311  1.0000
  H   H12       1.0  0.2995789238464042  0.8644238300183105  0.48641288114941267  1.0000
  H   H13       1.0  0.2881787984386435  0.1769541171449589  0.45557140907403954  1.0000
  H   H14       1.0  0.7118182015678374  0.8230468990220176  0.5444364851488572  1.0000
  H   H15       1.0  0.1409490602143464  0.29518692597827817  0.5610690907538967  1.0000
  H   H16       1.0  0.8590528263751266  0.7048313383698073  0.4389304465756824  1.0000
  H   H17       1.0  0.9890476372372845  0.9580332356565505  0.32439036897856255  1.0000
  H   H18       1.0  0.010930646415431506  0.04197259466525341  0.6756201829769638  1.0000
  H   H19       1.0  0.6439587791904486  0.9278142820039149  0.34692984832530277  1.0000
  H   H20       1.0  0.35604626734883743  0.0721991160827216  0.653073959393396  1.0000
  H   H21       1.0  0.4726174585523211  0.5074773299979042  0.35963716079233177  1.0000
  H   H22       1.0  0.5273656277957385  0.49252237044683506  0.6403741536546195  1.0000
  H   H23       1.0  0.291709639981228  0.5880414759510089  0.4483690072123282  1.0000
  H   H24       1.0  0.7083062780278908  0.4119869673267189  0.5516447248804753  1.0000
  Pb  Pb1       1.0  0.9929292174674559  0.5267424214908233  0.19167111526501668  1.0000
  Pb  Pb2       1.0  0.007040960526858005  0.47323108855744067  0.8083300446358452  1.0000
  C   C1        1.0  0.49482902986322586  0.17653765977488686  0.032772422335000315  1.0000
  C   C2        1.0  0.5051960396921658  0.8233807204597453  0.9672304038974249  1.0000
  C   C3        1.0  0.43722927361229574  0.11049049710091909  0.9070341623267313  1.0000
  C   C4        1.0  0.5627769120855319  0.8894892690133602  0.09294717666055162  1.0000
  C   C5        1.0  0.357172229316447  0.3246372087092695  0.0667944854427276  1.0000
  C   C6        1.0  0.6428884972843248  0.6753791767816537  0.9332121601798351  1.0000
  C   C7        1.0  0.41506810895329954  0.038299725451601305  0.11898028198982051  1.0000
  C   C8        1.0  0.5849313299459951  0.9617527631782893  0.8809885513872189  1.0000
  C   C9        1.0  0.8449709312308684  0.2697493642557303  0.36727618764595604  1.0000
  C   C10       1.0  0.15500826561675038  0.7302537522757219  0.6327133887852129  1.0000
  C   C11       1.0  0.8607963042414042  0.1312553922171489  0.45080389209456945  1.0000
  C   C12       1.0  0.1392010564719754  0.8687335328567157  0.5492264271366807  1.0000
  C   C13       1.0  0.1269558627131175  0.17132220556826638  0.518712537696203  1.0000
  C   C14       1.0  0.8730010051900549  0.828688114667159  0.48127537492914757  1.0000
  C   C15       1.0  0.8377272473190658  0.9585912411806135  0.3918303934337644  1.0000
  C   C16       1.0  0.16226323176200452  0.041417136706250815  0.6081776298875924  1.0000
  O   O1        1.0  0.12127563958068778  0.3329446761823077  0.028230359704707608  1.0000
  O   O2        1.0  0.8786967933053518  0.667052313755832  0.9717686637195943  1.0000
  O   O3        1.0  0.47074947833300473  0.434913394688202  0.13993876470325264  1.0000
  O   O4        1.0  0.5293084904121486  0.5650770130186868  0.8600682220413419  1.0000
  O   O5        1.0  0.9454822402169965  0.25648326290705376  0.26664246042232526  1.0000
  O   O6        1.0  0.05446923800614203  0.7435084542908826  0.7333441903930833  1.0000
  O   O7        1.0  0.7486586334536653  0.39955702312911257  0.4029251886187879  1.0000
  O   O8        1.0  0.251352062693364  0.6004639875759635  0.5970909941590677  1.0000
  O   O9        1.0  0.3355331925394935  0.5828392471409884  0.3637614412474549  1.0000
  O   O10       1.0  0.6644706973692536  0.41716680553616203  0.6362491898440512  1.0000
