data_image0
_chemical_formula_structural       Zn2H16C12O8
_chemical_formula_sum              "Zn2 H16 C12 O8"
_cell_length_a       4.876329833879849
_cell_length_b       6.713690547355656
_cell_length_c       11.587985235501792
_cell_angle_alpha    106.40101467611342
_cell_angle_beta     94.06536222450056
_cell_angle_gamma    95.43301603536753

_space_group_name_H-M_alt    "P 1"
_space_group_IT_number       1

loop_
  _space_group_symop_operation_xyz
  'x, y, z'

loop_
  _atom_site_type_symbol
  _atom_site_label
  _atom_site_symmetry_multiplicity
  _atom_site_fract_x
  _atom_site_fract_y
  _atom_site_fract_z
  _atom_site_occupancy
  Zn  Zn1       1.0  0.2610192187512084  0.28311658702798326  0.40991712491452853  1.0000
  Zn  Zn2       1.0  0.7389853130072339  0.7168837670530902  0.5900826750849149  1.0000
  H   H1        1.0  0.005960679152032377  0.847258916980216  0.28171281448461377  1.0000
  H   H2        1.0  0.9940415359638523  0.15273985481090338  0.7182858089374307  1.0000
  H   H3        1.0  0.41339822404350457  0.6817982771435993  0.1655262466929486  1.0000
  H   H4        1.0  0.586597916063276  0.3182005434582321  0.8344765393988993  1.0000
  H   H5        1.0  0.7543890106162722  0.49199856763827654  0.03975898345361633  1.0000
  H   H6        1.0  0.2456050348194054  0.5080002215571539  0.960242016336906  1.0000
  H   H7        1.0  0.5844390964869461  0.3307342435803022  0.11704399759518225  1.0000
  H   H8        1.0  0.4155569676183077  0.6692645250106465  0.882955326106206  1.0000
  H   H9        1.0  0.9291889374831044  0.4515287081786923  0.170517378297717  1.0000
  H   H10       1.0  0.07080660667769928  0.5484669066342747  0.8294797024610503  1.0000
  H   H11       1.0  0.9842937197175698  0.7986958783845279  0.061265821883615984  1.0000
  H   H12       1.0  0.015705956784294987  0.20129976023307708  0.9387322346849487  1.0000
  H   H13       1.0  0.012067024612278498  0.06798180401099069  0.140018249233016  1.0000
  H   H14       1.0  0.9879326328892049  0.9320138216038957  0.8599789417379285  1.0000
  H   H15       1.0  0.6866236812539553  0.9332559222290653  0.06561070866329294  1.0000
  H   H16       1.0  0.3133759952479096  0.0667397163885397  0.9343873479052647  1.0000
  C   C1        1.0  0.8108181637754227  0.8656164100424846  0.2346341925860855  1.0000
  C   C2        1.0  0.18918203267088532  0.1343823823531025  0.765366106925093  1.0000
  C   C3        1.0  0.6126955627730482  0.6634615543390651  0.2097654022690989  1.0000
  C   C4        1.0  0.3873028179747636  0.3365387965418379  0.7902350980096884  1.0000
  C   C5        1.0  0.7281338632904878  0.47276633468038654  0.1293648917385966  1.0000
  C   C6        1.0  0.2718604231170332  0.5272340184013089  0.8706363639256267  1.0000
  C   C7        1.0  0.6945797070340518  0.05119086812319299  0.3166210919246595  1.0000
  C   C8        1.0  0.3054227680540507  0.9488094805569177  0.6833786529686918  1.0000
  C   C9        1.0  0.8765785369617944  0.9196461998652196  0.11853564624219363  1.0000
  C   C10       1.0  0.1234211585404523  0.0803494517551115  0.8814632759239842  1.0000
  C   C11       1.0  0.5487609857084336  0.6146290055673305  0.3264875952261832  1.0000
  C   C12       1.0  0.4512407135700657  0.3853792091540599  0.6735168363200117  1.0000
  O   O1        1.0  0.8510788508690511  0.2163012688653581  0.3761336519598046  1.0000
  O   O2        1.0  0.14892545891792958  0.7836975343321625  0.623866757763551  1.0000
  O   O3        1.0  0.43181194756666486  0.037702176817994405  0.3184557383776792  1.0000
  O   O4        1.0  0.5681863951803763  0.9622981480574637  0.6815430307058747  1.0000
  O   O5        1.0  0.7178281442232617  0.7002553916959046  0.41975345076386356  1.0000
  O   O6        1.0  0.28218539413320093  0.29974971465599515  0.580249934073862  1.0000
  O   O7        1.0  0.33512610869915704  0.48520656208656016  0.3196225091999452  1.0000
  O   O8        1.0  0.6648809087792101  0.5148094828681096  0.6803833119268959  1.0000
