data_image0
_chemical_formula_structural       Zn8P4H56C24N4O24
_chemical_formula_sum              "Zn8 P4 H56 C24 N4 O24"
_cell_length_a       8.321000762811959
_cell_length_b       9.962344175003322
_cell_length_c       12.717512571599816
_cell_angle_alpha    90.00003771740278
_cell_angle_beta     90.85163825222637
_cell_angle_gamma    89.99991371210972

_space_group_name_H-M_alt    "P 1"
_space_group_IT_number       1

loop_
  _space_group_symop_operation_xyz
  'x, y, z'

loop_
  _atom_site_type_symbol
  _atom_site_label
  _atom_site_symmetry_multiplicity
  _atom_site_fract_x
  _atom_site_fract_y
  _atom_site_fract_z
  _atom_site_occupancy
  Zn  Zn1       1.0  0.2331504770702182  0.08860852608012242  0.0226671446707769  1.0000
  Zn  Zn2       1.0  0.7668499401344704  0.5886071687391308  0.47733376596478655  1.0000
  Zn  Zn3       1.0  0.7668503481022952  0.9113918512404171  0.9773333966890975  1.0000
  Zn  Zn4       1.0  0.233150885038043  0.41139320858140865  0.5226667753950878  1.0000
  Zn  Zn5       1.0  0.41845033328058173  0.8909640847305482  0.8286734957479922  1.0000
  Zn  Zn6       1.0  0.5815509057492748  0.3909621176938743  0.6713290247678217  1.0000
  Zn  Zn7       1.0  0.5815492900241992  0.10903629259074422  0.1713270272295233  1.0000
  Zn  Zn8       1.0  0.41844991942414106  0.6090372558468503  0.3286715165918038  1.0000
  P   P1        1.0  0.31186670868068933  0.8942803827016448  0.2180625436050292  1.0000
  P   P2        1.0  0.6881198996063418  0.3943084882606272  0.28194146125058955  1.0000
  P   P3        1.0  0.6881329248563687  0.10571999461931372  0.7819371931832038  1.0000
  P   P4        1.0  0.3118785320620745  0.6056928928408923  0.7180582571555334  1.0000
  H   H1        1.0  0.1932611820873618  0.9429778604889025  0.2872114944500055  1.0000
  H   H2        1.0  0.8067350153544623  0.4429726336900047  0.2127879644821462  1.0000
  H   H3        1.0  0.8067396430860541  0.05702151305182211  0.7127890469096202  1.0000
  H   H4        1.0  0.19326221444711686  0.5570277436324459  0.7872117355413693  1.0000
  H   H5        1.0  0.9181070934347559  0.09852045472761972  0.1032327984798016  1.0000
  H   H6        1.0  0.08189211438373428  0.5985188876724764  0.3967673125019502  1.0000
  H   H7        1.0  0.0818925401022952  0.9014799225933318  0.8967669383084312  1.0000
  H   H8        1.0  0.9181075089210395  0.4014814896488162  0.6032332104755653  1.0000
  H   H9        1.0  0.3665369096714243  0.22868725324423178  0.8144359480536281  1.0000
  H   H10       1.0  0.633462257163913  0.728689832706742  0.6855633104265094  1.0000
  H   H11       1.0  0.633463915503782  0.7713101127368635  0.1855645933055001  1.0000
  H   H12       1.0  0.3665373866063178  0.2713095408340607  0.3144356401721922  1.0000
  H   H13       1.0  0.1864799838688427  0.30061920992093866  0.7622869306837359  1.0000
  H   H14       1.0  0.8135214578808033  0.8006226105553299  0.7377124002509419  1.0000
  H   H15       1.0  0.8135220534063805  0.6993781560590692  0.23771284286846853  1.0000
  H   H16       1.0  0.18647818588853227  0.19937776676528074  0.2622865503480085  1.0000
  H   H17       1.0  0.0392644260762367  0.0886732153105996  0.7937608232037975  1.0000
  H   H18       1.0  0.9607349608097805  0.5886743965540904  0.7062407243747515  1.0000
  H   H19       1.0  0.9607351869971624  0.9113261582312123  0.20624048596275912  1.0000
  H   H20       1.0  0.0392646624950004  0.41132598076719534  0.293759798602764  1.0000
  H   H21       1.0  0.21606493967787097  0.057534819316238404  0.7201013363145847  1.0000
  H   H22       1.0  0.7839333113352965  0.5575382927823044  0.7798993912433261  1.0000
  H   H23       1.0  0.7839334817609611  0.942463550446171  0.2798991682800818  1.0000
  H   H24       1.0  0.2160663119685822  0.4424630883188032  0.22010113173443813  1.0000
  H   H25       1.0  0.251368484720949  0.4111259900827309  0.0448062831763991  1.0000
  H   H26       1.0  0.7486325874630281  0.9111246369879781  0.4551924472933067  1.0000
  H   H27       1.0  0.7486311488170045  0.588873383458406  0.9551934536115853  1.0000
  H   H28       1.0  0.25136825817494207  0.08887473655207152  0.5448065216877538  1.0000
  H   H29       1.0  0.3333737657589069  0.44917859649105923  0.9193926915697759  1.0000
  H   H30       1.0  0.6666262285412827  0.9491780343157576  0.5806051223119297  1.0000
  H   H31       1.0  0.6666258780104286  0.5508217808295583  0.0806062590291745  1.0000
  H   H32       1.0  0.3333758189635176  0.05082234300336101  0.4193938650517381  1.0000
  H   H33       1.0  0.5410344882617084  0.27737955214420407  0.9415448777277646  1.0000
  H   H34       1.0  0.45896579324442405  0.7773772250673475  0.5584544232925879  1.0000
  H   H35       1.0  0.45896635737446456  0.7226218289554753  0.0584540912537932  1.0000
  H   H36       1.0  0.5410350319280895  0.2226231522531919  0.4415461180672864  1.0000
  H   H37       1.0  0.5320076915234537  0.37425598318925785  0.05930065161869891  1.0000
  H   H38       1.0  0.46799342622757223  0.8742519597210932  0.4406996329355621  1.0000
  H   H39       1.0  0.46799434574637633  0.6257474054696389  0.9406991219349976  1.0000
  H   H40       1.0  0.5320061970772088  0.12574841760019953  0.5593008900419534  1.0000
  H   H41       1.0  0.9523345316405099  0.24730000370500702  0.8854563940956695  1.0000
  H   H42       1.0  0.0476657934994549  0.7473002491514721  0.6145436781903939  1.0000
  H   H43       1.0  0.0476663139956628  0.7527013773946721  0.1145425748858813  1.0000
  H   H44       1.0  0.952335052137613  0.2527001281683923  0.3854552907909152  1.0000
  H   H45       1.0  0.007117987632980799  0.4151617059556829  0.9154492834950148  1.0000
  H   H46       1.0  0.9928820368895047  0.9151617402828621  0.5845508720769317  1.0000
  H   H47       1.0  0.9928828477718099  0.5848386713645229  0.0845504716755769  1.0000
  H   H48       1.0  0.0071175864161717  0.08483763325861564  0.41544965090033514  1.0000
  H   H49       1.0  0.013786212717661802  0.36426570785165074  0.1044953447232473  1.0000
  H   H50       1.0  0.9862149229216186  0.8642650091664668  0.3955049348750777  1.0000
  H   H51       1.0  0.9862146329203014  0.635733665688399  0.895503624257806  1.0000
  H   H52       1.0  0.01378470038226  0.1357363719346409  0.6044955881026866  1.0000
  H   H53       1.0  0.8344019885047017  0.2941421144120043  0.05020239221339301  1.0000
  H   H54       1.0  0.16559927271730857  0.7941404867553178  0.44979785259231875  1.0000
  H   H55       1.0  0.1655988571323661  0.7058582629078672  0.9497965767679162  1.0000
  H   H56       1.0  0.8344015626865867  0.20586089434469568  0.5502019025785218  1.0000
  C   C1        1.0  0.235305714285623  0.22930365938389496  0.8209614280063846  1.0000
  C   C2        1.0  0.764694643082329  0.729305064400535  0.6790386353509348  1.0000
  C   C3        1.0  0.7646951108895834  0.7706937065972  0.1790391133527436  1.0000
  C   C4        1.0  0.2353049904547291  0.27069531292041665  0.3209611014372983  1.0000
  C   C5        1.0  0.17168619514331604  0.08887991218010433  0.7974500988761264  1.0000
  C   C6        1.0  0.8283132016055604  0.5888802531884991  0.7025506626154866  1.0000
  C   C7        1.0  0.8283146300291903  0.9111204651404353  0.20255044248375503  1.0000
  C   C8        1.0  0.17168642169922066  0.4111201241327933  0.297449860362029  1.0000
  C   C9        1.0  0.30847389773277456  0.36759743501556136  0.9753259844430316  1.0000
  C   C10       1.0  0.691525030569231  0.8675957905287249  0.5246725567681807  1.0000
  C   C11       1.0  0.6915245544002032  0.632403946085276  0.02467216158452599  1.0000
  C   C12       1.0  0.30847580483555953  0.13240458679148057  0.475327198402411  1.0000
  C   C13       1.0  0.46616254053129325  0.30108045524390553  0.009963944042809203  1.0000
  C   C14       1.0  0.5338363352268304  0.8010783980962516  0.49003390887273923  1.0000
  C   C15       1.0  0.5338359013703027  0.6989199220774581  0.9900349881737825  1.0000
  C   C16       1.0  0.46616450017795324  0.19892197922395388  0.5099658462978525  1.0000
  C   C17       1.0  0.0255051925113179  0.3092709638964807  0.9387491850375511  1.0000
  C   C18       1.0  0.9744962235140309  0.8092720054836777  0.5612509363784568  1.0000
  C   C19       1.0  0.9744956428943682  0.690728409643903  0.06125057013278481  1.0000
  C   C20       1.0  0.02550461189076  0.19072837183652783  0.43874881879213495  1.0000
  C   C21       1.0  0.9662433087537822  0.2871446824234313  0.05036939516939749  1.0000
  C   C22       1.0  0.03375796499953759  0.7871432205532827  0.4496308461645242  1.0000
  C   C23       1.0  0.0337563350155534  0.7128556948971865  0.949629555429553  1.0000
  C   C24       1.0  0.9662428601729759  0.2128571567672567  0.5503696951953501  1.0000
  N   N1        1.0  0.19485911173535436  0.2692722351832018  0.9291549853844643  1.0000
  N   N2        1.0  0.8051399824198314  0.7692724942255895  0.5708442932316586  1.0000
  N   N3        1.0  0.805140521802599  0.7307271383579351  0.07084475140352  1.0000
  N   N4        1.0  0.1948608529849594  0.2307278830946161  0.429155461938926  1.0000
  O   O1        1.0  0.22301845640558327  0.9943515414453331  0.8767363536193074  1.0000
  O   O2        1.0  0.7769826179315941  0.49435430679419323  0.6232646458156381  1.0000
  O   O3        1.0  0.7769823687696231  0.005645824535761802  0.12326418773982081  1.0000
  O   O4        1.0  0.2230170156054569  0.5056460705267585  0.3767350909725947  1.0000
  O   O5        1.0  0.43371078353339954  0.18306911888632987  0.0687824180655667  1.0000
  O   O6        1.0  0.5662906970712884  0.6830659674860444  0.4312161992514376  1.0000
  O   O7        1.0  0.5662924760687248  0.8169342697711459  0.9312158014919233  1.0000
  O   O8        1.0  0.4337089364666653  0.3169334060550924  0.5687835375365395  1.0000
  O   O9        1.0  0.016551314755076898  0.15877992608554345  0.08934223674086178  1.0000
  O   O10       1.0  0.9834465832773985  0.658780247447979  0.4106578857572174  1.0000
  O   O11       1.0  0.9834471169151371  0.8412194474563465  0.9106574816647637  1.0000
  O   O12       1.0  0.016553050258757196  0.3412211336527876  0.5893418510312642  1.0000
  O   O13       1.0  0.25006477154407497  0.9230517151951433  0.1060561816371717  1.0000
  O   O14       1.0  0.7499279276053273  0.42304671274038014  0.39393770893646257  1.0000
  O   O15       1.0  0.749934851760699  0.07694866212614933  0.8939443413403438  1.0000
  O   O16       1.0  0.25007051429717114  0.5769526608011689  0.6060612232798803  1.0000
  O   O17       1.0  0.3202460835770466  0.7422659620420193  0.2357536979984829  1.0000
  O   O18       1.0  0.6797504733251145  0.24224688555982254  0.2642456613454129  1.0000
  O   O19       1.0  0.6797559639286562  0.25773341149728424  0.7642452893649292  1.0000
  O   O20       1.0  0.3202503620805714  0.7577524879805682  0.73575409382493  1.0000
  O   O21       1.0  0.4668139702048961  0.9692606432197125  0.24970103111955666  1.0000
  O   O22       1.0  0.533193027673228  0.469256796120277  0.2502962477267303  1.0000
  O   O23       1.0  0.5331856530998778  0.03073973410158  0.7502994918579589  1.0000
  O   O24       1.0  0.46680420212925366  0.5307425774223518  0.7497034522965436  1.0000
