data_image0
_chemical_formula_structural       Cu4H32C40S2N8O8
_chemical_formula_sum              "Cu4 H32 C40 S2 N8 O8"
_cell_length_a       9.607274815906871
_cell_length_b       9.610665125969808
_cell_length_c       13.946839771275169
_cell_angle_alpha    99.60252356582448
_cell_angle_beta     99.57401076857083
_cell_angle_gamma    112.88839550083667

_space_group_name_H-M_alt    "P 1"
_space_group_IT_number       1

loop_
  _space_group_symop_operation_xyz
  'x, y, z'

loop_
  _atom_site_type_symbol
  _atom_site_label
  _atom_site_symmetry_multiplicity
  _atom_site_fract_x
  _atom_site_fract_y
  _atom_site_fract_z
  _atom_site_occupancy
  Cu  Cu1       1.0  0.047144391022278895  0.1263619405419121  0.6888669148660753  1.0000
  Cu  Cu2       1.0  0.8736468312652617  0.9528296925227763  0.8111263222854319  1.0000
  Cu  Cu3       1.0  0.9528466797982843  0.8736568567495766  0.3111312311258914  1.0000
  Cu  Cu4       1.0  0.1263681908284369  0.04716316582891271  0.18887444949017143  1.0000
  H   H1        1.0  0.12825947030684398  0.4385972890763341  0.7973205198247725  1.0000
  H   H2        1.0  0.5613544698441045  0.8716193208842428  0.7026863457033627  1.0000
  H   H3        1.0  0.871743961626457  0.5614500684410757  0.20265455504788574  1.0000
  H   H4        1.0  0.43867064464335204  0.12837923327614226  0.2973084257073139  1.0000
  H   H5        1.0  0.3708453995846526  0.6682394271602733  0.8995908626046045  1.0000
  H   H6        1.0  0.3316893925895101  0.6290452368060073  0.6004200612748463  1.0000
  H   H7        1.0  0.6291749830577871  0.3318012478109225  0.10038974020447708  1.0000
  H   H8        1.0  0.6683303791730282  0.3709510278486051  0.3995802514633198  1.0000
  H   H9        1.0  0.6179990277059274  0.37792730663872476  0.8545148037904083  1.0000
  H   H10       1.0  0.6220936374234399  0.38202846710955646  0.6455356026058396  1.0000
  H   H11       1.0  0.3819836809786353  0.6220579409332387  0.14551059643927997  1.0000
  H   H12       1.0  0.3779123138445328  0.6179516211553279  0.3544654255101278  1.0000
  H   H13       1.0  0.3693096896703736  0.1656212124895831  0.7565269759128483  1.0000
  H   H14       1.0  0.8344250236471707  0.630704487248053  0.743498918011653  1.0000
  H   H15       1.0  0.6306598428799434  0.8343765652476023  0.24349117885192584  1.0000
  H   H16       1.0  0.16557881288874648  0.3692756429651923  0.2565040136777554  1.0000
  H   H17       1.0  0.828245727635462  0.051639164139181994  0.0930714153234362  1.0000
  H   H18       1.0  0.948281979066472  0.1717014685166447  0.406939222533417  1.0000
  H   H19       1.0  0.17176212306958402  0.9483634250298041  0.9069325324126964  1.0000
  H   H20       1.0  0.05172310053866622  0.8283202931491971  0.59306382020862  1.0000
  H   H21       1.0  0.5806067088186921  0.8531130268830651  0.9778103216995717  1.0000
  H   H22       1.0  0.14677298344366818  0.4192941305456799  0.5222406503878361  1.0000
  H   H23       1.0  0.4194000612832909  0.1468918997411137  0.02219807908108608  1.0000
  H   H24       1.0  0.853245272295709  0.5807151009549331  0.47776963781912224  1.0000
  H   H25       1.0  0.8114417918545698  0.5470782143615623  0.9358005578072408  1.0000
  H   H26       1.0  0.4529515241502793  0.1886195588110482  0.5642014864526175  1.0000
  H   H27       1.0  0.188554049359297  0.4529299735032737  0.0641825470779906  1.0000
  H   H28       1.0  0.5470336095131997  0.8113612735027615  0.4358007288490526  1.0000
  H   H29       1.0  0.04658979679066984  0.7566205583637498  0.0580862758976437  1.0000
  H   H30       1.0  0.24341139384831909  0.9534835184007587  0.44190065409460993  1.0000
  H   H31       1.0  0.9534035582105106  0.24337093028660206  0.9419031384053015  1.0000
  H   H32       1.0  0.7565693748156049  0.046510661755590404  0.5580969004582741  1.0000
  C   C1        1.0  0.24080230994992038  0.43281560094638394  0.8126383616318832  1.0000
  C   C2        1.0  0.5671465503245371  0.759109557862807  0.6873751734875171  1.0000
  C   C3        1.0  0.759204759214043  0.5672123748521187  0.18734701860639544  1.0000
  C   C4        1.0  0.43286694381272645  0.2408775407476256  0.3126182728236486  1.0000
  C   C5        1.0  0.3776726323483857  0.5596364302298014  0.869464612109553  1.0000
  C   C6        1.0  0.4403238078028267  0.622253840765076  0.630555667104943  1.0000
  C   C7        1.0  0.622352078554087  0.4403978787984144  0.1305293703668653  1.0000
  C   C8        1.0  0.5596891655020285  0.3777391244480341  0.369443438534354  1.0000
  C   C9        1.0  0.5195356924621706  0.5458505947898402  0.8883774628477711  1.0000
  C   C10       1.0  0.45412324714295943  0.480422541946318  0.6116496559875415  1.0000
  C   C11       1.0  0.48045783901645217  0.45416446113157605  0.11162483183282745  1.0000
  C   C12       1.0  0.5458886455588257  0.519572760721985  0.38835390269628783  1.0000
  C   C13       1.0  0.5134425663872975  0.3991267411146496  0.8472838701848744  1.0000
  C   C14       1.0  0.600888960858022  0.48655333137928386  0.6527534930681327  1.0000
  C   C15       1.0  0.486539084422418  0.6008742636496577  0.15272894789029579  1.0000
  C   C16       1.0  0.39911912115703524  0.513433748767241  0.34725149462514787  1.0000
  C   C17       1.0  0.37292098944212165  0.2778286484588008  0.790785545147763  1.0000
  C   C18       1.0  0.7221899280069052  0.627062473349625  0.7092429224791204  1.0000
  C   C19       1.0  0.6270639449414263  0.722181760537481  0.2092273564982676  1.0000
  C   C20       1.0  0.2778249329967153  0.37292320836333204  0.2907598395071531  1.0000
  C   C21       1.0  0.8180801087094094  0.9368226777462992  0.05808476019493713  1.0000
  C   C22       1.0  0.0631246826405629  0.1818893556230421  0.4419229019361736  1.0000
  C   C23       1.0  0.18192671760121468  0.0631799648534042  0.9419183544730386  1.0000
  C   C24       1.0  0.9368791656336625  0.8181205589944724  0.5580792930264166  1.0000
  C   C25       1.0  0.6795163049410036  0.8240981200724347  0.9927797698757316  1.0000
  C   C26       1.0  0.17584040472476664  0.3204365967470936  0.5072453128300083  1.0000
  C   C27       1.0  0.32048739543178323  0.17590463088895095  0.007223701355591995  1.0000
  C   C28       1.0  0.8241737006823514  0.6795727965459192  0.4927644988721411  1.0000
  C   C29       1.0  0.6680660414793352  0.6756073289444303  0.9497547673282014  1.0000
  C   C30       1.0  0.32436045716165307  0.331915993070325  0.5502615191468578  1.0000
  C   C31       1.0  0.3319273753832875  0.3243959173762293  0.05024251504746499  1.0000
  C   C32       1.0  0.6756457961896843  0.6680831073992763  0.4497411031794626  1.0000
  C   C33       1.0  0.806315313411119  0.6550864929615015  0.9700192231091902  1.0000
  C   C34       1.0  0.344929489070836  0.1937279849690228  0.529983713423853  1.0000
  C   C35       1.0  0.19369440815500377  0.3449221934966431  0.02997348760072069  1.0000
  C   C36       1.0  0.6550624694276054  0.8062561727515104  0.4700182810927842  1.0000
  C   C37       1.0  0.9404639586897191  0.7726926037381717  0.03653895190758052  1.0000
  C   C38       1.0  0.22733435393742238  0.059592654623287424  0.46346042138403476  1.0000
  C   C39       1.0  0.05953923184057429  0.2272996491587804  0.9634538801796423  1.0000
  C   C40       1.0  0.772664600220615  0.9404043540802502  0.5365410785398339  1.0000
  S   S1        1.0  0.7725664178035531  0.227386976570024  0.7500255589664135  1.0000
  S   S2        1.0  0.22741043183812337  0.7725918563562644  0.2499725590388095  1.0000
  N   N1        1.0  0.2370451738263242  0.29226468014272916  0.7728128370329657  1.0000
  N   N2        1.0  0.7077315843820814  0.7628971977387523  0.7271998640918582  1.0000
  N   N3        1.0  0.7629366608016922  0.7077569209974685  0.22718095563247692  1.0000
  N   N4        1.0  0.2922921307762251  0.2370870046444224  0.27280091043981963  1.0000
  N   N5        1.0  0.9465183731573886  0.9110339732173786  0.08358826733465455  1.0000
  N   N6        1.0  0.08895634144734998  0.05350823002838469  0.4164065217085308  1.0000
  N   N7        1.0  0.05347175730499739  0.0889528480239079  0.9164023543774461  1.0000
  N   N8        1.0  0.9110413007976205  0.9465066251527998  0.5835983913027222  1.0000
  O   O1        1.0  0.8989865471116545  0.24548383492776793  0.6952778007715494  1.0000
  O   O2        1.0  0.7544814106260064  0.10087968841838088  0.8046300312906282  1.0000
  O   O3        1.0  0.10099214293205692  0.7545127620797132  0.30472194587381546  1.0000
  O   O4        1.0  0.24550736007315524  0.8990928199935341  0.19536445171662822  1.0000
  O   O5        1.0  0.8197955799266764  0.3778454235555273  0.824455239047289  1.0000
  O   O6        1.0  0.622013517552361  0.18031385746275672  0.675730816227336  1.0000
  O   O7        1.0  0.1801680284602155  0.6221254600036017  0.1755482334252036  1.0000
  O   O8        1.0  0.37796061174021384  0.81965676442411  0.3242659941457475  1.0000
