data_image0
_chemical_formula_structural       Co4H48C80S8N16O24
_chemical_formula_sum              "Co4 H48 C80 S8 N16 O24"
_cell_length_a       9.618600970010919
_cell_length_b       15.103863896216419
_cell_length_c       17.287953646485445
_cell_angle_alpha    99.82373248816097
_cell_angle_beta     89.99984231624431
_cell_angle_gamma    89.99995749532565

_space_group_name_H-M_alt    "P 1"
_space_group_IT_number       1

loop_
  _space_group_symop_operation_xyz
  'x, y, z'

loop_
  _atom_site_type_symbol
  _atom_site_label
  _atom_site_symmetry_multiplicity
  _atom_site_fract_x
  _atom_site_fract_y
  _atom_site_fract_z
  _atom_site_occupancy
  Co  Co1       1.0  0.583507460649372  0.6543879434483628  0.03745342414243421  1.0000
  Co  Co2       1.0  0.0835082307734965  0.8456071131446024  0.9625466854268651  1.0000
  Co  Co3       1.0  0.4164893808918038  0.34561107507204275  0.9625449213704371  1.0000
  Co  Co4       1.0  0.9164906900675404  0.154389225600859  0.03745415828931441  1.0000
  H   H1        1.0  0.38452295661008407  0.5931004655960381  0.15890285684189823  1.0000
  H   H2        1.0  0.8845231151172044  0.9069010701693615  0.8410971653607291  1.0000
  H   H3        1.0  0.6154770038784038  0.406903933158958  0.8410980150079865  1.0000
  H   H4        1.0  0.11547684537637791  0.09309795312386632  0.15890291616872076  1.0000
  H   H5        1.0  0.7827050357320291  0.7287613170286208  0.7771662144397664  1.0000
  H   H6        1.0  0.2827074716028761  0.771241640112315  0.22283301596720412  1.0000
  H   H7        1.0  0.21729908336508433  0.2712403971765553  0.2228354195925704  1.0000
  H   H8        1.0  0.717294568194859  0.2287607396609843  0.7771664021647097  1.0000
  H   H9        1.0  0.7733883665102185  0.7245817229193748  0.9179025668868659  1.0000
  H   H10       1.0  0.2733883745087056  0.775417210009934  0.08209608615177191  1.0000
  H   H11       1.0  0.226613673286252  0.27541595969029947  0.08209847440685542  1.0000
  H   H12       1.0  0.7266115859851965  0.2245844978314722  0.9179032331917936  1.0000
  H   H13       1.0  0.3937785594239856  0.5818975443365986  0.7523029798586691  1.0000
  H   H14       1.0  0.8937795600064647  0.9181046560258538  0.2476971258640646  1.0000
  H   H15       1.0  0.6062234803774019  0.41810550259536683  0.2476948010441475  1.0000
  H   H16       1.0  0.10622351943284511  0.081898406819235  0.7523064417683897  1.0000
  H   H17       1.0  0.40836453358062397  0.5754384164509929  0.8940501961673489  1.0000
  H   H18       1.0  0.9083631086226802  0.9245597407562799  0.1059492927541115  1.0000
  H   H19       1.0  0.5916364665667827  0.424561947524559  0.1059489255952499  1.0000
  H   H20       1.0  0.09163685186676673  0.0754406295851027  0.8940521437015432  1.0000
  H   H21       1.0  0.8881902171454072  0.3437092020078154  0.8738077210445423  1.0000
  H   H22       1.0  0.38818806716952997  0.15628842699808126  0.1261886954516669  1.0000
  H   H23       1.0  0.11180142614286838  0.6562871224183481  0.1261879146202034  1.0000
  H   H24       1.0  0.6118035761044142  0.8437139543706922  0.8738113013618687  1.0000
  H   H25       1.0  0.10492248815022978  0.4477223473357625  0.8381772590765805  1.0000
  H   H26       1.0  0.6049191431730352  0.05227483423592359  0.1618195259461928  1.0000
  H   H27       1.0  0.8950712344369477  0.5522753257290774  0.1618203101857105  1.0000
  H   H28       1.0  0.3950735397556997  0.9477248594015606  0.838180075706262  1.0000
  H   H29       1.0  0.3681720004719581  0.586929231127435  0.3000665529439104  1.0000
  H   H30       1.0  0.8681718101868655  0.913072992712145  0.6999347523698416  1.0000
  H   H31       1.0  0.6318321186203804  0.4130745020586063  0.6999365348046851  1.0000
  H   H32       1.0  0.13183022961134586  0.08692737285434762  0.30006494806495  1.0000
  H   H33       1.0  0.7582320400950381  0.7305550593641004  0.18722715781879634  1.0000
  H   H34       1.0  0.25822948138999646  0.769443887169416  0.8127720988988827  1.0000
  H   H35       1.0  0.2417699996979223  0.2694493393900715  0.8127737140293759  1.0000
  H   H36       1.0  0.741768399803739  0.23055177486968148  0.1872269100089596  1.0000
  H   H37       1.0  0.7556782950946258  0.7342868280327296  0.3315798232982914  1.0000
  H   H38       1.0  0.25567541495558993  0.7657114517748129  0.6684204961886806  1.0000
  H   H39       1.0  0.244326863653292  0.2657148877633801  0.6684223894062383  1.0000
  H   H40       1.0  0.7443235058873442  0.23428891220155634  0.3315786255756307  1.0000
  H   H41       1.0  0.8593667211694365  0.7050183090173903  0.019132822713636706  1.0000
  H   H42       1.0  0.35936642028452337  0.7949785399734921  0.9808653921139124  1.0000
  H   H43       1.0  0.1406321996630027  0.2949840803052695  0.9808700674591362  1.0000
  H   H44       1.0  0.6406314609162109  0.205015771834745  0.0191311045216196  1.0000
  H   H45       1.0  0.7614001019550686  0.7743961465535135  0.07918470174050189  1.0000
  H   H46       1.0  0.26140017921247244  0.7255994378045758  0.9208140557982745  1.0000
  H   H47       1.0  0.23859777923245673  0.225601536057809  0.9208163395566515  1.0000
  H   H48       1.0  0.7385987416344478  0.27439823684956366  0.0791840921327704  1.0000
  C   C1        1.0  0.6826870249209663  0.4586246265729913  0.9813399496928882  1.0000
  C   C2        1.0  0.1826865808198619  0.04137450757366419  0.0186564247340186  1.0000
  C   C3        1.0  0.31731085627419015  0.5413770749038207  0.018657054960201046  1.0000
  C   C4        1.0  0.8173102607217971  0.9586224967399347  0.9813422030817378  1.0000
  C   C5        1.0  0.8121591723043196  0.47203241807461893  0.9393832931623933  1.0000
  C   C6        1.0  0.3121574967594754  0.027965936755244104  0.0606110328620701  1.0000
  C   C7        1.0  0.18783766924273948  0.5279679363544574  0.060612356565343424  1.0000
  C   C8        1.0  0.687837265479935  0.9720317363091837  0.939386536399354  1.0000
  C   C9        1.0  0.5878285693198819  0.6553297792285165  0.7511838455454622  1.0000
  C   C10       1.0  0.0878297511329578  0.8446699758773734  0.2488163697521699  1.0000
  C   C11       1.0  0.41217658943567415  0.3446699144040224  0.2488157560967039  1.0000
  C   C12       1.0  0.9121754076165518  0.15533308060147286  0.7511848831863757  1.0000
  C   C13       1.0  0.9856979481398513  0.5555790359482274  0.9096266999149448  1.0000
  C   C14       1.0  0.485692519215398  0.9444177145148204  0.09037188517731211  1.0000
  C   C15       1.0  0.0142968140994029  0.44441729484211834  0.09037125043942502  1.0000
  C   C16       1.0  0.5142949654459487  0.05558399969694251  0.9096297488687453  1.0000
  C   C17       1.0  0.06294414796261093  0.6405200541847621  0.9146509963096392  1.0000
  C   C18       1.0  0.5629377027717979  0.8594750123426776  0.08534683249735758  1.0000
  C   C19       1.0  0.937053733236212  0.35947627342163463  0.08534579669605341  1.0000
  C   C20       1.0  0.4370539404981741  0.14052401731925815  0.9146555637311521  1.0000
  C   C21       1.0  0.4657207201572789  0.6231072281030876  0.19859234351708469  1.0000
  C   C22       1.0  0.965722149698344  0.8768929010360936  0.801407925822943  1.0000
  C   C23       1.0  0.5342771610267364  0.3768971706527326  0.8014085283345194  1.0000
  C   C24       1.0  0.0342757314920448  0.1231047783925163  0.1985919581281053  1.0000
  C   C25       1.0  0.6964336173875695  0.6940637113373003  0.8000150856150157  1.0000
  C   C26       1.0  0.19643092739529072  0.8059346122406198  0.1999841742635056  1.0000
  C   C27       1.0  0.30357050171161154  0.3059373293437987  0.1999858709542224  1.0000
  C   C28       1.0  0.8035679934474942  0.1940644094616673  0.8000153285937515  1.0000
  C   C29       1.0  0.6927010705959803  0.6910675940736939  0.8796959207672187  1.0000
  C   C30       1.0  0.19270085044043128  0.8089314043941231  0.12030344405701504  1.0000
  C   C31       1.0  0.30729992954712776  0.3089327746759167  0.1203049370145308  1.0000
  C   C32       1.0  0.8072980704023464  0.19106761730816396  0.879696058800242  1.0000
  C   C33       1.0  0.4813993072678144  0.6126358230414083  0.7866482234980978  1.0000
  C   C34       1.0  0.981400513662223  0.8873636201480438  0.21335134251355473  1.0000
  C   C35       1.0  0.518601692880388  0.3873652112755083  0.2133504183815162  1.0000
  C   C36       1.0  0.018601526128989604  0.11263809564930234  0.78665087019354  1.0000
  C   C37       1.0  0.4882847283671553  0.6100079652591222  0.8663993896875226  1.0000
  C   C38       1.0  0.9882842467685578  0.8899901302000118  0.13360054605936972  1.0000
  C   C39       1.0  0.5117162717810473  0.38999306905779463  0.1335992521920844  1.0000
  C   C40       1.0  0.011715713718665198  0.11000957139135181  0.8664019489523298  1.0000
  C   C41       1.0  0.9009820130720384  0.41549062659577635  0.8912730526514068  1.0000
  C   C42       1.0  0.4009810731064435  0.0845076610217745  0.10872228418473638  1.0000
  C   C43       1.0  0.0990106698686333  0.5845070401040646  0.10872220191954093  1.0000
  C   C44       1.0  0.599010570171636  0.9154933732988442  0.8912763577025943  1.0000
  C   C45       1.0  0.012946436761915004  0.4691259318512594  0.8725153350685275  1.0000
  C   C46       1.0  0.5129422469844157  0.030870650681777113  0.12748150290065752  1.0000
  C   C47       1.0  0.9870493651338706  0.5308703941646087  0.1274808792658391  1.0000
  C   C48       1.0  0.48704835663571094  0.969130390004679  0.8725194536797218  1.0000
  C   C49       1.0  0.5616522063193445  0.6605289820130907  0.3290879002825946  1.0000
  C   C50       1.0  0.061649227559925614  0.8394687780418197  0.6709120618322615  1.0000
  C   C51       1.0  0.43835295243541594  0.3394700412780767  0.6709121812425636  1.0000
  C   C52       1.0  0.9383507329282497  0.16053293616499792  0.3290895722035002  1.0000
  C   C53       1.0  0.5834747097105933  0.6589438400435342  0.6678438483869158  1.0000
  C   C54       1.0  0.083477562917956  0.8410565952190368  0.3321582089012409  1.0000
  C   C55       1.0  0.41653564730757614  0.3410558519955842  0.33215517457791316  1.0000
  C   C56       1.0  0.9165348733900415  0.15894646921369573  0.6678459373965424  1.0000
  C   C57       1.0  0.4565975760326495  0.6206694476912775  0.27834023215238096  1.0000
  C   C58       1.0  0.9565973177863399  0.8793313606116515  0.7216601510298305  1.0000
  C   C59       1.0  0.5434023844558382  0.3793349510637114  0.7216606396975109  1.0000
  C   C60       1.0  0.0434016030543773  0.1206683346147059  0.2783400292905327  1.0000
  C   C61       1.0  0.5074961948376498  0.6395404129021854  0.5470028736701522  1.0000
  C   C62       1.0  0.0074994674148954  0.8604614200754596  0.4529971918496968  1.0000
  C   C63       1.0  0.49250688461167874  0.36046263880342627  0.4529966432509553  1.0000
  C   C64       1.0  0.9925067309893977  0.13953894867209019  0.5470036659277611  1.0000
  C   C65       1.0  0.6339667771857337  0.681829260049341  0.5342202522380575  1.0000
  C   C66       1.0  0.133967956722465  0.818172475880168  0.46578076198714763  1.0000
  C   C67       1.0  0.36603838156615615  0.31817580745360635  0.46577956105150525  1.0000
  C   C68       1.0  0.8660351227185997  0.18182722889266506  0.5342228903680777  1.0000
  C   C69       1.0  0.673033529232626  0.7001295014933647  0.21457561335745373  1.0000
  C   C70       1.0  0.1730321098251153  0.7998674983552264  0.7854240662168125  1.0000
  C   C71       1.0  0.32696851056415005  0.2998708656644808  0.7854246657503836  1.0000
  C   C72       1.0  0.8269678506663993  0.2001321984620787  0.21457669277574348  1.0000
  C   C73       1.0  0.560613386674966  0.6599945994612925  0.41295646288171634  1.0000
  C   C74       1.0  0.06060978238792811  0.8400038301671773  0.587042442391386  1.0000
  C   C75       1.0  0.43939593069223554  0.34000374871279593  0.5870423625038583  1.0000
  C   C76       1.0  0.9393922574048689  0.15999922631290536  0.4129588105497248  1.0000
  C   C77       1.0  0.6719822411538844  0.701498549338652  0.2950040836644376  1.0000
  C   C78       1.0  0.17197914177794624  0.7984984529351353  0.704996176318609  1.0000
  C   C79       1.0  0.328022917597373  0.2985011490679455  0.7049972539968721  1.0000
  C   C80       1.0  0.8280208187137247  0.2015025861562521  0.29500420158100843  1.0000
  S   S1        1.0  0.42081646283313745  0.6129380825349313  0.4588739280615853  1.0000
  S   S2        1.0  0.9208160486709573  0.8870600632120614  0.5411249616436534  1.0000
  S   S3        1.0  0.5791897355738627  0.3870609407558235  0.5411261534627131  1.0000
  S   S4        1.0  0.07918807042774031  0.112942991675844  0.4588757126226923  1.0000
  S   S5        1.0  0.7223962458214075  0.7070192145787646  0.6219072759124558  1.0000
  S   S6        1.0  0.22239788845847389  0.792981784108946  0.37809522965660136  1.0000
  S   S7        1.0  0.27761099223607033  0.2929831667838343  0.37809272088821894  1.0000
  S   S8        1.0  0.77761038924249  0.20701926452727556  0.6219086202744535  1.0000
  N   N1        1.0  0.5909388108526699  0.6492075183529453  0.9135782353829924  1.0000
  N   N2        1.0  0.09093766962496372  0.8507902153080379  0.0864205210692219  1.0000
  N   N3        1.0  0.4090632289469767  0.35079284562219476  0.08642088637874681  1.0000
  N   N4        1.0  0.9090622908686256  0.1492088079851897  0.9135795604602279  1.0000
  N   N5        1.0  0.5717933775683548  0.6618970068888076  0.1656387747388166  1.0000
  N   N6        1.0  0.0717916714252809  0.8381007435370693  0.8343605919717376  1.0000
  N   N7        1.0  0.42820762257714046  0.3381053728849039  0.8343606433939498  1.0000
  N   N8        1.0  0.9282062097588976  0.16189895646376581  0.1656413243686288  1.0000
  N   N9        1.0  0.4793900612367851  0.6270361140666836  0.6207647193147423  1.0000
  N   N10       1.0  0.9793946227559406  0.8729646777619778  0.3792362049350686  1.0000
  N   N11       1.0  0.5206150975214784  0.3729622341090534  0.3792341060742643  1.0000
  N   N12       1.0  0.020614694598364704  0.1270397257633746  0.6207664029262503  1.0000
  N   N13       1.0  0.6632082114670794  0.6933832876424617  0.4605055291238144  1.0000
  N   N14       1.0  0.16320696068797252  0.8066164061324415  0.5394939831466132  1.0000
  N   N15       1.0  0.3367990265958056  0.30661640280654007  0.5394929151705339  1.0000
  N   N16       1.0  0.8367961187518136  0.1933846425058334  0.4605098667887191  1.0000
  O   O1        1.0  0.6282259663745081  0.38038852158447883  0.9658161189338371  1.0000
  O   O2        1.0  0.1282243143074737  0.119608649474614  0.034183521008309  1.0000
  O   O3        1.0  0.37177919237818463  0.619611175230766  0.03418464005442702  1.0000
  O   O4        1.0  0.8717725272346613  0.8803863406321711  0.9658153891103323  1.0000
  O   O5        1.0  0.6351761910402304  0.5240583224399346  0.030436166005692725  1.0000
  O   O6        1.0  0.1351746946711927  0.9759393761617547  0.9695625174670256  1.0000
  O   O7        1.0  0.36481753154582464  0.4759420367644367  0.9695612197437595  1.0000
  O   O8        1.0  0.8648169486049894  0.0240576329279563  0.030437846372166198  1.0000
  O   O9        1.0  0.7820664008183513  0.7092243581636241  0.057506568358945735  1.0000
  O   O10       1.0  0.2820642153129995  0.7907712129994167  0.9424933124339533  1.0000
  O   O11       1.0  0.21793044071916506  0.29077399319812247  0.9424934143830226  1.0000
  O   O12       1.0  0.7179315865721209  0.20922579608865285  0.0575070514018066  1.0000
  O   O13       1.0  0.8640876443539796  0.5575335120004257  0.9506206410516143  1.0000
  O   O14       1.0  0.3640834600989536  0.9424646691592002  0.04937487020574589  1.0000
  O   O15       1.0  0.13591127649611678  0.4424668440191796  0.049375587347455514  1.0000
  O   O16       1.0  0.6359081831767456  0.057534354137324314  0.9506252113305607  1.0000
  O   O17       1.0  0.006482574820118701  0.7116544591771613  0.9542558736622835  1.0000
  O   O18       1.0  0.5064753690551599  0.7883399865307367  0.0457442641938997  1.0000
  O   O19       1.0  0.9935225839336893  0.28834255149855187  0.04574506883880502  1.0000
  O   O20       1.0  0.4935214724828399  0.21165635062419602  0.9542560008509468  1.0000
  O   O21       1.0  0.1794507825316742  0.6366788659747161  0.8807333636810241  1.0000
  O   O22       1.0  0.6794420858109121  0.8633181240168283  0.1192645692933567  1.0000
  O   O23       1.0  0.8205470986649177  0.3633167928816691  0.11926448788071302  1.0000
  O   O24       1.0  0.3205474781491803  0.1366835965595214  0.8807393794431845  1.0000
