data_image0
_chemical_formula_structural       Zr6H72C108S2O38
_chemical_formula_sum              "Zr6 H72 C108 S2 O38"
_cell_length_a       19.01494905683984
_cell_length_b       19.010499434113648
_cell_length_c       19.01032699004073
_cell_angle_alpha    60.09353105745866
_cell_angle_beta     59.99086984380296
_cell_angle_gamma    59.98754848935228

_space_group_name_H-M_alt    "P 1"
_space_group_IT_number       1

loop_
  _space_group_symop_operation_xyz
  'x, y, z'

loop_
  _atom_site_type_symbol
  _atom_site_label
  _atom_site_symmetry_multiplicity
  _atom_site_fract_x
  _atom_site_fract_y
  _atom_site_fract_z
  _atom_site_occupancy
  Zr  Zr1       1.0  0.9066513183852934  0.9070837406080733  0.5925342625805358  1.0000
  Zr  Zr2       1.0  0.0937289069917  0.09133635749287816  0.40824089179939443  1.0000
  Zr  Zr3       1.0  0.0928256877106007  0.9063515457866842  0.5935449494958932  1.0000
  Zr  Zr4       1.0  0.9073175633869608  0.09235813251282121  0.40751734346689267  1.0000
  Zr  Zr5       1.0  0.09321440944308529  0.9061486514668005  0.40741413279384625  1.0000
  Zr  Zr6       1.0  0.9070628219199223  0.09233289568459933  0.5935534208168464  1.0000
  H   H1        1.0  0.07320375874756714  0.7798620358072129  0.5724321094187487  1.0000
  H   H2        1.0  0.07446532104062704  0.07135674154332608  0.28105229824925  1.0000
  H   H3        1.0  0.07313631674203702  0.07187783608001305  0.5744904467526977  1.0000
  H   H4        1.0  0.7805049716054172  0.07332120716613147  0.5730075916566761  1.0000
  H   H5        1.0  0.1216943783244914  0.31137801842945123  0.39748086481967687  1.0000
  H   H6        1.0  0.8753347527624057  0.33438370322951266  0.5980897590788175  1.0000
  H   H7        1.0  0.8968283764025384  0.6689905468028601  0.6209929578068979  1.0000
  H   H8        1.0  0.09777376116448953  0.6914173261540315  0.37492891495833186  1.0000
  H   H9        1.0  0.18762553708790355  0.4249104451833007  0.4214290803275489  1.0000
  H   H10       1.0  0.18321372629306862  0.42670195180003395  0.32977699360428386  1.0000
  H   H11       1.0  0.8091597797159621  0.5350022468668673  0.5790618850234139  1.0000
  H   H12       1.0  0.8166261175494328  0.44000208272875363  0.6694932573222587  1.0000
  H   H13       1.0  0.9216898416837441  0.465192922085912  0.6873080432926459  1.0000
  H   H14       1.0  0.8298557748656278  0.5592356020677233  0.6831133767229643  1.0000
  H   H15       1.0  0.07893094773651649  0.575368318401793  0.3092184750564043  1.0000
  H   H16       1.0  0.1693918625373527  0.5729001380260217  0.31634698711342685  1.0000
  H   H17       1.0  0.31269896815384607  0.12002680114736822  0.17020400954791629  1.0000
  H   H18       1.0  0.33567825895965336  0.8739630716712983  0.19235020590713978  1.0000
  H   H19       1.0  0.6688501550398273  0.8969429025349958  0.812177890967476  1.0000
  H   H20       1.0  0.6916505232724149  0.0974931333818745  0.8352364140814642  1.0000
  H   H21       1.0  0.42485781907053166  0.18666730800102732  0.966141830430949  1.0000
  H   H22       1.0  0.4269566805437321  0.18259527066665282  0.06006633683777108  1.0000
  H   H23       1.0  0.5359518460325462  0.8085877634420059  0.07585192560669207  1.0000
  H   H24       1.0  0.44071211819171907  0.8158941311413629  0.07346958882601504  1.0000
  H   H25       1.0  0.465150308300373  0.9212251168586721  0.9256566945546111  1.0000
  H   H26       1.0  0.5594528267396724  0.8295685671055966  0.927126527502125  1.0000
  H   H27       1.0  0.5760548694445689  0.07878377934318347  0.035594326281902566  1.0000
  H   H28       1.0  0.5729132902882127  0.16923459204456756  0.9406381353555842  1.0000
  H   H29       1.0  0.8978887597019138  0.12007735324252178  0.8124429309333648  1.0000
  H   H30       1.0  0.09640203533573545  0.8719787724841908  0.837973704705014  1.0000
  H   H31       1.0  0.12107648439504715  0.8976209283988226  0.1690439859026824  1.0000
  H   H32       1.0  0.8746581717918076  0.09824016596554952  0.19193768164361577  1.0000
  H   H33       1.0  0.922673021456994  0.1870094228222857  0.9247819321597247  1.0000
  H   H34       1.0  0.8307763878677931  0.18311430755787958  0.926657152044072  1.0000
  H   H35       1.0  0.07697403729156349  0.8086951853552904  0.03796309732706505  1.0000
  H   H36       1.0  0.167488017466404  0.8136574959685847  0.9433052081686524  1.0000
  H   H37       1.0  0.187158517332193  0.9200942837832715  0.9657041935300155  1.0000
  H   H38       1.0  0.18239492370269517  0.8292176883011706  0.060466584223426934  1.0000
  H   H39       1.0  0.8092957493244057  0.07980141777085968  0.07571799625800689  1.0000
  H   H40       1.0  0.8169321379605494  0.17056782229448691  0.07230849955416838  1.0000
  H   H41       1.0  0.31274926908644574  0.6682293198627536  0.3983405929350711  1.0000
  H   H42       1.0  0.3355680903706285  0.6910246354131859  0.5990652271510867  1.0000
  H   H43       1.0  0.6698810600538961  0.31141951840940885  0.6209428761839033  1.0000
  H   H44       1.0  0.6940913509494212  0.3369400475382991  0.3727996771623054  1.0000
  H   H45       1.0  0.42774360276574447  0.4651495992654092  0.4203550037655148  1.0000
  H   H46       1.0  0.4288155795389058  0.5599409695581201  0.32954304496686154  1.0000
  H   H47       1.0  0.5359655500769306  0.5749708065876433  0.5801045245204931  1.0000
  H   H48       1.0  0.44102489872510386  0.5717484455752172  0.6709399784788417  1.0000
  H   H49       1.0  0.4661437005065564  0.4241591195369239  0.6877250064121441  1.0000
  H   H50       1.0  0.5601832433088274  0.4260143451466265  0.6835854635925783  1.0000
  H   H51       1.0  0.5772356343892754  0.5372000841619099  0.30932889241223904  1.0000
  H   H52       1.0  0.5763521488476326  0.4426231283825928  0.31414812720714036  1.0000
  H   H53       1.0  0.11202296133065198  0.323309564919974  0.18017312578338363  1.0000
  H   H54       1.0  0.17768504408952154  0.4356689519595138  0.06682520244957157  1.0000
  H   H55       1.0  0.881786781910165  0.32668770456951546  0.18857019228014604  1.0000
  H   H56       1.0  0.8846182152256289  0.6790389783819821  0.8241188569358825  1.0000
  H   H57       1.0  0.8201162492203335  0.5655609585517569  0.9362930423546061  1.0000
  H   H58       1.0  0.10303428705348937  0.6874721931407355  0.8274991438901295  1.0000
  H   H59       1.0  0.3126503073707883  0.8962458064993015  0.6227969307328606  1.0000
  H   H60       1.0  0.3348455316598518  0.09611752886350908  0.3764756001202656  1.0000
  H   H61       1.0  0.6686226353987977  0.12131446210452895  0.39723004385918176  1.0000
  H   H62       1.0  0.6927447966265202  0.8750420449320164  0.5972181264358981  1.0000
  H   H63       1.0  0.42602876891154995  0.9215230195139771  0.6881451371272149  1.0000
  H   H64       1.0  0.4278289406168412  0.8296247616906387  0.6841997871286553  1.0000
  H   H65       1.0  0.5350331324034697  0.07814624115069092  0.31018640249412494  1.0000
  H   H66       1.0  0.43960292978532306  0.16840558544395634  0.3177876618202689  1.0000
  H   H67       1.0  0.46453071595782797  0.18683881961630538  0.42275243269665447  1.0000
  H   H68       1.0  0.558485355168351  0.1828742799984795  0.3307462181785039  1.0000
  H   H69       1.0  0.5765094984789554  0.8089069479536307  0.5793717355133623  1.0000
  H   H70       1.0  0.5743136110065308  0.81642877918425  0.6695467446426023  1.0000
  H   H71       1.0  0.24288796097240328  0.6114377347569332  0.7905865867117399  1.0000
  H   H72       1.0  0.8556268754713373  0.2895002736875298  0.11289199250061442  1.0000
  C   C1        1.0  0.997077028502879  0.7657277950124879  0.49791782338414253  1.0000
  C   C2        1.0  0.23915951261945162  0.9967159350801609  0.2669502192221742  1.0000
  C   C3        1.0  0.9983379534479935  0.2376311873335412  0.4977726692396586  1.0000
  C   C4        1.0  0.7659821317412037  0.9968654064010993  0.7386994369281936  1.0000
  C   C5        1.0  0.9964013298925918  0.7659494665331865  0.7392965598400707  1.0000
  C   C6        1.0  0.7663787686890585  0.9979377828760864  0.49665706377363955  1.0000
  C   C7        1.0  0.9982715592332523  0.23824762932562055  0.26704237339065173  1.0000
  C   C8        1.0  0.2389669626683286  0.9955336506767908  0.49924978053997654  1.0000
  C   C9        1.0  0.23845627391679586  0.7647527237414523  0.49896969132846897  1.0000
  C   C10       1.0  0.9969235437558123  0.996126716638053  0.739834342035394  1.0000
  C   C11       1.0  0.7672719486564721  0.23864710758273597  0.4971934274102879  1.0000
  C   C12       1.0  0.997941852335174  0.9978653103418583  0.2659071438981116  1.0000
  C   C13       1.0  0.14486288146247256  0.4508985667169086  0.38448905808141376  1.0000
  C   C14       1.0  0.853463118557002  0.4816367970334954  0.6143812770434778  1.0000
  C   C15       1.0  0.8845813113462954  0.5187450290005062  0.6446850485173741  1.0000
  C   C16       1.0  0.114340031909755  0.5493881504212299  0.3533728483161979  1.0000
  C   C17       1.0  0.06817516695372207  0.3461080338970819  0.4411350105108695  1.0000
  C   C18       1.0  0.06951111900141876  0.41836587681856957  0.44164952184608103  1.0000
  C   C19       1.0  0.9288849784881209  0.35907576510118855  0.5546937514813167  1.0000
  C   C20       1.0  0.9282472431986192  0.432107489890008  0.5556577310866686  1.0000
  C   C21       1.0  0.9408175385697742  0.6438599163915343  0.5676885610378904  1.0000
  C   C22       1.0  0.9415566130844011  0.5695572723776936  0.5692377809001882  1.0000
  C   C23       1.0  0.05445695188345192  0.6565286985893765  0.4285182021516576  1.0000
  C   C24       1.0  0.05559212498965828  0.5830030639871426  0.4280369789054673  1.0000
  C   C25       1.0  0.9982905456211598  0.31603662099644936  0.49752040710097145  1.0000
  C   C26       1.0  0.9989619712534716  0.46201264725237234  0.49885156112914336  1.0000
  C   C27       1.0  0.9971354859558019  0.6874843620463128  0.49781336142907434  1.0000
  C   C28       1.0  0.9988683529825693  0.5391408723215605  0.498778245043802  1.0000
  C   C29       1.0  0.4511719384931041  0.14413290867679518  0.019604090416692165  1.0000
  C   C30       1.0  0.48231247363882795  0.8528495737924829  0.04997666902092142  1.0000
  C   C31       1.0  0.5189813703319643  0.8841669785593994  0.951494544467579  1.0000
  C   C32       1.0  0.5497106250511763  0.11402274758790315  0.9823025775496104  1.0000
  C   C33       1.0  0.34715914759797784  0.06682254190080544  0.14493422844066836  1.0000
  C   C34       1.0  0.4190066017448189  0.06857552248728647  0.07046787454599729  1.0000
  C   C35       1.0  0.3601674334267954  0.9276445464200479  0.1574493615333737  1.0000
  C   C36       1.0  0.43287108573589705  0.9273856084564189  0.0837619391424412  1.0000
  C   C37       1.0  0.643927890430241  0.9406814865721388  0.8468319644437725  1.0000
  C   C38       1.0  0.5697469846040305  0.9412700461023679  0.9190146793299973  1.0000
  C   C39       1.0  0.6567362919681942  0.054185713287474034  0.8598461008820237  1.0000
  C   C40       1.0  0.5832690367542243  0.05525589312157579  0.9327844991880382  1.0000
  C   C41       1.0  0.3172549397329899  0.9968341252339035  0.18854262887804654  1.0000
  C   C42       1.0  0.4625615465698158  0.9982307799287187  0.03989723360811607  1.0000
  C   C43       1.0  0.6876033412952579  0.9969442282756378  0.8168519796868096  1.0000
  C   C44       1.0  0.5394495456936779  0.9984539754644433  0.9626782679556741  1.0000
  C   C45       1.0  0.885302621450194  0.1446065502511616  0.9510058033170878  1.0000
  C   C46       1.0  0.11304684979184255  0.8520147346480376  0.9839323127050007  1.0000
  C   C47       1.0  0.14415565078124334  0.8836276508753901  0.019820979480244003  1.0000
  C   C48       1.0  0.8537519872692557  0.11497798190514896  0.04946454307691554  1.0000
  C   C49       1.0  0.941211040040976  0.06663165115152495  0.8473928812671827  1.0000
  C   C50       1.0  0.9419018652813518  0.06865919840188914  0.9191685160741301  1.0000
  C   C51       1.0  0.053616125171849674  0.9264638882492734  0.861488631183107  1.0000
  C   C52       1.0  0.05481122666313306  0.92663361600809  0.9340401475553008  1.0000
  C   C53       1.0  0.06779575075410778  0.9414378965363784  0.14401646790719982  1.0000
  C   C54       1.0  0.06920305863015115  0.9415910525820976  0.07005199817788825  1.0000
  C   C55       1.0  0.9287373567685222  0.05531273994821387  0.1565923144696059  1.0000
  C   C56       1.0  0.9282613644326358  0.05619672017596163  0.08317557730538293  1.0000
  C   C57       1.0  0.9969973462606133  0.9960512621634838  0.8180674746002126  1.0000
  C   C58       1.0  0.9987120734662511  0.9981509496372003  0.9630405053137706  1.0000
  C   C59       1.0  0.9979638432194947  0.9980542836964335  0.18754842097896343  1.0000
  C   C60       1.0  0.9988643142585116  0.9988755295143223  0.03964837792421632  1.0000
  C   C61       1.0  0.453178931354998  0.5191975305782892  0.38402373141354224  1.0000
  C   C62       1.0  0.4825184642012347  0.5487951399274567  0.6154180427988648  1.0000
  C   C63       1.0  0.5197234108836923  0.45033227112967494  0.6451808903544888  1.0000
  C   C64       1.0  0.5517867116480775  0.48321634858312035  0.3525450085564401  1.0000
  C   C65       1.0  0.3472846555680107  0.6432086992428198  0.44211765201508507  1.0000
  C   C66       1.0  0.41981439107942  0.5693516717421618  0.44210956404788243  1.0000
  C   C67       1.0  0.359826349550225  0.6557318722382065  0.5560701818926148  1.0000
  C   C68       1.0  0.4329710633545642  0.5824355279677109  0.5567762182823799  1.0000
  C   C69       1.0  0.6451318592816191  0.3464304049331731  0.5674395829282943  1.0000
  C   C70       1.0  0.5707877437450788  0.41837535532020104  0.5693211179532157  1.0000
  C   C71       1.0  0.6588910184369469  0.3605164888235494  0.4272358489609617  1.0000
  C   C72       1.0  0.5851202298207312  0.43322769158418584  0.42727030150008716  1.0000
  C   C73       1.0  0.31682371512435015  0.6866006508161534  0.498907021869364  1.0000
  C   C74       1.0  0.4632558558258208  0.538931637554285  0.49941471023628753  1.0000
  C   C75       1.0  0.6891943034484453  0.31701911313352604  0.49693115772871016  1.0000
  C   C76       1.0  0.5407053773643326  0.46227855974497345  0.4987495350071427  1.0000
  C   C77       1.0  0.062168873959961846  0.3533307525614334  0.1514488857625764  1.0000
  C   C78       1.0  0.06219884949299369  0.4270777881406147  0.0780062876178747  1.0000
  C   C79       1.0  0.1271524114985921  0.4652170987598511  0.03909633371301886  1.0000
  C   C80       1.0  0.9325899765150963  0.35486697083484864  0.15412781116302202  1.0000
  C   C81       1.0  0.9309771539006276  0.42750964596253765  0.0796601165934734  1.0000
  C   C82       1.0  0.8673955679780361  0.4670042228730369  0.03857799976602656  1.0000
  C   C83       1.0  0.9331484963107215  0.650296006178842  0.8541789166322787  1.0000
  C   C84       1.0  0.9328224300073414  0.5768667825170724  0.9279260371136219  1.0000
  C   C85       1.0  0.8687194608787435  0.5379005759692818  0.9659624697285168  1.0000
  C   C86       1.0  0.058446414134770634  0.6530586805411503  0.8557821230451523  1.0000
  C   C87       1.0  0.06179911128126031  0.5786830588396298  0.9285051991782253  1.0000
  C   C88       1.0  0.12680536252647537  0.5377773746796707  0.9681487882420398  1.0000
  C   C89       1.0  0.9977445572679216  0.31766400922796134  0.18900703148051465  1.0000
  C   C90       1.0  0.9967249933780236  0.4650050083054184  0.04074698219431401  1.0000
  C   C91       1.0  0.995634745246768  0.6878719406065561  0.8185994007416186  1.0000
  C   C92       1.0  0.9975120597934649  0.5397217040735502  0.9659701303398763  1.0000
  C   C93       1.0  0.4519348033253505  0.8842909553235786  0.6455934732544221  1.0000
  C   C94       1.0  0.48147042532438894  0.11352634177492868  0.35452349105158015  1.0000
  C   C95       1.0  0.5183141040157508  0.14429624361297766  0.3854570328402931  1.0000
  C   C96       1.0  0.5505186653322907  0.8532298365806672  0.6147142955092023  1.0000
  C   C97       1.0  0.3470316047058188  0.9400357360168244  0.5692898109400844  1.0000
  C   C98       1.0  0.41909380330229573  0.9410680471256968  0.5704752284015343  1.0000
  C   C99       1.0  0.3595764509437629  0.05316824848725333  0.43000784804685566  1.0000
  C   C100      1.0  0.4323050548109038  0.05473047607632255  0.42930701746671923  1.0000
  C   C101      1.0  0.6439348737796988  0.06782695213755849  0.4410198356582526  1.0000
  C   C102      1.0  0.5695683827643803  0.06910672252410434  0.44214268189002587  1.0000
  C   C103      1.0  0.6574735629051601  0.9285774114361801  0.5542248338668118  1.0000
  C   C104      1.0  0.5838194409629907  0.9279387124809805  0.5558329395626985  1.0000
  C   C105      1.0  0.31691145504890955  0.9959098761204007  0.4994197282267975  1.0000
  C   C106      1.0  0.46238985209787126  0.9983293790253072  0.49989984072111326  1.0000
  C   C107      1.0  0.6880211503960112  0.9979634999802868  0.49692191622498433  1.0000
  C   C108      1.0  0.539512129019421  0.9985839516271047  0.4994803515927232  1.0000
  S   S1        1.0  0.21109954945018927  0.5790784886335205  0.9265401848877061  1.0000
  S   S2        1.0  0.7835014321871583  0.42536280350874744  0.07975157957793048  1.0000
  O   O1        1.0  0.9381656062330346  0.7956695548608441  0.5587766516024145  1.0000
  O   O2        1.0  0.20736709471332657  0.057497268512548785  0.296970971905651  1.0000
  O   O3        1.0  0.05910839933386565  0.2056308969407254  0.4388665804415836  1.0000
  O   O4        1.0  0.7962568938484078  0.937805316004678  0.706862295781953  1.0000
  O   O5        1.0  0.05748825653974867  0.794664261796136  0.7085504024920085  1.0000
  O   O6        1.0  0.7965185813986224  0.05846847004472985  0.43789625852652836  1.0000
  O   O7        1.0  0.9392381706922422  0.2074760289782564  0.29578269509209354  1.0000
  O   O8        1.0  0.20709945995479018  0.9367294727075902  0.5597733574143362  1.0000
  O   O9        1.0  0.20703681975682986  0.79507286538027  0.43977354522974116  1.0000
  O   O10       1.0  0.9383821670082142  0.0571488022431625  0.7077530723739757  1.0000
  O   O11       1.0  0.7968449697754068  0.20658480315999142  0.5582192618360297  1.0000
  O   O12       1.0  0.058134519372351895  0.9385364467540926  0.2963244226048189  1.0000
  O   O13       1.0  0.05633189986616555  0.9359719888160498  0.7090353641071658  1.0000
  O   O14       1.0  0.798697483078314  0.20771512105610437  0.4371685914607399  1.0000
  O   O15       1.0  0.9383618676141978  0.05809514879038623  0.29657150669547866  1.0000
  O   O16       1.0  0.20706937596196454  0.7953586383278264  0.5592619696697838  1.0000
  O   O17       1.0  0.9370724948883336  0.7957502560272973  0.708693449959462  1.0000
  O   O18       1.0  0.20834838765789948  0.054953324496182246  0.4392486854709999  1.0000
  O   O19       1.0  0.05848171689140709  0.2075554338203602  0.2967761460545475  1.0000
  O   O20       1.0  0.7974704817079752  0.9379911963678895  0.5561768608531708  1.0000
  O   O21       1.0  0.796896600710362  0.05650370509520308  0.7080284164106915  1.0000
  O   O22       1.0  0.05673706616160971  0.7967413871070192  0.438125043132814  1.0000
  O   O23       1.0  0.20835887285532073  0.9368567503622247  0.2980124974066456  1.0000
  O   O24       1.0  0.9385368874461547  0.206903156854182  0.5575299627745809  1.0000
  O   O25       1.0  0.8429665962479334  0.05213187779837384  0.5523276653928091  1.0000
  O   O26       1.0  0.05257089626505969  0.051152721402985435  0.5533215719499154  1.0000
  O   O27       1.0  0.052827766010771895  0.05179378417195584  0.3434355474568277  1.0000
  O   O28       1.0  0.051947306228029747  0.8422457240558147  0.553016946945128  1.0000
  O   O29       1.0  0.11600727210845448  0.9602307381278196  0.46220744434319266  1.0000
  O   O30       1.0  0.96154779650773  0.9610314047643771  0.4614263473437603  1.0000
  O   O31       1.0  0.9620343526239448  0.11487076633035552  0.46180698958657024  1.0000
  O   O32       1.0  0.961292287919377  0.9606057054602106  0.6160754812543486  1.0000
  O   O33       1.0  0.26732074486027113  0.5625841253870193  0.8346249995741885  1.0000
  O   O34       1.0  0.2668236697540392  0.5232345820212033  0.9772256191767994  1.0000
  O   O35       1.0  0.17549246985423395  0.6707345939222406  0.9099616784617905  1.0000
  O   O36       1.0  0.8358117799182451  0.333079705591665  0.06403504528357484  1.0000
  O   O37       1.0  0.7334309428686865  0.4755669007764853  0.023437535479224933  1.0000
  O   O38       1.0  0.7435009140078321  0.40953251520367234  0.17125250123751826  1.0000
