data_image0
_chemical_formula_structural       Na2P4H26C24O12
_chemical_formula_sum              "Na2 P4 H26 C24 O12"
_cell_length_a       5.666867410510745
_cell_length_b       7.773911003037308
_cell_length_c       16.010632221899783
_cell_angle_alpha    102.95704585679248
_cell_angle_beta     94.21092902121653
_cell_angle_gamma    96.10726562755816

_space_group_name_H-M_alt    "P 1"
_space_group_IT_number       1

loop_
  _space_group_symop_operation_xyz
  'x, y, z'

loop_
  _atom_site_type_symbol
  _atom_site_label
  _atom_site_symmetry_multiplicity
  _atom_site_fract_x
  _atom_site_fract_y
  _atom_site_fract_z
  _atom_site_occupancy
  Na  Na1       1.0  0.7980805428704726  0.8182503444385388  0.002418013892210483  1.0000
  Na  Na2       1.0  0.20193152155361097  0.18174712811855187  0.9975826393144234  1.0000
  P   P1        1.0  0.295728005005472  0.6756177238026878  0.11793153376709851  1.0000
  P   P2        1.0  0.704277212977246  0.32438113338530894  0.8820696854041545  1.0000
  P   P3        1.0  0.2436344527812721  0.7731740399041981  0.8636779856054774  1.0000
  P   P4        1.0  0.7563749543816414  0.2268275039815251  0.1363199151172552  1.0000
  H   H1        1.0  0.9150523275041421  0.5614296245695841  0.10876564601337446  1.0000
  H   H2        1.0  0.08495253380856126  0.4385666195607739  0.8912321476709908  1.0000
  H   H3        1.0  0.516241313088436  0.453751874717355  0.09972882631704043  1.0000
  H   H4        1.0  0.48376263137566866  0.5462496594109536  0.900272651422789  1.0000
  H   H5        1.0  0.5418904406140611  0.9910693505407622  0.8918239238419617  1.0000
  H   H6        1.0  0.4581203502914022  0.0089307989566336  0.10817698793325552  1.0000
  H   H7        1.0  0.026366818779173677  0.5988461422629001  0.2580383185105931  1.0000
  H   H8        1.0  0.9736228569305466  0.401154227154663  0.7419600870547145  1.0000
  H   H9        1.0  0.1351455550386332  0.6519166446584492  0.4141763402497106  1.0000
  H   H10       1.0  0.8648415331888586  0.3480797203989424  0.5858234128082034  1.0000
  H   H11       1.0  0.5323749198316463  0.8140937562902338  0.4802372747057789  1.0000
  H   H12       1.0  0.4676170292248116  0.185899919150323  0.5197610806075874  1.0000
  H   H13       1.0  0.8270863533533159  0.912271732241649  0.3860767307826479  1.0000
  H   H14       1.0  0.1729109779149098  0.08772316837316652  0.6139256763920217  1.0000
  H   H15       1.0  0.720850177760603  0.8541195227133259  0.22875836925199172  1.0000
  H   H16       1.0  0.27914938556608593  0.14587801339307302  0.7712450255684332  1.0000
  H   H17       1.0  0.8461684314721366  0.9018106640858363  0.7855983530716559  1.0000
  H   H18       1.0  0.15382246326734614  0.09818700920995128  0.21440103942716607  1.0000
  H   H19       1.0  0.6962370477044786  0.8850088433513079  0.6337088794708735  1.0000
  H   H20       1.0  0.30375298467525613  0.11499413912390109  0.3662929515813148  1.0000
  H   H21       1.0  0.9097053426915382  0.7287993349374418  0.5140170217613333  1.0000
  H   H22       1.0  0.09028981016380296  0.2712116370766466  0.4859833598077331  1.0000
  H   H23       1.0  0.27237817809027115  0.5902925103041381  0.5472110479353633  1.0000
  H   H24       1.0  0.7276173574332673  0.4097198401692737  0.4527863757442959  1.0000
  H   H25       1.0  0.4219514818801002  0.609261945609312  0.6987361463380639  1.0000
  H   H26       1.0  0.5780529401860547  0.39075034440058687  0.30126029765481394  1.0000
  C   C1        1.0  0.366550790136948  0.7233318313073696  0.23293220366461045  1.0000
  C   C2        1.0  0.6334440898711762  0.27665911290094397  0.7670684372474242  1.0000
  C   C3        1.0  0.2022100898404914  0.6669546149557704  0.28570396983454327  1.0000
  C   C4        1.0  0.7977868847577271  0.33303767260140654  0.7142950118532314  1.0000
  C   C5        1.0  0.2635294390499965  0.6982275281047664  0.37418575256793934  1.0000
  C   C6        1.0  0.736469001024055  0.301763393836289  0.6258143719191765  1.0000
  C   C7        1.0  0.4874084009787936  0.7871029498833693  0.410710215650191  1.0000
  C   C8        1.0  0.5125841924820164  0.21288533965189768  0.5892906831181862  1.0000
  C   C9        1.0  0.6520249473986297  0.8428970513077373  0.35836182115926374  1.0000
  C   C10       1.0  0.34797167177582367  0.15709386738084422  0.6416394956668798  1.0000
  C   C11       1.0  0.592286618924028  0.8109553199995362  0.2696129662688095  1.0000
  C   C12       1.0  0.4077139987196361  0.18903821825163183  0.7303893913661599  1.0000
  C   C13       1.0  0.14361672689564384  0.7587553890869287  0.7521220338511585  1.0000
  C   C14       1.0  0.8563876274810766  0.24124753309144614  0.24787586324821123  1.0000
  C   C15       1.0  0.939459422845836  0.835491678304173  0.7329203237674736  1.0000
  C   C16       1.0  0.0605385375366581  0.16450593127562743  0.26707928138360165  1.0000
  C   C17       1.0  0.8552770190010078  0.8244751161522076  0.6474679772941132  1.0000
  C   C18       1.0  0.14471353351528649  0.1755305369250451  0.3525335427386765  1.0000
  C   C19       1.0  0.9751770927737836  0.7366763585891434  0.5807072568991531  1.0000
  C   C20       1.0  0.02481329502971617  0.26332799275465385  0.4192922390146664  1.0000
  C   C21       1.0  0.17916268405307528  0.6597417190987329  0.5993730542120446  1.0000
  C   C22       1.0  0.8208320576434075  0.3402666206762461  0.40062514737223864  1.0000
  C   C23       1.0  0.26340092314074326  0.6702019269763966  0.6846870832398722  1.0000
  C   C24       1.0  0.7366022666950655  0.3298037105052175  0.3153085814238851  1.0000
  O   O1        1.0  0.019138794193111153  0.673307840215095  0.0983827133420405  1.0000
  O   O2        1.0  0.9808656704075531  0.32669636451525713  0.9016184533783902  1.0000
  O   O3        1.0  0.3419005641541233  0.4789590486497985  0.08075311732175548  1.0000
  O   O4        1.0  0.658104818541389  0.5210411102716607  0.9192501259684536  1.0000
  O   O5        1.0  0.4394328447301845  0.808869539473079  0.08057055598720103  1.0000
  O   O6        1.0  0.5605688404310313  0.19112934957291122  0.9194305568579184  1.0000
  O   O7        1.0  0.51826479688539  0.8541047982096829  0.8783660883475622  1.0000
  O   O8        1.0  0.48174113194486523  0.14589679671550468  0.12163046054695313  1.0000
  O   O9        1.0  0.09296599763356272  0.8872234855555022  0.9202378792622101  1.0000
  O   O10       1.0  0.9070456960766575  0.11278071300326789  0.07975976360418711  1.0000
  O   O11       1.0  0.25200194371931417  0.5804376976673711  0.8738943760498618  1.0000
  O   O12       1.0  0.7480125979630544  0.41956249669790674  0.1261016600430978  1.0000
