data_image0
_chemical_formula_structural       Na2H12Au2C16S4N8
_chemical_formula_sum              "Na2 H12 Au2 C16 S4 N8"
_cell_length_a       7.994534741365955
_cell_length_b       7.994471674811291
_cell_length_c       10.858739829203907
_cell_angle_alpha    102.44468096771793
_cell_angle_beta     102.4452325595447
_cell_angle_gamma    114.45811604593386

_space_group_name_H-M_alt    "P 1"
_space_group_IT_number       1

loop_
  _space_group_symop_operation_xyz
  'x, y, z'

loop_
  _atom_site_type_symbol
  _atom_site_label
  _atom_site_symmetry_multiplicity
  _atom_site_fract_x
  _atom_site_fract_y
  _atom_site_fract_z
  _atom_site_occupancy
  Na  Na1       1.0  0.3271640121962562  0.672822640928658  0.9999901362480585  1.0000
  Na  Na2       1.0  0.5772366339670824  0.42279358572959325  0.5000040394436311  1.0000
  H   H1        1.0  0.7445543811773802  0.6225698971699459  0.03766130677008311  1.0000
  H   H2        1.0  0.3773763971680992  0.2554018088502303  0.9623214696525435  1.0000
  H   H3        1.0  0.6646348587737662  0.0425886725624522  0.5380776140608035  1.0000
  H   H4        1.0  0.9574404647854069  0.3354190632019467  0.46193434935936745  1.0000
  H   H5        1.0  0.022310317255573857  0.6662043574546883  0.22776673307436818  1.0000
  H   H6        1.0  0.33376472006074903  0.977677759530266  0.7722389358091704  1.0000
  H   H7        1.0  0.8113193792077168  0.9549601587144069  0.7280461012038586  1.0000
  H   H8        1.0  0.04503761336299307  0.1886973840749633  0.2719695275135976  1.0000
  H   H9        1.0  0.975481334020955  0.6920090006303069  0.4539518723001023  1.0000
  H   H10       1.0  0.3080070664003572  0.024509560800822804  0.5460392797952736  1.0000
  H   H11       1.0  0.01220828603769768  0.22800192920201567  0.954166727080633  1.0000
  H   H12       1.0  0.7720133269863396  0.9877670374570401  0.04586110364413545  1.0000
  Au  Au1       1.0  0.34378538954059923  0.6561958535304059  0.5000039492159232  1.0000
  Au  Au2       1.0  0.09410817057131021  0.9058755180216167  0.9999988387646327  1.0000
  C   C1        1.0  0.567236002894269  0.6615655742811342  0.28167025504495763  1.0000
  C   C2        1.0  0.3385043518523076  0.4327872802017367  0.7183313826748899  1.0000
  C   C3        1.0  0.8699403591141106  0.4638847361648645  0.781894677476579  1.0000
  C   C4        1.0  0.5361168194812649  0.1300839915037812  0.21810573064678349  1.0000
  C   C5        1.0  0.7390736763227325  0.6414948634704062  0.13926487742744337  1.0000
  C   C6        1.0  0.3585029476335747  0.26091281039580844  0.8607216593493732  1.0000
  C   C7        1.0  0.7475065968045269  0.14971539072002574  0.6396119636751365  1.0000
  C   C8        1.0  0.8502926533070294  0.2525111367434576  0.3603956346794561  1.0000
  C   C9        1.0  0.8918573338481011  0.6640534041473816  0.24376798300603753  1.0000
  C   C10       1.0  0.33586051713607645  0.10809667690775632  0.7562056184188746  1.0000
  C   C11       1.0  0.8295292918736835  0.10140532564825833  0.7440669788510518  1.0000
  C   C12       1.0  0.8985904616199889  0.17047922312962532  0.2559466788939773  1.0000
  C   C13       1.0  0.8650707598790816  0.6792833832096435  0.36733633449918557  1.0000
  C   C14       1.0  0.3207680878207029  0.13494041755841124  0.6326584252131296  1.0000
  C   C15       1.0  0.9382153296313334  0.2517768564405003  0.8675544548609435  1.0000
  C   C16       1.0  0.7482234490992423  0.06179106280172421  0.13245115395819337  1.0000
  S   S1        1.0  0.35558884443607036  0.6673758261190486  0.29320971038515603  1.0000
  S   S2        1.0  0.3326842518215827  0.6444335975699148  0.7068131922774654  1.0000
  S   S3        1.0  0.8756389547181558  0.6870252752382131  0.7934795513425499  1.0000
  S   S4        1.0  0.31297170339686187  0.12436097100761859  0.20651134633433796  1.0000
  N   N1        1.0  0.5796621030150888  0.6435709594154985  0.15748566227922106  1.0000
  N   N2        1.0  0.3563915615079195  0.4203063672998865  0.8425012510325587  1.0000
  N   N3        1.0  0.7635842224260118  0.32729048466701727  0.6577490868448662  1.0000
  N   N4        1.0  0.6726944445205234  0.2363865728258361  0.34226247390554926  1.0000
  N   N5        1.0  0.7028032130367092  0.673615432299222  0.3875736480516564  1.0000
  N   N6        1.0  0.32634047051777065  0.29718165900280974  0.6124134657306328  1.0000
  N   N7        1.0  0.9639505585010469  0.43422270099589627  0.8877397239434615  1.0000
  N   N8        1.0  0.5657980765187459  0.03611776353434951  0.11225355525100868  1.0000
