data_image0
_chemical_formula_structural       Sm3H6C12N9O15
_chemical_formula_sum              "Sm3 H6 C12 N9 O15"
_cell_length_a       8.554376949726073
_cell_length_b       8.554383863653966
_cell_length_c       9.840378397588955
_cell_angle_alpha    89.98290825891014
_cell_angle_beta     90.01735218578307
_cell_angle_gamma    119.99781779458557

_space_group_name_H-M_alt    "P 1"
_space_group_IT_number       1

loop_
  _space_group_symop_operation_xyz
  'x, y, z'

loop_
  _atom_site_type_symbol
  _atom_site_label
  _atom_site_symmetry_multiplicity
  _atom_site_fract_x
  _atom_site_fract_y
  _atom_site_fract_z
  _atom_site_occupancy
  Sm  Sm1       1.0  0.7822659373800889  5.772559200064707e-05  0.6666842716081547  1.0000
  Sm  Sm2       1.0  5.856454155420258e-05  0.7822644440821378  0.3333113694232352  1.0000
  Sm  Sm3       1.0  0.21773983672024141  0.21773780818637786  0.999997563684893  1.0000
  H   H1        1.0  0.09236989775116915  0.3619195948222682  0.7940332164774233  1.0000
  H   H2        1.0  0.6380873383357013  0.7304902863925447  0.46066769691525883  1.0000
  H   H3        1.0  0.2694228632831044  0.9074863547579567  0.1273792013647181  1.0000
  H   H4        1.0  0.7304880204873498  0.638087823251915  0.5393301288567827  1.0000
  H   H5        1.0  0.9074838668859257  0.2694232295771285  0.87261824214265  1.0000
  H   H6        1.0  0.36191365614716636  0.09236855108242993  0.20596989919994976  1.0000
  C   C1        1.0  0.6591198348669848  0.6953884270508435  0.9337452618546819  1.0000
  C   C2        1.0  0.3045655037435609  0.9638518027317886  0.6005707228688593  1.0000
  C   C3        1.0  0.036322402104048  0.34074796123097434  0.26695635449230787  1.0000
  C   C4        1.0  0.9638502805913731  0.30456003717935676  0.3994269040214249  1.0000
  C   C5        1.0  0.3407553286604923  0.03632495491989115  0.733043559769726  1.0000
  C   C6        1.0  0.6953819499049275  0.6591242156978225  0.0662505023544426  1.0000
  C   C7        1.0  0.5140031106204791  0.6080208167960138  0.8291733994655816  1.0000
  C   C8        1.0  0.39192288308049655  0.9060918945303552  0.49615880628280706  1.0000
  C   C9        1.0  0.09408940152913924  0.485936338961274  0.1624999394513296  1.0000
  C   C10       1.0  0.9060956112992287  0.39192938964897894  0.5038348138858311  1.0000
  C   C11       1.0  0.48593951635800187  0.09409035411649554  0.8375024116688579  1.0000
  C   C12       1.0  0.6080237716743468  0.5140062497891049  0.1708229187188266  1.0000
  N   N1        1.0  0.8014609272690834  0.8573443469270713  0.8975136988929009  1.0000
  N   N2        1.0  0.14258662083640433  0.9441703826730431  0.5642748511848481  1.0000
  N   N3        1.0  0.05592283886173281  0.1984003705890558  0.2307786227443955  1.0000
  N   N4        1.0  0.9441714526896094  0.14258384414232242  0.435723429627707  1.0000
  N   N5        1.0  0.19840425429546124  0.05592197437340467  0.7692200304821455  1.0000
  N   N6        1.0  0.8573401798751733  0.8014634050384044  0.102480640295866  1.0000
  N   N7        1.0  0.9182201541634926  0.918224496957798  0.9999999760698516  1.0000
  N   N8        1.0  0.0816749093201565  3.3761116242178505e-05  0.6667046544841639  1.0000
  N   N9        1.0  3.565338120381387e-05  0.08167349607857942  0.3332946705210418  1.0000
  O   O1        1.0  0.9999271948502721  0.24688319110553156  0.8332974792999508  1.0000
  O   O2        1.0  0.753115413726441  0.7531160779195644  0.4999954934700598  1.0000
  O   O3        1.0  0.24687827822766933  0.9999250989177213  0.1666980711714956  1.0000
  O   O4        1.0  0.3791217073746295  0.4517441512865047  0.8477087344072699  1.0000
  O   O5        1.0  0.5482620258382412  0.9276185345999507  0.5146789710005777  1.0000
  O   O6        1.0  0.07271416078179267  0.6208262548899198  0.1810896512189402  1.0000
  O   O7        1.0  0.9276186367372078  0.5482553717563832  0.48532008623035944  1.0000
  O   O8        1.0  0.6208325535767544  0.07270737652303445  0.8189047979355736  1.0000
  O   O9        1.0  0.45174138272479775  0.3791233296438107  0.1522870025527823  1.0000
  O   O10       1.0  0.536003797637889  0.6989263668094877  0.7216472824514568  1.0000
  O   O11       1.0  0.30101266506999014  0.8370443230214589  0.3886710950732848  1.0000
  O   O12       1.0  0.1630323931849702  0.46407128411848925  0.054955033968092  1.0000
  O   O13       1.0  0.8370350378752532  0.30100760535945853  0.6113242383158521  1.0000
  O   O14       1.0  0.464073606686938  0.16303516759837308  0.9450372484807659  1.0000
  O   O15       1.0  0.6989239871717956  0.5359947933353623  0.2783441806742033  1.0000
