data_image0
_chemical_formula_structural       Zn6H64C84S2N8O30
_chemical_formula_sum              "Zn6 H64 C84 S2 N8 O30"
_cell_length_a       21.3020814086622
_cell_length_b       21.286834273724207
_cell_length_c       24.1998676196636
_cell_angle_alpha    64.47270393502846
_cell_angle_beta     64.20653785999164
_cell_angle_gamma    90.21642709495121

_space_group_name_H-M_alt    "P 1"
_space_group_IT_number       1

loop_
  _space_group_symop_operation_xyz
  'x, y, z'

loop_
  _atom_site_type_symbol
  _atom_site_label
  _atom_site_symmetry_multiplicity
  _atom_site_fract_x
  _atom_site_fract_y
  _atom_site_fract_z
  _atom_site_occupancy
  Zn  Zn1       1.0  0.5728321925889476  0.0024663994930733983  0.4967516411179036  1.0000
  Zn  Zn2       1.0  0.9995258263549902  0.4323973628688904  0.5028442485582544  1.0000
  Zn  Zn3       1.0  0.44546621846468787  0.9995220089930329  0.49906287998329896  1.0000
  Zn  Zn4       1.0  0.001434471523829499  0.5596749033859822  0.501361157817307  1.0000
  Zn  Zn5       1.0  0.5328655481194956  0.5343474843805184  0.4312881164984221  1.0000
  Zn  Zn6       1.0  0.46611458001862616  0.4665085804409231  0.5721451785929261  1.0000
  H   H1        1.0  0.521788709036109  0.1725974366401815  0.2885908508028692  1.0000
  H   H2        1.0  0.8320202268227631  0.49616100896911763  0.7144964753359562  1.0000
  H   H3        1.0  0.28184435451973394  0.8548337473333094  0.7187765433530372  1.0000
  H   H4        1.0  0.14855246362191107  0.7209011651102983  0.2804567886561459  1.0000
  H   H5        1.0  0.2201025918743085  0.7884980284076804  0.8499881539163001  1.0000
  H   H6        1.0  0.21397527937803318  0.7816169748881238  0.1493113615199277  1.0000
  H   H7        1.0  0.4029445429258161  0.8817889334482771  0.845555011620732  1.0000
  H   H8        1.0  0.1167398049728305  0.5993955051351989  0.15555221524454038  1.0000
  H   H9        1.0  0.46666371970561465  0.9431712662626809  0.7143658994018408  1.0000
  H   H10       1.0  0.056589406337486985  0.5364259325434516  0.286632501986631  1.0000
  H   H11       1.0  0.40641813838774976  0.7017174436896312  0.5338609798487965  1.0000
  H   H12       1.0  0.30180235483286577  0.5942703198105052  0.46839809531891075  1.0000
  H   H13       1.0  0.4797417180050019  0.8444386087142561  0.42270341859337196  1.0000
  H   H14       1.0  0.1579172474717225  0.5276124570189255  0.5798503495234473  1.0000
  H   H15       1.0  0.5979569577925758  0.7916765436844457  0.36019528347877405  1.0000
  H   H16       1.0  0.2068723349208383  0.406856714280309  0.6459391587391538  1.0000
  H   H17       1.0  0.6584481642221148  0.8134464373359904  0.43670994104208927  1.0000
  H   H18       1.0  0.1797501167112259  0.34387645727497324  0.5734515789423258  1.0000
  H   H19       1.0  0.5834339112068889  0.6715435405763087  0.5484407972702172  1.0000
  H   H20       1.0  0.3230591817403052  0.4123590485123004  0.46132935794035035  1.0000
  H   H21       1.0  0.5804819574458976  0.2455400555624224  0.15864027701660183  1.0000
  H   H22       1.0  0.749660252653712  0.4248276893981782  0.843858878518958  1.0000
  H   H23       1.0  0.46665112633296246  0.7269374863730037  0.60899106083766  1.0000
  H   H24       1.0  0.27240936523603665  0.5312562103732716  0.39704884658222983  1.0000
  H   H25       1.0  0.4402510117284636  0.3050401535642706  0.44716882159302457  1.0000
  H   H26       1.0  0.6939500447329295  0.5586028743091448  0.5591536558201468  1.0000
  H   H27       1.0  0.4159959915274882  0.17694777973741083  0.5690203682781887  1.0000
  H   H28       1.0  0.8228201824800437  0.5892664725387676  0.4347358548398079  1.0000
  H   H29       1.0  0.5032066738126775  0.2554821783306878  0.5908379873609775  1.0000
  H   H30       1.0  0.7466439395470204  0.5055432810463573  0.4079260992644436  1.0000
  H   H31       1.0  0.6256273408802642  0.21870793853074838  0.5097239851899928  1.0000
  H   H32       1.0  0.786147259371404  0.38235969463461567  0.48355181119523405  1.0000
  H   H33       1.0  0.6487622012298788  0.34553740828693696  0.38711938780905086  1.0000
  H   H34       1.0  0.6585187955466766  0.3528259822061416  0.6085730809727468  1.0000
  H   H35       1.0  0.6410297417913212  0.32483649118344726  0.20257883807874325  1.0000
  H   H36       1.0  0.5484101927060651  0.3158612292206513  0.22762293710118803  1.0000
  H   H37       1.0  0.606076275369503  0.4022507315783628  0.18051895493107392  1.0000
  H   H38       1.0  0.5317719470044439  0.36602063297434034  0.30879119752626855  1.0000
  H   H39       1.0  0.6238577803948715  0.37855479726177077  0.2826430691043599  1.0000
  H   H40       1.0  0.6128944674739429  0.24579146210403743  0.3311402015310705  1.0000
  H   H41       1.0  0.5204490972438975  0.23207334626231815  0.3567289611351186  1.0000
  H   H42       1.0  0.6728333101728908  0.3508016885445855  0.7988399655171748  1.0000
  H   H43       1.0  0.6780178566805263  0.4420979983923201  0.7781662955717012  1.0000
  H   H44       1.0  0.5931803111597348  0.3826531784666258  0.8218071227720786  1.0000
  H   H45       1.0  0.6322157069010501  0.4615220924450655  0.6937520819900984  1.0000
  H   H46       1.0  0.6228138200684585  0.3706108805583028  0.715670123747458  1.0000
  H   H47       1.0  0.7556917353012764  0.38447345244360787  0.6682041884101865  1.0000
  H   H48       1.0  0.7666434454300487  0.4755366478541063  0.647803328551092  1.0000
  H   H49       1.0  0.7993850676280729  0.0357363419217549  0.026730842153369773  1.0000
  H   H50       1.0  0.7689273146765176  0.9635431481805771  0.11174184837158639  1.0000
  H   H51       1.0  0.7301651966823003  0.9615482777365191  0.060778306788151194  1.0000
  H   H52       1.0  0.6460803018228417  0.9945944613688202  0.14947572648498644  1.0000
  H   H53       1.0  0.678317669387681  0.066588850700839  0.06472479725029262  1.0000
  H   H54       1.0  0.7610836541544046  0.1320400411214848  0.07449732663047844  1.0000
  H   H55       1.0  0.7548825149926942  0.059201062469071496  0.14831919770086446  1.0000
  H   H56       1.0  0.882202525703555  0.13791136536792695  0.9882858485587037  1.0000
  H   H57       1.0  0.9719415686311169  0.17988128444829954  0.9200744394569895  1.0000
  H   H58       1.0  0.9393682680464934  0.1910628324920651  0.9957365993272663  1.0000
  H   H59       1.0  0.9451366155554908  0.30095096580202346  0.8940048899618064  1.0000
  H   H60       1.0  0.8560701477833277  0.2615722787056214  0.9620318080257564  1.0000
  H   H61       1.0  0.8306981440833425  0.2056442084234078  0.9009025048836037  1.0000
  H   H62       1.0  0.9213992246920454  0.22984094119716753  0.838564941998641  1.0000
  H   H63       1.0  0.7079454431075404  0.9526592561674362  0.21056751287548553  1.0000
  H   H64       1.0  0.062068803876428484  0.3648817288158668  0.7542546814698811  1.0000
  C   C1        1.0  0.5344237157238468  0.1233112204732834  0.48984858194588565  1.0000
  C   C2        1.0  0.8790703838584762  0.4702373350932732  0.5085991456413694  1.0000
  C   C3        1.0  0.5810137485645441  0.0914966511094946  0.28640887528480624  1.0000
  C   C4        1.0  0.9014376145999138  0.4234633364858525  0.7136075889791655  1.0000
  C   C5        1.0  0.7515085302204412  0.29775184568369895  0.9307644662266841  1.0000
  C   C6        1.0  0.6752147379105722  0.2176213219525139  0.06404710370207325  1.0000
  C   C7        1.0  0.4676163969561101  0.2151610619190834  0.529082606860918  1.0000
  C   C8        1.0  0.7855221840782036  0.5368519246426969  0.4728862401744892  1.0000
  C   C9        1.0  0.4808811642518762  0.2843415810485226  0.46160488254235343  1.0000
  C   C10       1.0  0.7158376276980364  0.5200205246799713  0.5417857368897074  1.0000
  C   C11       1.0  0.5301327972271964  0.32692435152900146  0.4738089176194934  1.0000
  C   C12       1.0  0.6746139657590716  0.47280765169408306  0.526723479956168  1.0000
  C   C13       1.0  0.5165154370853884  0.2572372390353337  0.5410988332020565  1.0000
  C   C14       1.0  0.7447730397403233  0.4899164959454085  0.4580662109429029  1.0000
  C   C15       1.0  0.5842817836521875  0.23793186865261617  0.4959400420296378  1.0000
  C   C16       1.0  0.7656542525349579  0.4217398635483108  0.5001460966868906  1.0000
  C   C17       1.0  0.5973103712196206  0.3074132710937363  0.4281952671879097  1.0000
  C   C18       1.0  0.6957088938058151  0.4051500089808471  0.5692636778234288  1.0000
  C   C19       1.0  0.5483043126824896  0.2650576086152157  0.4161837881168467  1.0000
  C   C20       1.0  0.7366439633891774  0.4521431511447673  0.5841221516129664  1.0000
  C   C21       1.0  0.5353481663380109  0.19478786140984988  0.4851564469914679  1.0000
  C   C22       1.0  0.8075287457188126  0.46891146016960766  0.5135876178325987  1.0000
  C   C23       1.0  0.5473383109541318  0.057141937197371796  0.36515930043533734  1.0000
  C   C24       1.0  0.9398357524769383  0.4603357790881191  0.6348586780972028  1.0000
  C   C25       1.0  0.3081065844837667  0.8597159545522999  0.7470718252575496  1.0000
  C   C26       1.0  0.1425915090734478  0.6944758536459545  0.2526170544644941  1.0000
  C   C27       1.0  0.2737097636320769  0.8232619141799516  0.8198382093017504  1.0000
  C   C28       1.0  0.17854867245892342  0.72836192056932  0.1798549166518839  1.0000
  C   C29       1.0  0.30775876963841137  0.8314622621799896  0.8555566156571149  1.0000
  C   C30       1.0  0.16913672932280827  0.6941894388799453  0.14461470722005032  1.0000
  C   C31       1.0  0.37720045964633203  0.875671797168586  0.817330943398112  1.0000
  C   C32       1.0  0.12394527072820691  0.6252295192156937  0.18335406963078074  1.0000
  C   C33       1.0  0.4122488354348449  0.9100515843895283  0.7447118201354926  1.0000
  C   C34       1.0  0.09022366523359432  0.590575743388058  0.2559649215293122  1.0000
  C   C35       1.0  0.37781349664044234  0.902838653623739  0.7090818762787521  1.0000
  C   C36       1.0  0.09889748223589119  0.6250558165892173  0.2910912975131836  1.0000
  C   C37       1.0  0.20649960863067204  0.729997078165418  0.06779063580414404  1.0000
  C   C38       1.0  0.27136122762927073  0.7942217510089549  0.9323761874898299  1.0000
  C   C39       1.0  0.502922275756724  0.8051854662684762  0.4500763764700793  1.0000
  C   C40       1.0  0.19532172629681807  0.5017212739921532  0.5541730111102582  1.0000
  C   C41       1.0  0.4621448994626931  0.7279135273030519  0.5121869006383266  1.0000
  C   C42       1.0  0.27333397067774723  0.5389637389653431  0.4918100414973948  1.0000
  C   C43       1.0  0.5283991953637539  0.699221793874777  0.4770630302637928  1.0000
  C   C44       1.0  0.2994300267679152  0.4718062131486677  0.5288834451313706  1.0000
  C   C45       1.0  0.5359220761660453  0.8837551403759891  0.49852211232659727  1.0000
  C   C46       1.0  0.11536962965706717  0.4683929135297403  0.5065622502172362  1.0000
  C   C47       1.0  0.5689294698234947  0.7768354439279364  0.4156427627099148  1.0000
  C   C48       1.0  0.22118758667362928  0.4346365648572147  0.5905832423694621  1.0000
  C   C49       1.0  0.6024278513864089  0.7887109291124331  0.4578688444360993  1.0000
  C   C50       1.0  0.20692326719775886  0.3995123487341772  0.5505091926537207  1.0000
  C   C51       1.0  0.5610728531977074  0.7111386021486439  0.5200871038226396  1.0000
  C   C52       1.0  0.2851855309062685  0.43731461186365556  0.48804587137227173  1.0000
  C   C53       1.0  0.4954786336963295  0.7399177518681058  0.5539636366365601  1.0000
  C   C54       1.0  0.259115003292365  0.5039758148552096  0.45210848549129423  1.0000
  C   C55       1.0  0.5372055844347585  0.8183836961499155  0.4909689911908687  1.0000
  C   C56       1.0  0.17990921993640543  0.46589575570946123  0.5153870014591176  1.0000
  C   C57       1.0  0.3680242338858831  0.47932374147838885  0.5297111639304576  1.0000
  C   C58       1.0  0.5194262201199109  0.6311338283502792  0.47563436227972034  1.0000
  C   C59       1.0  0.5221928453620138  0.39684615441819204  0.47168575078038083  1.0000
  C   C60       1.0  0.6040537180193654  0.4795943643843117  0.5301800734024413  1.0000
  C   C61       1.0  0.4168453278895399  0.9405375377746024  0.6309217453642975  1.0000
  C   C62       1.0  0.062307324689896915  0.5864013857488076  0.3692164140849883  1.0000
  C   C63       1.0  0.5618584153762854  0.1550038506239133  0.25516913915512174  1.0000
  C   C64       1.0  0.8424181802023581  0.44724511113165016  0.7463460598859585  1.0000
  C   C65       1.0  0.5942025779060529  0.1953080397512394  0.1830735658604824  1.0000
  C   C66       1.0  0.7963294440854725  0.4071822294451267  0.8178724763895605  1.0000
  C   C67       1.0  0.6449021785556468  0.17193840949851594  0.14008040325746415  1.0000
  C   C68       1.0  0.8067447636465206  0.3411874307920116  0.857003115161753  1.0000
  C   C69       1.0  0.6655526568128352  0.1076198556007739  0.16939997009503585  1.0000
  C   C70       1.0  0.8678857818664979  0.3167170835255249  0.8266098360906754  1.0000
  C   C71       1.0  0.6325462316691599  0.06831389185023079  0.24323858445380625  1.0000
  C   C72       1.0  0.9159289039814951  0.36092626387243604  0.7550092533463515  1.0000
  C   C73       1.0  0.5653368640602707  0.2677795254855937  0.3481454339066022  1.0000
  C   C74       1.0  0.5787441090948775  0.3438992800476797  0.29068960962111845  1.0000
  C   C75       1.0  0.5945064742907747  0.3470361110223125  0.22153878640473576  1.0000
  C   C76       1.0  0.7327370346808026  0.43159342505735765  0.6532249009786287  1.0000
  C   C77       1.0  0.6553559787938069  0.4151498959612637  0.710528201178342  1.0000
  C   C78       1.0  0.6493646343759282  0.39656428418484074  0.7812789607429736  1.0000
  C   C79       1.0  0.7227707137052449  0.0842829385444901  0.12300523917263466  1.0000
  C   C80       1.0  0.6946325149104524  0.0343208218810815  0.10344793198225237  1.0000
  C   C81       1.0  0.7510344760310446  0.996907622865159  0.07424800833693705  1.0000
  C   C82       1.0  0.8802502342931079  0.24765059317905985  0.8713909100176168  1.0000
  C   C83       1.0  0.9013649638092928  0.25312156871850533  0.9227425919551356  1.0000
  C   C84       1.0  0.924918657788439  0.18686567212332514  0.9588501904478975  1.0000
  S   S1        1.0  0.6585445611487087  0.9888209821158968  0.28648859048765046  1.0000
  S   S2        1.0  0.00041674635068029715  0.34074636912966133  0.7136603185426936  1.0000
  N   N1        1.0  0.6825409022240977  0.1880352075152061  0.022850389609381384  1.0000
  N   N2        1.0  0.7223170133600688  0.22897550609529563  0.9544514108884812  1.0000
  N   N3        1.0  0.7239655507651294  0.33067520967749425  0.9701917518693719  1.0000
  N   N4        1.0  0.6854285791824921  0.2895877678522538  0.038395455248227996  1.0000
  N   N5        1.0  0.2967485346134779  0.8183241769760414  0.9640177319504633  1.0000
  N   N6        1.0  0.18161205835407657  0.7053458502281346  0.03618040613473274  1.0000
  N   N7        1.0  0.26440885175048834  0.7851059866733436  0.0328155614983884  1.0000
  N   N8        1.0  0.21515863583106665  0.7373726310169674  0.9673398650137485  1.0000
  O   O1        1.0  0.5873389881780612  0.0948137680286791  0.49182374344051283  1.0000
  O   O2        1.0  0.9074796555258899  0.41698076438682824  0.5074800165947623  1.0000
  O   O3        1.0  0.36747049969421397  0.4525980549799656  0.5889936278918101  1.0000
  O   O4        1.0  0.5457398931060383  0.6322540331057952  0.41598041831178983  1.0000
  O   O5        1.0  0.549567130110134  0.45414333524625755  0.41156652807799077  1.0000
  O   O6        1.0  0.5470437172429287  0.4512322746877047  0.5907905719663307  1.0000
  O   O7        1.0  0.4871595607541294  0.39523631080527366  0.5304235169478276  1.0000
  O   O8        1.0  0.6047380233904677  0.5145684739722683  0.472060624071041  1.0000
  O   O9        1.0  0.4808283855119343  0.09510651833796403  0.4908072596970854  1.0000
  O   O10       1.0  0.9073965099982432  0.5243422078460898  0.5068798938011909  1.0000
  O   O11       1.0  0.5882074026109763  0.0546972380900073  0.3907917648837725  1.0000
  O   O12       1.0  0.9475014087467531  0.41990968637060894  0.6076591521041977  1.0000
  O   O13       1.0  0.4783560960456939  0.0390068196701208  0.3985834857268317  1.0000
  O   O14       1.0  0.9565043974622969  0.5291885739519985  0.6021453239889639  1.0000
  O   O15       1.0  0.5897096892497731  0.9129378124982922  0.497915194641507  1.0000
  O   O16       1.0  0.08719958926386791  0.415121938207534  0.5057548282809139  1.0000
  O   O17       1.0  0.4798252023177341  0.907638358663192  0.5054166773592144  1.0000
  O   O18       1.0  0.09204646699621577  0.5248309350723162  0.4991338641321406  1.0000
  O   O19       1.0  0.48485149685983236  0.9583700156551986  0.6005180261738515  1.0000
  O   O20       1.0  0.045620422901897856  0.5184088455359799  0.39959288988472974  1.0000
  O   O21       1.0  0.37879509157488656  0.9526121197615395  0.5995537247961452  1.0000
  O   O22       1.0  0.050027439934396484  0.6246708815193786  0.4004976957426792  1.0000
  O   O23       1.0  0.4236168608767557  0.513059822699134  0.4697956749737813  1.0000
  O   O24       1.0  0.4850057531046589  0.5753284406713349  0.535201894077126  1.0000
  O   O25       1.0  0.7304900329294456  0.0090439261225796  0.27279990359892275  1.0000
  O   O26       1.0  0.5999265084261012  0.946652727344521  0.3556384501367803  1.0000
  O   O27       1.0  0.6597553228748438  0.9406748867545784  0.24974331966631538  1.0000
  O   O28       1.0  0.989628585659375  0.27616906138378994  0.7105670934360764  1.0000
  O   O29       1.0  0.04996776556758682  0.40625024997645204  0.6537887435004422  1.0000
  O   O30       1.0  0.028672811125403482  0.3212835776677707  0.7705161436075443  1.0000
