data_image0
_chemical_formula_structural       Cd2H12C16I4Br4N8
_chemical_formula_sum              "Cd2 H12 C16 I4 Br4 N8"
_cell_length_a       4.164916500725375
_cell_length_b       11.876505491945506
_cell_length_c       15.086835802208885
_cell_angle_alpha    89.99997045959088
_cell_angle_beta     89.9993417843303
_cell_angle_gamma    86.1551982895335

_space_group_name_H-M_alt    "P 1"
_space_group_IT_number       1

loop_
  _space_group_symop_operation_xyz
  'x, y, z'

loop_
  _atom_site_type_symbol
  _atom_site_label
  _atom_site_symmetry_multiplicity
  _atom_site_fract_x
  _atom_site_fract_y
  _atom_site_fract_z
  _atom_site_occupancy
  Cd  Cd1       1.0  2.570031770690703e-05  0.49998457779467037  3.9115467843000005e-06  1.0000
  Cd  Cd2       1.0  0.9999537949550754  1.2441232975397888e-05  0.4999964320002449  1.0000
  H   H1        1.0  0.20559747649591734  0.7018989407160632  0.14261527813046374  1.0000
  H   H2        1.0  0.7943979115107991  0.7980992420535674  0.6426190325029638  1.0000
  H   H3        1.0  0.7944265064804623  0.2980675424226078  0.8573851390838813  1.0000
  H   H4        1.0  0.20553464935545657  0.20193213920892825  0.3573767450534362  1.0000
  H   H5        1.0  0.20183822652755617  0.7487268847504681  0.3073038873056505  1.0000
  H   H6        1.0  0.7982161772334208  0.7512778743551962  0.8073049895836135  1.0000
  H   H7        1.0  0.7981312313466588  0.2512621917069851  0.6926918901928689  1.0000
  H   H8        1.0  0.20181935990767386  0.24873796465348622  0.19268813647979502  1.0000
  H   H9        1.0  0.7545983887292563  0.40766503694777617  0.19635062433356157  1.0000
  H   H10       1.0  0.24531642785274232  0.09234791591107694  0.6963430632253491  1.0000
  H   H11       1.0  0.24541369367567972  0.5923051509119334  0.8036683521270618  1.0000
  H   H12       1.0  0.7546399662358565  0.9076768970613643  0.3036480744843715  1.0000
  C   C1        1.0  0.10384886042223941  0.6470484665314872  0.19174637203839504  1.0000
  C   C2        1.0  0.8961398093291206  0.8529490115582238  0.691751750810653  1.0000
  C   C3        1.0  0.8961610122497489  0.3529268362621139  0.8082580221761121  1.0000
  C   C4        1.0  0.10382383601470477  0.14707643849803992  0.3082420382045683  1.0000
  C   C5        1.0  0.1008157297832142  0.6724267665735796  0.28195283059859133  1.0000
  C   C6        1.0  0.8991934649935373  0.8275675086167527  0.7819469374458807  1.0000
  C   C7        1.0  0.8991656608556083  0.3275594463148296  0.7180509008339229  1.0000
  C   C8        1.0  0.10082496720533375  0.17244207733570963  0.2180428745001848  1.0000
  C   C9        1.0  0.859398441807265  0.5112249527798839  0.3117888183371065  1.0000
  C   C10       1.0  0.1405981403138625  0.9887839623648705  0.8117841649602796  1.0000
  C   C11       1.0  0.1406217095447957  0.488766900960549  0.6882208784936525  1.0000
  C   C12       1.0  0.8594424708332864  0.011238469813449102  0.1882082982640298  1.0000
  C   C13       1.0  0.8574118559330515  0.48362400873124767  0.221393462284361  1.0000
  C   C14       1.0  0.14254287871519716  0.01638694680741541  0.7213816345829758  1.0000
  C   C15       1.0  0.1426076740575652  0.516351863123518  0.7786208743561434  1.0000
  C   C16       1.0  0.857437642870316  0.9836388682418689  0.27860552610808037  1.0000
  I   I1        1.0  0.4749939765476867  0.6727643169197179  0.9677984534110566  1.0000
  I   I2        1.0  0.524998769581309  0.8272369611899751  0.4677962196491735  1.0000
  I   I3        1.0  0.5250664263872267  0.3272095573974099  0.0322052778872788  1.0000
  I   I4        1.0  0.4749167517398902  0.17278984932006847  0.5321962437895564  1.0000
  Br  Br1       1.0  0.6894632994263642  0.40999637053479193  0.394846964033647  1.0000
  Br  Br2       1.0  0.3105593491518732  0.09001079550272811  0.8948371909645305  1.0000
  Br  Br3       1.0  0.3105446899298768  0.5899924587116133  0.6051726752610875  1.0000
  Br  Br4       1.0  0.6894952087688678  0.9099986112612798  0.105153283748983  1.0000
  N   N1        1.0  0.9822773178269838  0.5519560734921144  0.16202161093420395  1.0000
  N   N2        1.0  0.017664590154311106  0.9480486528564144  0.662020042011271  1.0000
  N   N3        1.0  0.017741983286214204  0.4480139102995083  0.8379920628779516  1.0000
  N   N4        1.0  0.9822775302507126  0.05198077401153969  0.33796910723384604  1.0000
  N   N5        1.0  0.9794880145170166  0.6039757776957515  0.34232714387644597  1.0000
  N   N6        1.0  0.02054086125416181  0.89602629733335  0.842323590333699  1.0000
  N   N7        1.0  0.020510513775242597  0.3960175294007371  0.657679238843734  1.0000
  N   N8        1.0  0.9795112577529748  0.10398233630147764  0.1576675472136202  1.0000
