data_image0
_chemical_formula_structural       Zn2H32C36N4O12
_chemical_formula_sum              "Zn2 H32 C36 N4 O12"
_cell_length_a       7.382074233555679
_cell_length_b       10.4072652830427
_cell_length_c       11.331867884130004
_cell_angle_alpha    89.99948025806877
_cell_angle_beta     89.99981901473362
_cell_angle_gamma    91.15584641941936

_space_group_name_H-M_alt    "P 1"
_space_group_IT_number       1

loop_
  _space_group_symop_operation_xyz
  'x, y, z'

loop_
  _atom_site_type_symbol
  _atom_site_label
  _atom_site_symmetry_multiplicity
  _atom_site_fract_x
  _atom_site_fract_y
  _atom_site_fract_z
  _atom_site_occupancy
  Zn  Zn1       1.0  0.7500039224299683  0.7499981176896496  0.7238811326837222  1.0000
  Zn  Zn2       1.0  0.24999402542024998  0.2499998935609185  0.2761182138599381  1.0000
  H   H1        1.0  0.05774608404907871  0.5529769861432497  0.9419438304592519  1.0000
  H   H2        1.0  0.4422562797273883  0.9470177155414419  0.9419461831955546  1.0000
  H   H3        1.0  0.9422542427929557  0.4470133173559743  0.058050221311901906  1.0000
  H   H4        1.0  0.5577374404775169  0.0529764811639239  0.05805581076973001  1.0000
  H   H5        1.0  0.1560961908777614  0.6476718417250423  0.1337094092642275  1.0000
  H   H6        1.0  0.3438989915429858  0.8523222804779065  0.13371099960903624  1.0000
  H   H7        1.0  0.8438999495105433  0.3523156082282953  0.8662899373256181  1.0000
  H   H8        1.0  0.6560957945567197  0.147665179301498  0.8662909943833554  1.0000
  H   H9        1.0  0.6276255899982246  0.57011063297886  0.9176982542805945  1.0000
  H   H10       1.0  0.8723870778972651  0.9298922959402558  0.9176920742260394  1.0000
  H   H11       1.0  0.3723833569007837  0.42989114360801756  0.08230109223561041  1.0000
  H   H12       1.0  0.12761792975241798  0.07011239320566179  0.08230638981509492  1.0000
  H   H13       1.0  0.6140094000888039  0.5647589371561351  0.139271460711619  1.0000
  H   H14       1.0  0.8860069783031078  0.9352478439222549  0.1392652068785125  1.0000
  H   H15       1.0  0.3860011070742999  0.4352476346361271  0.8607314156510313  1.0000
  H   H16       1.0  0.1140036524611006  0.06476161092028579  0.8607350220707772  1.0000
  H   H17       1.0  0.03846292355709121  0.7877600898084793  0.3049728567838628  1.0000
  H   H18       1.0  0.46154552586234837  0.7122456949464606  0.304968312039918  1.0000
  H   H19       1.0  0.9615380212355833  0.21224462883310474  0.6950300195966933  1.0000
  H   H20       1.0  0.5384582511108319  0.2877618870976306  0.6950257396551578  1.0000
  H   H21       1.0  0.0285128593055575  0.7810463484035779  0.5252216687247611  1.0000
  H   H22       1.0  0.4714851784437926  0.7189611716811511  0.5252214589235537  1.0000
  H   H23       1.0  0.9714770452423521  0.21895364389366279  0.47478032522028  1.0000
  H   H24       1.0  0.528500745667607  0.2810407721845464  0.4747752402152443  1.0000
  H   H25       1.0  0.04859896068551709  0.9176308071039048  0.6907939548067219  1.0000
  H   H26       1.0  0.45140916943704207  0.582376919298312  0.6907940501276357  1.0000
  H   H27       1.0  0.9514030912089166  0.08236813564158037  0.3092053917286819  1.0000
  H   H28       1.0  0.5485916517698968  0.4176249163235255  0.30920529639695365  1.0000
  H   H29       1.0  0.8511594869023539  0.9754611211813043  0.6606292546660839  1.0000
  H   H30       1.0  0.6488488376312703  0.5245395835918814  0.6606331242844021  1.0000
  H   H31       1.0  0.1488413343045778  0.024540714440540498  0.3393700918584983  1.0000
  H   H32       1.0  0.3511572771047966  0.4754593296273909  0.3393679871809141  1.0000
  C   C1        1.0  0.13405124008835398  0.6295045563001621  0.7228498048548176  1.0000
  C   C2        1.0  0.3659578787321678  0.8704980382535792  0.7228529610059056  1.0000
  C   C3        1.0  0.8659453946824273  0.3704944258106835  0.2771477767520736  1.0000
  C   C4        1.0  0.6340428188714639  0.129500914313617  0.277149915399086  1.0000
  C   C5        1.0  0.19474636257392317  0.694267843734849  0.8359508582080438  1.0000
  C   C6        1.0  0.3052608801098984  0.8057346034642305  0.8359520386698094  1.0000
  C   C7        1.0  0.8052514616817774  0.30572728447852165  0.1640484883478379  1.0000
  C   C8        1.0  0.6947382984190327  0.1942605148925267  0.1640508377528676  1.0000
  C   C9        1.0  0.1430930172797815  0.6392921752940097  0.9439209867679281  1.0000
  C   C10       1.0  0.35690420791279814  0.860709273286112  0.9439233617061688  1.0000
  C   C11       1.0  0.8569034938964746  0.3607039237796457  0.0560765948511772  1.0000
  C   C12       1.0  0.6430908665697218  0.1392849135713661  0.0560803971918133  1.0000
  C   C13       1.0  0.197300223784346  0.6934418367153015  0.0510228937694848  1.0000
  C   C14       1.0  0.30270230648562085  0.806556897859089  0.0510231902801195  1.0000
  C   C15       1.0  0.8026921009425723  0.30655140882118553  0.948978217734215  1.0000
  C   C16       1.0  0.6972927268053155  0.19343632799907337  0.948977921220795  1.0000
  C   C17       1.0  0.6800870884601122  0.6496344157813994  0.9708303237880358  1.0000
  C   C18       1.0  0.8199238370419406  0.8503651146169705  0.9708266866557053  1.0000
  C   C19       1.0  0.31991241966078826  0.35036839068763476  0.0291699052009164  1.0000
  C   C20       1.0  0.18008506865669457  0.1496357009531408  0.0291735423316268  1.0000
  C   C21       1.0  0.6742098104945882  0.6470147906279209  0.0933165805376888  1.0000
  C   C22       1.0  0.8257997368691719  0.8529857668881529  0.09331467390402541  1.0000
  C   C23       1.0  0.3257925297870515  0.35299087920435573  0.9066827659692152  1.0000
  C   C24       1.0  0.17420793814197566  0.14701794155831752  0.9066855550724852  1.0000
  C   C25       1.0  0.7500026662273314  0.750001900908522  0.1569622393532342  1.0000
  C   C26       1.0  0.24999967405211268  0.2500037689193916  0.8430379896207185  1.0000
  C   C27       1.0  0.7500052569346279  0.7500060431405018  0.2870643562208102  1.0000
  C   C28       1.0  0.25000126978977016  0.2500024802158477  0.7129341078026386  1.0000
  C   C29       1.0  0.910211356116143  0.7713124556231036  0.3507102678281555  1.0000
  C   C30       1.0  0.5898000303976546  0.7286951475248528  0.35070725656996876  1.0000
  C   C31       1.0  0.08979098415890971  0.22869321419608474  0.6492917260798876  1.0000
  C   C32       1.0  0.41020497725642713  0.2713095416297834  0.6492894425370679  1.0000
  C   C33       1.0  0.9051516492443524  0.7683195145639273  0.473202889274404  1.0000
  C   C34       1.0  0.594856418882145  0.7316868971714641  0.47320425453293075  1.0000
  C   C35       1.0  0.09484383723089002  0.2316842824393532  0.5267964572476274  1.0000
  C   C36       1.0  0.40514029828058556  0.2683140069554568  0.5267950919999151  1.0000
  N   N1        1.0  0.7500017698204856  0.750000999865243  0.5336344741293146  1.0000
  N   N2        1.0  0.2499921975778534  0.24999896292323595  0.4663657548774367  1.0000
  N   N3        1.0  0.7500034589037413  0.7499971971403453  0.9100975642244364  1.0000
  N   N4        1.0  0.2499999884686801  0.25000269677401127  0.08990266477254488  1.0000
  O   O1        1.0  0.9643664948750155  0.6144858705377488  0.7064068607369124  1.0000
  O   O2        1.0  0.5356444339244817  0.885517245006241  0.7064088270302947  1.0000
  O   O3        1.0  0.03563293086931199  0.38551501394574916  0.2935854260567581  1.0000
  O   O4        1.0  0.4643577003597059  0.11448361975094905  0.2935931668981056  1.0000
  O   O5        1.0  0.2546509173622837  0.5904396541453422  0.6522057060337261  1.0000
  O   O6        1.0  0.2453617972772761  0.9095761123148307  0.6522140853820346  1.0000
  O   O7        1.0  0.7453485495604467  0.4095621913112949  0.34779452295930474  1.0000
  O   O8        1.0  0.7546376696344695  0.09042573311999287  0.347790555946233  1.0000
  O   O9        1.0  0.9159537037021508  0.9255373283447099  0.719069010487786  1.0000
  O   O10       1.0  0.5840530992193249  0.5744656915370996  0.7190690692267693  1.0000
  O   O11       1.0  0.08404559843667408  0.07446067307978407  0.2809276886533425  1.0000
  O   O12       1.0  0.4159462441132789  0.4255332708910657  0.2809293948443781  1.0000
