data_image0
_chemical_formula_structural       Cu2H8C10Br2N14
_chemical_formula_sum              "Cu2 H8 C10 Br2 N14"
_cell_length_a       5.719462869978809
_cell_length_b       8.42096750792433
_cell_length_c       10.20174322111915
_cell_angle_alpha    81.13346541156119
_cell_angle_beta     74.46343374911544
_cell_angle_gamma    87.6048061893007

_space_group_name_H-M_alt    "P 1"
_space_group_IT_number       1

loop_
  _space_group_symop_operation_xyz
  'x, y, z'

loop_
  _atom_site_type_symbol
  _atom_site_label
  _atom_site_symmetry_multiplicity
  _atom_site_fract_x
  _atom_site_fract_y
  _atom_site_fract_z
  _atom_site_occupancy
  Cu  Cu1       1.0  0.7913238377768365  0.4717775346009318  0.43116891006370384  1.0000
  Cu  Cu2       1.0  0.20868577250331546  0.5282176244093999  0.5688258814804426  1.0000
  H   H1        1.0  0.05570955405467259  0.21776509364200786  0.998439154535532  1.0000
  H   H2        1.0  0.9442945319581426  0.7822372387772486  0.0015643829814563771  1.0000
  H   H3        1.0  0.7053476992274667  0.02231287714315759  0.058953533934541696  1.0000
  H   H4        1.0  0.2946510155793689  0.9776942992827452  0.9410443118361013  1.0000
  H   H5        1.0  0.3997613720654697  0.013861005628697902  0.2885403530595028  1.0000
  H   H6        1.0  0.6002355175188896  0.986146168118857  0.7114587416608911  1.0000
  H   H7        1.0  0.45613415964170667  0.2002531275227638  0.44793279827813837  1.0000
  H   H8        1.0  0.5438627283314119  0.7997480418689376  0.5520660601504087  1.0000
  C   C1        1.0  0.9277806180028562  0.3096038609874937  0.19039041701790888  1.0000
  C   C2        1.0  0.07222167437087988  0.6903984836178053  0.8096114222154396  1.0000
  C   C3        1.0  0.9169036490224015  0.20884760223000848  0.0960002148093579  1.0000
  C   C4        1.0  0.0830986514513299  0.7911535454679564  0.9040007912367256  1.0000
  C   C5        1.0  0.7238771358070365  0.10133351412807907  0.1307035586228408  1.0000
  C   C6        1.0  0.27612155308857916  0.8986712486639657  0.869296550417772  1.0000
  C   C7        1.0  0.5539257084466057  0.09557401146356166  0.2582641765302326  1.0000
  C   C8        1.0  0.44607115279872994  0.9044295467880016  0.7417373306839818  1.0000
  C   C9        1.0  0.5810158626219675  0.1988929834064236  0.3468221567543779  1.0000
  C   C10       1.0  0.41898100429554574  0.8011081760756794  0.6531786664964297  1.0000
  Br  Br1       1.0  0.17665188113686975  0.46601463926697306  0.14746159692450783  1.0000
  Br  Br2       1.0  0.8233449857806432  0.5339865202151229  0.8525392263262925  1.0000
  N   N1        1.0  0.7642986554118635  0.30610594710688577  0.31257322439800095  1.0000
  N   N2        1.0  0.23570002701687534  0.6938904076050462  0.6874269467984887  1.0000
  N   N3        1.0  0.036030411509670984  0.3488941284435327  0.5176644603247664  1.0000
  N   N4        1.0  0.9639719772473755  0.6510986557675195  0.48232776617704315  1.0000
  N   N5        1.0  0.014031188381046904  0.21114478923320945  0.5765996922236379  1.0000
  N   N6        1.0  0.9859565880684398  0.788847968596208  0.42340350828724366  1.0000
  N   N7        1.0  0.9979993655592807  0.07914585498511427  0.6314389322800833  1.0000
  N   N8        1.0  0.0019828939062947006  0.9208576818396209  0.36857256653207304  1.0000
  N   N9        1.0  0.5447947703056356  0.6213675885839435  0.37831312411168466  1.0000
  N   N10       1.0  0.4552129467296309  0.37862513429498523  0.6216891092966745  1.0000
  N   N11       1.0  0.5436119932310176  0.6717112364016627  0.261102762763194  1.0000
  N   N12       1.0  0.456397621904756  0.3282863263329289  0.738891730333229  1.0000
  N   N13       1.0  0.5333463745015478  0.7236024080545321  0.14975021972634284  1.0000
  N   N14       1.0  0.46666495572308253  0.276392704086163  0.8502531469793194  1.0000
