data_image0
_chemical_formula_structural       Zn6H51C80BrO24
_chemical_formula_sum              "Zn6 H51 C80 Br1 O24"
_cell_length_a       18.220346587475944
_cell_length_b       18.581408214751104
_cell_length_c       18.897173823681126
_cell_angle_alpha    110.31170746114823
_cell_angle_beta     109.0699391003545
_cell_angle_gamma    108.6679083835943

_space_group_name_H-M_alt    "P 1"
_space_group_IT_number       1

loop_
  _space_group_symop_operation_xyz
  'x, y, z'

loop_
  _atom_site_type_symbol
  _atom_site_label
  _atom_site_symmetry_multiplicity
  _atom_site_fract_x
  _atom_site_fract_y
  _atom_site_fract_z
  _atom_site_occupancy
  Zn  Zn1       1.0  0.5657065336896212  0.4976648940197066  0.5697671962436602  1.0000
  Zn  Zn2       1.0  0.43820655810160497  0.49827646397800857  0.44601839864211  1.0000
  Zn  Zn3       1.0  0.5691754030830368  0.06768788256502492  0.011918965976391943  1.0000
  Zn  Zn4       1.0  0.43440845964352787  0.9424243577717416  0.0026661751210425365  1.0000
  Zn  Zn5       1.0  0.005314947648315608  0.05475548179619241  0.5575111108009025  1.0000
  Zn  Zn6       1.0  0.0006252414509120773  0.9241590544744797  0.4313879127272032  1.0000
  H   H1        1.0  0.4240112317486293  0.223934937547817  0.0918517596989901  1.0000
  H   H2        1.0  0.6142007484201882  0.7567320043464888  0.7436327808992758  1.0000
  H   H3        1.0  0.24314326301912106  0.2836851174799122  0.39611326222042464  1.0000
  H   H4        1.0  0.294265210158308  0.1430182943029052  0.5736214914549933  1.0000
  H   H5        1.0  0.42161907276397403  0.2752276645275487  0.6042270768754605  1.0000
  H   H6        1.0  0.6437635281565406  0.8873924285247482  0.1317490337174759  1.0000
  H   H7        1.0  0.7560126815082739  0.882989854366116  0.2475886969395377  1.0000
  H   H8        1.0  0.8785240043402993  0.1629763084892986  0.41061002257075074  1.0000
  H   H9        1.0  0.7756073548454978  0.16935343526236582  0.2894816192968933  1.0000
  H   H10       1.0  0.29801902824667076  0.0795842245774239  0.9088938343541386  1.0000
  H   H11       1.0  0.5933746083560152  0.2142295272452799  0.2604099475358623  1.0000
  H   H12       1.0  0.3239419252280343  0.23407579287768246  0.22346289994104043  1.0000
  H   H13       1.0  0.17786885176562356  0.0807939003121518  0.7984964556362116  1.0000
  H   H14       1.0  0.5168307958107478  0.14604680996161787  0.2780308628834902  1.0000
  H   H15       1.0  0.36365423019891113  0.2014095009974568  0.29808542836943275  1.0000
  H   H16       1.0  0.36295664662663546  0.08762675900217691  0.19705955080258525  1.0000
  H   H17       1.0  0.4226875965879985  0.3345470548954522  0.1988781102211661  1.0000
  H   H18       1.0  0.5395456069117587  0.3829991304114131  0.25855915504937604  1.0000
  H   H19       1.0  0.5383523344307195  0.26593569451268456  0.1582075995005355  1.0000
  H   H20       1.0  0.44025395499627973  0.1525270488516171  0.3571600805147385  1.0000
  H   H21       1.0  0.47276545699133987  0.14427390743338006  0.49035047990354735  1.0000
  H   H22       1.0  0.6144997425881088  0.25929761813961255  0.6277952512379343  1.0000
  H   H23       1.0  0.6121569875827005  0.6844404050805223  0.4285337081929653  1.0000
  H   H24       1.0  0.7230504158561288  0.38381729515689494  0.629746337384134  1.0000
  H   H25       1.0  0.6879862589924176  0.3943859529600076  0.4966531072901931  1.0000
  H   H26       1.0  0.24795317247451723  0.9644233437716281  0.07298585842416112  1.0000
  H   H27       1.0  0.10805608928899349  0.8894154046852591  0.9342284340203334  1.0000
  H   H28       1.0  0.06379677503031192  0.976818369133909  0.8712985079516997  1.0000
  H   H29       1.0  0.1588260373149311  0.13982806919127458  0.9518001941424572  1.0000
  H   H30       1.0  0.2955302035269369  0.21430380809361083  0.09173811764269155  1.0000
  H   H31       1.0  0.9778713484546557  0.7492753494038739  0.48996854926079453  1.0000
  H   H32       1.0  0.13598126368673746  0.7902721847172102  0.5702159889666802  1.0000
  H   H33       1.0  0.20918265203359707  0.8450607492319547  0.7297182463628218  1.0000
  H   H34       1.0  0.722956580685036  0.7866111111884491  0.4109156554013751  1.0000
  H   H35       1.0  0.12255296648950786  0.8583836233095924  0.8062007993612781  1.0000
  H   H36       1.0  0.9638657122263937  0.8180441695927386  0.7257212869284971  1.0000
  H   H37       1.0  0.09772181656475003  0.2684619026985828  0.3868099943252119  1.0000
  H   H38       1.0  0.949168801302946  0.21260102211324747  0.26482581275782746  1.0000
  H   H39       1.0  0.858674688349609  0.0542498804539875  0.15104641890503964  1.0000
  H   H40       1.0  0.9184260745700642  0.9520904107931681  0.1589641482645161  1.0000
  H   H41       1.0  0.06669969982087312  0.0079749172254324  0.280571894203355  1.0000
  H   H42       1.0  0.49358871995104897  0.126753978334591  0.7503291502912646  1.0000
  H   H43       1.0  0.5988420958909728  0.08676199076241178  0.712223268067689  1.0000
  H   H44       1.0  0.5745632494627345  0.9337609726246328  0.6629742873822764  1.0000
  H   H45       1.0  0.8224816550576936  0.6753709182513461  0.6071361619964507  1.0000
  H   H46       1.0  0.4455257284647801  0.8220512272723326  0.6535221401894944  1.0000
  H   H47       1.0  0.3410390662276725  0.8627214946833133  0.6919329039744895  1.0000
  H   H48       1.0  0.32807176447877856  0.6108950299244142  0.616569398533784  1.0000
  H   H49       1.0  0.33140332071581474  0.7154436459647117  0.7459803188028219  1.0000
  H   H50       1.0  0.6156348779191562  0.8690433840372408  0.8658485793395557  1.0000
  H   H51       1.0  0.6052617788988641  0.3399438822971703  0.3551551703950367  1.0000
  C   C1        1.0  0.642922308870105  0.6129973228190481  0.5280861304628175  1.0000
  C   C2        1.0  0.7110470155051231  0.6746037258181729  0.5196823906705745  1.0000
  C   C3        1.0  0.390997157364538  0.6665105639015465  0.6722210039443439  1.0000
  C   C4        1.0  0.47100092993547094  0.3782415138489128  0.3637999557631417  1.0000
  C   C5        1.0  0.39271748697301223  0.7249066990242169  0.7439396690662717  1.0000
  C   C6        1.0  0.4738992042637662  0.7978107342180109  0.8135962209770681  1.0000
  C   C7        1.0  0.5534655102258768  0.810854736972388  0.8121670927230157  1.0000
  C   C8        1.0  0.5524070221698949  0.7494922680025269  0.7435630484930799  1.0000
  C   C9        1.0  0.4710105492860493  0.6776345628949375  0.6728018769837618  1.0000
  C   C10       1.0  0.2535598134705949  0.25199083074269873  0.4344586348960533  1.0000
  C   C11       1.0  0.1817773726652874  0.1765434568570612  0.41439356117998477  1.0000
  C   C12       1.0  0.45484845480535807  0.16790603839384494  0.17391396585932742  1.0000
  C   C13       1.0  0.19795552100931962  0.13842565570379153  0.4665814677398431  1.0000
  C   C14       1.0  0.2838830746576236  0.173394873283705  0.5338914554711993  1.0000
  C   C15       1.0  0.3547974399935327  0.24763884475704148  0.5518002536259844  1.0000
  C   C16       1.0  0.4103664188329006  0.3704536650244137  0.5209156622298465  1.0000
  C   C17       1.0  0.33913621798432564  0.28835733805017594  0.502891719310199  1.0000
  C   C18       1.0  0.6380824700107726  0.029312446493669597  0.13214972233756586  1.0000
  C   C19       1.0  0.4596145793442404  0.09506108330072749  0.10979069904858822  1.0000
  C   C20       1.0  0.4202058200700948  0.0371547713231593  0.8914233434353279  1.0000
  C   C21       1.0  0.47750055031903577  0.8647698262105266  0.8883519547036655  1.0000
  C   C22       1.0  0.1333680496387188  0.028499826263441694  0.634782418523173  1.0000
  C   C23       1.0  0.36689903759256737  0.1377521586228525  0.17796105472522333  1.0000
  C   C24       1.0  0.8962195340840395  0.8537152817333578  0.4875276429358023  1.0000
  C   C25       1.0  0.8871366536807844  0.0169698431466188  0.4039919219328426  1.0000
  C   C26       1.0  0.1218940139297047  0.0696875753993496  0.46124812198129217  1.0000
  C   C27       1.0  0.6967562005230832  0.9475593174034599  0.1921742451778527  1.0000
  C   C28       1.0  0.47295245764463095  0.6112742288115101  0.6019307640894881  1.0000
  C   C29       1.0  0.7580039235439459  0.9449545736246705  0.2568817203119734  1.0000
  C   C30       1.0  0.8227720892553094  0.022507245335887698  0.3360714323714974  1.0000
  C   C31       1.0  0.8278465031988986  0.10323800293462429  0.34884197633481057  1.0000
  C   C32       1.0  0.7702865267456501  0.10663391137769201  0.28166732304379855  1.0000
  C   C33       1.0  0.7037921678669435  0.0287200654065103  0.2037964564595854  1.0000
  C   C34       1.0  0.4743691020196509  0.24551221564506423  0.15717576515721998  1.0000
  C   C35       1.0  0.29269367428528165  0.0642999035863099  0.8456906177139771  1.0000
  C   C36       1.0  0.22539723325913744  0.0641619177632649  0.7841995203677072  1.0000
  C   C37       1.0  0.21397058835247407  0.03814841655366049  0.7005216455503813  1.0000
  C   C38       1.0  0.2751308947996449  0.0166779789280227  0.6813054211788059  1.0000
  C   C39       1.0  0.34664890177326413  0.020715966075975697  0.7439741470119543  1.0000
  C   C40       1.0  0.5445041416305401  0.28274287734321046  0.3365541784717437  1.0000
  C   C41       1.0  0.35305163743885976  0.042946532975968  0.8256395094998652  1.0000
  C   C42       1.0  0.5315678770555722  0.1997804694268055  0.2636328657479581  1.0000
  C   C43       1.0  0.3751844804860839  0.21784630188488316  0.250847989396739  1.0000
  C   C44       1.0  0.4767445036720588  0.3217101608873989  0.22704632190787774  1.0000
  C   C45       1.0  0.6825426046579465  0.7050247938422415  0.46336584712844336  1.0000
  C   C46       1.0  0.46686152968522526  0.3000607551329749  0.2966216975812729  1.0000
  C   C47       1.0  0.5609813319954782  0.27551962057253115  0.41737686271714136  1.0000
  C   C48       1.0  0.5017184029004511  0.20493697988766973  0.41696592699670293  1.0000
  C   C49       1.0  0.5203756704086828  0.19942978778763626  0.49218543414823296  1.0000
  C   C50       1.0  0.5996555834451555  0.2637354672438974  0.5691653580907925  1.0000
  C   C51       1.0  0.6603073273964526  0.33355893359752997  0.5702396109473185  1.0000
  C   C52       1.0  0.6408936434944864  0.3390825041451037  0.49516674370629943  1.0000
  C   C53       1.0  0.2829206822521471  0.09438143479552961  0.09213171131735724  1.0000
  C   C54       1.0  0.2282007420816896  0.0027913803290929  0.04623481373193532  1.0000
  C   C55       1.0  0.14980900489827323  0.9606667566974564  0.9677873793844256  1.0000
  C   C56       1.0  0.744287424200195  0.7612021006293547  0.45317450012249355  1.0000
  C   C57       1.0  0.12468814867028755  0.009462564605691202  0.9328503325908103  1.0000
  C   C58       1.0  0.17818153162044587  0.1007580688667318  0.9778070719391819  1.0000
  C   C59       1.0  0.25611029246002204  0.14270975782604012  0.05685542117110029  1.0000
  C   C60       1.0  0.9598486418766257  0.7812232364482982  0.6020937586748191  1.0000
  C   C61       1.0  0.009572441795057755  0.7734618750452852  0.559354829990852  1.0000
  C   C62       1.0  0.0985440143985201  0.795914379605719  0.604700945575857  1.0000
  C   C63       1.0  0.13934327090581902  0.8261743546206618  0.693501400521136  1.0000
  C   C64       1.0  0.09046417645878797  0.833556278502961  0.7366519812409109  1.0000
  C   C65       1.0  0.001510435702364541  0.8111765399208936  0.6915001334484643  1.0000
  C   C66       1.0  0.0921443697715389  0.14187816851264762  0.3423368445293278  1.0000
  C   C67       1.0  0.8346662717810248  0.7869755479947286  0.4978319774400859  1.0000
  C   C68       1.0  0.05838525955404351  0.1991104543560809  0.336427504916827  1.0000
  C   C69       1.0  0.9750402835055783  0.16771680079857992  0.26799792368112213  1.0000
  C   C70       1.0  0.92413396381982  0.0787399888400842  0.2040648348210611  1.0000
  C   C71       1.0  0.9572964496168058  0.021487847252323902  0.20896969910708685  1.0000
  C   C72       1.0  0.04057216786465289  0.0526395191176263  0.2774982763331266  1.0000
  C   C73       1.0  0.4107547682412048  0.9972545160489474  0.7232417940457551  1.0000
  C   C74       1.0  0.4835924924771007  0.060096478836854296  0.7290128179738745  1.0000
  C   C75       1.0  0.5423806960738276  0.0373666329754485  0.7076207708830468  1.0000
  C   C76       1.0  0.5288542333291988  0.951687499504793  0.6801923833679029  1.0000
  C   C77       1.0  0.45662300629097535  0.8889897123607539  0.6748442504770792  1.0000
  C   C78       1.0  0.8647967466378718  0.7563115066234118  0.5540784821859007  1.0000
  C   C79       1.0  0.3979019499323401  0.911782440551896  0.6965896359441786  1.0000
  C   C80       1.0  0.8013625697819649  0.7005125742703556  0.5645069874448013  1.0000
  Br  Br1       1.0  0.2663505234188577  0.9819069867648126  0.5699097647233415  1.0000
  O   O1        1.0  0.6693298454346607  0.5854737328821147  0.5803676260527839  1.0000
  O   O2        1.0  0.09537343316460309  0.9664803864522752  0.5576029192715097  1.0000
  O   O3        1.0  0.9193992579884807  0.9333006040184842  0.5354027959727788  1.0000
  O   O4        1.0  0.562271515911931  0.5912139831402143  0.48200200533948845  1.0000
  O   O5        1.0  0.9171616826924808  0.8252784672414962  0.42877606913209126  1.0000
  O   O6        1.0  0.9197855228407051  0.07398256317178209  0.4841848625870784  1.0000
  O   O7        1.0  0.9053491911621451  0.955469823104096  0.37804282289832275  1.0000
  O   O8        1.0  0.0926503057078065  0.0992993163654035  0.5102364294713553  1.0000
  O   O9        1.0  0.0922159312578259  0.9874186747290138  0.41070647959499235  1.0000
  O   O10       1.0  0.530540307086568  0.41552024545217847  0.4418772119634156  1.0000
  O   O11       1.0  0.41446387226525166  0.4038192542722285  0.338074953351267  1.0000
  O   O12       1.0  0.5570545104350372  0.9719440318771432  0.09613390355517717  1.0000
  O   O13       1.0  0.4919523317220253  0.400241989827066  0.576453220080083  1.0000
  O   O14       1.0  0.3858033214804308  0.40697702148144527  0.4792692375593505  1.0000
  O   O15       1.0  0.5313415952984856  0.5890023250084299  0.6266945416415483  1.0000
  O   O16       1.0  0.4171368513843561  0.5821505759970618  0.5228147571555938  1.0000
  O   O17       1.0  0.6681255549858135  0.0869045844604628  0.11110723989359879  1.0000
  O   O18       1.0  0.5184058911186327  0.1195127041389696  0.08859129831596849  1.0000
  O   O19       1.0  0.4088392931085068  0.0140723339746387  0.08402761411333874  1.0000
  O   O20       1.0  0.5035800175617453  0.08746648362173201  0.9225228318867168  1.0000
  O   O21       1.0  0.3877545325056246  0.9820772939421046  0.9125425279473234  1.0000
  O   O22       1.0  0.5402776331988334  0.9432423707428583  0.9266902104136889  1.0000
  O   O23       1.0  0.4172602479458475  0.8394036802694983  0.9092810230867555  1.0000
  O   O24       1.0  0.1055854596726107  0.0829803204378408  0.6612063071307475  1.0000
