data_image0
_chemical_formula_structural       Zn8H72C128N8O32
_chemical_formula_sum              "Zn8 H72 C128 N8 O32"
_cell_length_a       18.483870591216498
_cell_length_b       20.677596113203908
_cell_length_c       20.677562772485885
_cell_angle_alpha    71.81372277538108
_cell_angle_beta     63.45248280360503
_cell_angle_gamma    63.4526691799703

_space_group_name_H-M_alt    "P 1"
_space_group_IT_number       1

loop_
  _space_group_symop_operation_xyz
  'x, y, z'

loop_
  _atom_site_type_symbol
  _atom_site_label
  _atom_site_symmetry_multiplicity
  _atom_site_fract_x
  _atom_site_fract_y
  _atom_site_fract_z
  _atom_site_occupancy
  Zn  Zn1       1.0  0.9451325071719622  0.3685183626931375  0.730040814429884  1.0000
  Zn  Zn2       1.0  0.543668207125222  0.13154677197272951  0.7699584051604446  1.0000
  Zn  Zn3       1.0  0.4563275717893517  0.230044103787911  0.8684556641510994  1.0000
  Zn  Zn4       1.0  0.05486889038048298  0.2699582456354648  0.6314811392472848  1.0000
  Zn  Zn5       1.0  0.0548695330504642  0.6314800327981019  0.26995748957434523  1.0000
  Zn  Zn6       1.0  0.4563304746373618  0.8684538341427909  0.2300429566666224  1.0000
  Zn  Zn7       1.0  0.5436712539333328  0.7699575810380777  0.13154384557614654  1.0000
  Zn  Zn8       1.0  0.9451308667742636  0.7300412513630476  0.3685182110583725  1.0000
  H   H1        1.0  0.46399133973264384  0.9871308583204478  0.9871282462108583  1.0000
  H   H2        1.0  0.9380551504069243  0.5129746608169227  0.5129755879858349  1.0000
  H   H3        1.0  0.06194544140016229  0.4870242996824316  0.48702505012162334  1.0000
  H   H4        1.0  0.536007855510192  0.012871382019305598  0.012872389586931586  1.0000
  H   H5        1.0  0.10361991290064759  0.16080168998191613  0.997592408236926  1.0000
  H   H6        1.0  0.762041225716949  0.3390369719571922  0.5023287208731445  1.0000
  H   H7        1.0  0.23795733214544867  0.49767397584510314  0.6609600121353124  1.0000
  H   H8        1.0  0.8963799565383467  0.0024072978299614013  0.8391995577229991  1.0000
  H   H9        1.0  0.8963787711972838  0.8391989085303492  0.0024079878218971097  1.0000
  H   H10       1.0  0.23795838747768977  0.6609614463308517  0.4976724815323195  1.0000
  H   H11       1.0  0.7620400498325921  0.5023282587824908  0.3390399001586816  1.0000
  H   H12       1.0  0.10362016896887366  0.9975927584839469  0.16080140153731995  1.0000
  H   H13       1.0  0.26080659695907105  0.16101212559711803  0.7299481598865397  1.0000
  H   H14       1.0  0.6518017731150607  0.33904693340907943  0.7699323453473781  1.0000
  H   H15       1.0  0.34819838643420536  0.2300674927319762  0.6609530421074579  1.0000
  H   H16       1.0  0.7391935711727483  0.27005263062100227  0.8389868030555971  1.0000
  H   H17       1.0  0.7391933915940924  0.838986829196557  0.2700517541688683  1.0000
  H   H18       1.0  0.3481976110165022  0.6609520194805396  0.23006732754009815  1.0000
  H   H19       1.0  0.6518015041715796  0.7699331171916484  0.3390488020554656  1.0000
  H   H20       1.0  0.2608060892022833  0.7299485177058357  0.16101399447345688  1.0000
  H   H21       1.0  0.027186851404451307  0.23937413868689103  0.9113534133886814  1.0000
  H   H22       1.0  0.6779041579913069  0.26051318040849464  0.5886809883651836  1.0000
  H   H23       1.0  0.32209421463435467  0.4113189491676578  0.739484193520454  1.0000
  H   H24       1.0  0.9728134771836847  0.08864638247725759  0.7606255026118092  1.0000
  H   H25       1.0  0.972813510171889  0.7606253602156768  0.08864617808490047  1.0000
  H   H26       1.0  0.3220954598740278  0.7394852226730392  0.4113182825038064  1.0000
  H   H27       1.0  0.6779037729329641  0.5886832835623679  0.2605154770573461  1.0000
  H   H28       1.0  0.027186649491213192  0.9113536700350193  0.23937497376438438  1.0000
  H   H29       1.0  0.3393184385037954  0.08526751467145027  0.8150097776014533  1.0000
  H   H30       1.0  0.7397374763131167  0.41468811782381465  0.6848069124017968  1.0000
  H   H31       1.0  0.26026238023438  0.3151933564259579  0.5853107376025903  1.0000
  H   H32       1.0  0.6606823622562529  0.18499114129660646  0.9147318300803774  1.0000
  H   H33       1.0  0.6606815477140198  0.9147314477254794  0.18499110222219176  1.0000
  H   H34       1.0  0.2602612998938269  0.5853108445666348  0.31519396797011023  1.0000
  H   H35       1.0  0.7397377441051699  0.6848067036895813  0.41469070454184714  1.0000
  H   H36       1.0  0.3393177644186451  0.8150089112156705  0.08526864629581613  1.0000
  H   H37       1.0  0.1660887342924227  0.024132874589447798  0.024130502071763284  1.0000
  H   H38       1.0  0.7145933749315458  0.47560774482208495  0.4756088733141723  1.0000
  H   H39       1.0  0.2854060080323464  0.5243912118691653  0.5243912824574224  1.0000
  H   H40       1.0  0.8339117654056522  0.9758677220317222  0.9758696517226112  1.0000
  H   H41       1.0  0.9081720301460479  0.36749863320965653  0.8844064653346563  1.0000
  H   H42       1.0  0.6600263897620521  0.1325506424173639  0.6157102712345548  1.0000
  H   H43       1.0  0.3399740378839906  0.384289101509779  0.8674472084414758  1.0000
  H   H44       1.0  0.0918289828029941  0.11559292011046544  0.6325017729024296  1.0000
  H   H45       1.0  0.09182870328579898  0.6325014136034212  0.11559328644122502  1.0000
  H   H46       1.0  0.3399738301895354  0.8674477701714804  0.38429020657060425  1.0000
  H   H47       1.0  0.6600269327846461  0.6157103840903275  0.13255069266355693  1.0000
  H   H48       1.0  0.9081726797255597  0.8844049464783977  0.36749878522010704  1.0000
  H   H49       1.0  0.7271150868689203  0.6156377089330076  0.8126625182478122  1.0000
  H   H50       1.0  0.6551864463402877  0.8844646080417036  0.6873346942395671  1.0000
  H   H51       1.0  0.34481432153610575  0.3126671140558556  0.11553251946682502  1.0000
  H   H52       1.0  0.2728850214239316  0.18733695779291537  0.38436215366525056  1.0000
  H   H53       1.0  0.2728867254581075  0.3843612173581831  0.18733377335429682  1.0000
  H   H54       1.0  0.34481414429912854  0.11553435625928189  0.3126664267520169  1.0000
  H   H55       1.0  0.6551858109771657  0.6873329194482948  0.8844655424887689  1.0000
  H   H56       1.0  0.7271149659615617  0.8126620008023904  0.615638243274276  1.0000
  H   H57       1.0  0.818259504218872  0.4516455136948707  0.9778477722819758  1.0000
  H   H58       1.0  0.7477226945315177  0.04840958697576529  0.5222475894593473  1.0000
  H   H59       1.0  0.2522773794843474  0.4777541488406312  0.951588486321519  1.0000
  H   H60       1.0  0.18174169134668008  0.0221508074668435  0.5483548829355412  1.0000
  H   H61       1.0  0.18173992709309053  0.5483561692335427  0.02215149572908363  1.0000
  H   H62       1.0  0.25227692099846893  0.9515888237090163  0.4777526471778799  1.0000
  H   H63       1.0  0.7477232630061577  0.5222475302926313  0.048410298257159985  1.0000
  H   H64       1.0  0.8182608093372392  0.9778465112179759  0.45164551433643396  1.0000
  H   H65       1.0  0.8200098853113431  0.5227790259885976  0.7276298290350098  1.0000
  H   H66       1.0  0.5702782338940227  0.9772909952753606  0.772422223057795  1.0000
  H   H67       1.0  0.42972301719579764  0.22757769911540032  0.022706786996899094  1.0000
  H   H68       1.0  0.1799918679273773  0.27236860902421967  0.4772198850587158  1.0000
  H   H69       1.0  0.17999420658035337  0.47721881020020623  0.2723668649180411  1.0000
  H   H70       1.0  0.4297219860575652  0.022707417313476697  0.22757825474735682  1.0000
  H   H71       1.0  0.5702781837035857  0.7724212480814996  0.9772921607420101  1.0000
  H   H72       1.0  0.8200085857579823  0.7276292537565325  0.5227801907279569  1.0000
  C   C1        1.0  0.4040898502973391  0.10180888126650697  0.8990072440016661  1.0000
  C   C2        1.0  0.9048573826229995  0.3981965409405531  0.600971228604962  1.0000
  C   C3        1.0  0.09514373505547265  0.39902675729268816  0.6018019801094282  1.0000
  C   C4        1.0  0.5959025647271472  0.10099849538300988  0.8982016401738873  1.0000
  C   C5        1.0  0.5959057987645978  0.8981988533460377  0.10099692964514868  1.0000
  C   C6        1.0  0.09514423856353472  0.6017985766013749  0.3990273199733849  1.0000
  C   C7        1.0  0.9048619964756311  0.6009672188346045  0.3981904510618364  1.0000
  C   C8        1.0  0.40409490585688684  0.8990021145276544  0.10180020508555292  1.0000
  C   C9        1.0  0.3554546943547407  0.053482339457986  0.9528961867472389  1.0000
  C   C10       1.0  0.8617850496025595  0.4465058103256394  0.5470753235672063  1.0000
  C   C11       1.0  0.1382142589727593  0.45292486517873687  0.5534942631420563  1.0000
  C   C12       1.0  0.6445430986966086  0.0471078717179196  0.9465228455722043  1.0000
  C   C13       1.0  0.6445433310515722  0.9465226537238463  0.04710694202711358  1.0000
  C   C14       1.0  0.13821302540306848  0.5534948014890801  0.4529267628601659  1.0000
  C   C15       1.0  0.861787872191016  0.5470718979923176  0.44650500805937543  1.0000
  C   C16       1.0  0.35545693703694803  0.952893813114549  0.053476663606787204  1.0000
  C   C17       1.0  0.39724832908233737  0.9968022194117339  0.9968004684672424  1.0000
  C   C18       1.0  0.8907263373876971  0.5032438692162771  0.5032438796345957  1.0000
  C   C19       1.0  0.10927402302097272  0.49675563348791485  0.4967561947231117  1.0000
  C   C20       1.0  0.6027489549483178  0.0032016703458168996  0.0032013739342743844  1.0000
  C   C21       1.0  0.13834858213658663  0.16101643928359266  0.9388006814252066  1.0000
  C   C22       1.0  0.7381984839942746  0.33887467868457577  0.5611053276205877  1.0000
  C   C23       1.0  0.2617989193796291  0.4388958023455841  0.6611220997247428  1.0000
  C   C24       1.0  0.8616509672090158  0.06120026975479219  0.8389853287553988  1.0000
  C   C25       1.0  0.8616507063829386  0.8389841611327284  0.06119995580154843  1.0000
  C   C26       1.0  0.2617996877910683  0.6611242818018254  0.4388953115833872  1.0000
  C   C27       1.0  0.7381990693553603  0.5611064265828174  0.3388770879689459  1.0000
  C   C28       1.0  0.1383492999229643  0.9388008728728395  0.1610147441733432  1.0000
  C   C29       1.0  0.09108817151302157  0.24860853944448993  0.764277646592646  1.0000
  C   C30       1.0  0.6039112099904145  0.2514678728456302  0.735692909972876  1.0000
  C   C31       1.0  0.3960812168977554  0.26432310192856073  0.7485369599891741  1.0000
  C   C32       1.0  0.9089141966029503  0.23572178891964768  0.751390552600604  1.0000
  C   C33       1.0  0.9089144719633352  0.751389861752436  0.23572138146364077  1.0000
  C   C34       1.0  0.396086159143209  0.7485344035998621  0.2643123140464497  1.0000
  C   C35       1.0  0.6039146670656307  0.7356840790742678  0.2514663287550363  1.0000
  C   C36       1.0  0.09108905012733  0.7642766179829505  0.24860919950773316  1.0000
  C   C37       1.0  0.7636148227244915  0.5427188551341048  0.9042480216751299  1.0000
  C   C38       1.0  0.7104527955388135  0.9573541846896916  0.5958147586054421  1.0000
  C   C39       1.0  0.28954871912826247  0.4041871725071004  0.04264152755272477  1.0000
  C   C40       1.0  0.23638632599799073  0.0957512486210845  0.4572809398117741  1.0000
  C   C41       1.0  0.23638698376416303  0.4572800901652269  0.09575068434758553  1.0000
  C   C42       1.0  0.28954909955583474  0.04264313589270329  0.4041858803827266  1.0000
  C   C43       1.0  0.7104521594313623  0.595813949214829  0.9573558892392168  1.0000
  C   C44       1.0  0.7636144995428676  0.9042471620701847  0.542719296277191  1.0000
  C   C45       1.0  0.13909774356766744  0.20474200386603764  0.8152011149743785  1.0000
  C   C46       1.0  0.6590442408496529  0.29526237407102934  0.684737581182425  1.0000
  C   C47       1.0  0.3409520525200022  0.3152623962142158  0.704737382025307  1.0000
  C   C48       1.0  0.8609034712108538  0.18479850499991807  0.7952576126805864  1.0000
  C   C49       1.0  0.8609027584657553  0.7952585851518776  0.18479807305175183  1.0000
  C   C50       1.0  0.34095239975273006  0.7047387571322827  0.31526104473872624  1.0000
  C   C51       1.0  0.6590459327119689  0.6847398441190649  0.2952632543207443  1.0000
  C   C52       1.0  0.13909619149952587  0.8152026357236578  0.2047422190802236  1.0000
  C   C53       1.0  0.22723558037765912  0.1613847366242354  0.7886331634579306  1.0000
  C   C54       1.0  0.6773127015361877  0.3386207932723053  0.7112618262739617  1.0000
  C   C55       1.0  0.3226845502734576  0.2887404165627813  0.6613804458870829  1.0000
  C   C56       1.0  0.7727660790833609  0.21136709245358523  0.8386144300063092  1.0000
  C   C57       1.0  0.772764780031011  0.8386147660799563  0.2113669108997768  1.0000
  C   C58       1.0  0.32268393322782146  0.6613803569391409  0.2887392140677961  1.0000
  C   C59       1.0  0.677314502176948  0.7112607412648799  0.3386215591263947  1.0000
  C   C60       1.0  0.22723404875921457  0.788632956257068  0.1613855634857656  1.0000
  C   C61       1.0  0.09553257343947757  0.205058056911156  0.890807356032191  1.0000
  C   C62       1.0  0.6914036939839149  0.2948748062373667  0.6091561994415284  1.0000
  C   C63       1.0  0.30859348246345064  0.39084704868182724  0.7051243052346621  1.0000
  C   C64       1.0  0.9044676295987627  0.10919210407364228  0.794942330320147  1.0000
  C   C65       1.0  0.9044675544030907  0.7949419917994972  0.1091926374598842  1.0000
  C   C66       1.0  0.3085931721785187  0.7051258017692418  0.39084540464997986  1.0000
  C   C67       1.0  0.6914051071901142  0.6091551935555015  0.2948765722793142  1.0000
  C   C68       1.0  0.09553249824380552  0.8908079446370111  0.20505766317192806  1.0000
  C   C69       1.0  0.2265157408176108  0.11679936165077008  0.9124489360703051  1.0000
  C   C70       1.0  0.7558610520449561  0.3830929070899742  0.5874138692374159  1.0000
  C   C71       1.0  0.24413847274976055  0.4125873605564791  0.6169058019452506  1.0000
  C   C72       1.0  0.7734847158569947  0.0875515060910317  0.8832025368632087  1.0000
  C   C73       1.0  0.7734836869913265  0.8832023326825222  0.08755178059311665  1.0000
  C   C74       1.0  0.2441380960174867  0.6169066032109852  0.41258717143679036  1.0000
  C   C75       1.0  0.7558608146020945  0.5874132436614586  0.3830953181656227  1.0000
  C   C76       1.0  0.22651601757484505  0.9124485407220528  0.1167972149126797  1.0000
  C   C77       1.0  0.2703465144659845  0.06466557264238298  0.9630564097877181  1.0000
  C   C78       1.0  0.7981804457028687  0.43519780419733667  0.5367883926723351  1.0000
  C   C79       1.0  0.2018182456189591  0.4632121144311371  0.5648010821258893  1.0000
  C   C80       1.0  0.7296510705279003  0.036945901495563815  0.9353375835679997  1.0000
  C   C81       1.0  0.7296518402861305  0.9353372232046625  0.036945352628869485  1.0000
  C   C82       1.0  0.2018180979379735  0.5648017041995814  0.46321240683393927  1.0000
  C   C83       1.0  0.7981811373449329  0.5367868422601133  0.4351990736457052  1.0000
  C   C84       1.0  0.27034821915930235  0.9630546951191264  0.06466257077462967  1.0000
  C   C85       1.0  0.27075018459474626  0.11888631872384536  0.8364894185435856  1.0000
  C   C86       1.0  0.7262395523202868  0.38105515756222985  0.6633580295764715  1.0000
  C   C87       1.0  0.2737600488733776  0.3366413076718473  0.6189435700602033  1.0000
  C   C88       1.0  0.7292503467263528  0.16351179144272973  0.8811143963211163  1.0000
  C   C89       1.0  0.72924873206928  0.8811137337819586  0.16351105838086266  1.0000
  C   C90       1.0  0.2737592273896752  0.6189437934233409  0.3366414021430727  1.0000
  C   C91       1.0  0.7262392373107998  0.6633593003477215  0.3810580329347887  1.0000
  C   C92       1.0  0.27074992157330513  0.8364893473832706  0.1188851937234999  1.0000
  C   C93       1.0  0.22980757467461635  0.0189222654130745  0.01892170909827941  1.0000
  C   C94       1.0  0.7678465085646874  0.4808612981554674  0.48086281517547064  1.0000
  C   C95       1.0  0.2321526394977553  0.519138212145499  0.5191382254987289  1.0000
  C   C96       1.0  0.7701926924573643  0.9810788772145568  0.9810783638304627  1.0000
  C   C97       1.0  0.8660152771596329  0.42312492892945386  0.8719851037607993  1.0000
  C   C98       1.0  0.6610123415762104  0.076940048350572  0.6280896707552158  1.0000
  C   C99       1.0  0.338988417802561  0.3719118931757777  0.9230570002778221  1.0000
  C   C100      1.0  0.13398595904183003  0.12801409037164999  0.5768745747216215  1.0000
  C   C101      1.0  0.13398531581513143  0.5768740277682765  0.1280150514625333  1.0000
  C   C102      1.0  0.338987879543048  0.923058360436641  0.3719103241658246  1.0000
  C   C103      1.0  0.6610134370341638  0.6280897783607171  0.07694081798435808  1.0000
  C   C104      1.0  0.8660148676666991  0.8719843165179951  0.42312517848322534  1.0000
  C   C105      1.0  0.7653922206954533  0.561464323894114  0.832230900884774  1.0000
  C   C106      1.0  0.6588778015503961  0.9386428710180325  0.6677828641205464  1.0000
  C   C107      1.0  0.3411245850390685  0.33221824707295866  0.06135483793483588  1.0000
  C   C108      1.0  0.2346091745293107  0.16776846470930448  0.4385348013677514  1.0000
  C   C109      1.0  0.23460912649938592  0.43853569440999945  0.16776522898607035  1.0000
  C   C110      1.0  0.34112362607671537  0.06135554918053999  0.33221857890459455  1.0000
  C   C111      1.0  0.65887759447277  0.6677812423352592  0.9386435455060608  1.0000
  C   C112      1.0  0.7653922577684967  0.8322299402827581  0.5614647101209016  1.0000
  C   C113      1.0  0.8156285557196267  0.4711191235552263  0.9233344765043512  1.0000
  C   C114      1.0  0.7099899923698699  0.02896431540007429  0.5767261113595624  1.0000
  C   C115      1.0  0.29001108734228603  0.42327531353074477  0.9710344139887539  1.0000
  C   C116      1.0  0.18437261517671996  0.0766642232118144  0.528881218869209  1.0000
  C   C117      1.0  0.18437148585230276  0.5288825422691089  0.0766626182540335  1.0000
  C   C118      1.0  0.29001059826954634  0.9710346489009113  0.42327500963202164  1.0000
  C   C119      1.0  0.7099908596034509  0.5767247218839342  0.02896388858651028  1.0000
  C   C120      1.0  0.8156284440979102  0.9233336376713623  0.4711186152012701  1.0000
  C   C121      1.0  0.8171214820955655  0.5104131952343492  0.7838537393018254  1.0000
  C   C122      1.0  0.6112094039515764  0.9896598320291048  0.7161898454912431  1.0000
  C   C123      1.0  0.3887913851663072  0.28381228154821503  0.010337039776096913  1.0000
  C   C124      1.0  0.18287954862589123  0.21614514455494313  0.48958682008149873  1.0000
  C   C125      1.0  0.18288032439308916  0.48958575006498256  0.2161449667208898  1.0000
  C   C126      1.0  0.38879081600001086  0.010338580559732696  0.28381063231391573  1.0000
  C   C127      1.0  0.6112094922256472  0.716188843975338  0.9896608598999705  1.0000
  C   C128      1.0  0.8171206713256962  0.7838532680338941  0.5104136577236603  1.0000
  N   N1        1.0  0.8668637021145854  0.4424112802062794  0.8033337215298886  1.0000
  N   N2        1.0  0.6124960198961986  0.0576536323535066  0.6967174207925665  1.0000
  N   N3        1.0  0.38750338728748807  0.3032836551074992  0.9423468772101699  1.0000
  N   N4        1.0  0.13313786084906096  0.1966646502151761  0.5575885925940226  1.0000
  N   N5        1.0  0.13313741017881134  0.5575892917075577  0.19666329324357434  1.0000
  N   N6        1.0  0.3875031293339218  0.9423458741458357  0.30328313699751425  1.0000
  N   N7        1.0  0.6124979505659596  0.696716393609634  0.05765311573365031  1.0000
  N   N8        1.0  0.8668628254023859  0.8033326665591075  0.4424115640582825  1.0000
  O   O1        1.0  0.47367451677023104  0.07105161800600258  0.8483451624564677  1.0000
  O   O2        1.0  0.8928364144525103  0.42894193778545997  0.6517272362971768  1.0000
  O   O3        1.0  0.10716599603828299  0.3482709710473059  0.5710564114535686  1.0000
  O   O4        1.0  0.5263197648724967  0.15165381256095145  0.9289574441799076  1.0000
  O   O5        1.0  0.5263213695285031  0.9289555553935714  0.15165716051949837  1.0000
  O   O6        1.0  0.10716379966070379  0.5710564938115181  0.34827565592858184  1.0000
  O   O7        1.0  0.8928356816700355  0.651726846120404  0.4289378691753925  1.0000
  O   O8        1.0  0.4736806923158807  0.8483440388149218  0.07104118295439577  1.0000
  O   O9        1.0  0.37567149679591677  0.16714419823236423  0.9099075884617277  1.0000
  O   O10       1.0  0.9528651892704686  0.3329251077121213  0.5899698804620925  1.0000
  O   O11       1.0  0.04713584696933993  0.41002813529937027  0.6670740289797479  1.0000
  O   O12       1.0  0.6243234854300823  0.09009752589454219  0.832860228800001  1.0000
  O   O13       1.0  0.6243253162641762  0.8328608025462357  0.09009650662913068  1.0000
  O   O14       1.0  0.04713121409511693  0.667076584704162  0.41003059612990717  1.0000
  O   O15       1.0  0.9528687526478236  0.5899642503191558  0.3329246816623125  1.0000
  O   O16       1.0  0.37567515732582274  0.9099003235707951  0.16713815771463203  1.0000
  O   O17       1.0  0.015599088892855674  0.2958024415722774  0.7914916222160288  1.0000
  O   O18       1.0  0.6028220835463854  0.2042612956413876  0.7084833016506236  1.0000
  O   O19       1.0  0.3971753682478081  0.2915218411140898  0.795733905272911  1.0000
  O   O20       1.0  0.9844022425274371  0.20850790314943168  0.7041965064734155  1.0000
  O   O21       1.0  0.9844008075512883  0.7041981493432131  0.20850780752629555  1.0000
  O   O22       1.0  0.3971769263943299  0.7957371169409696  0.2915171767027899  1.0000
  O   O23       1.0  0.6028244844353947  0.7084831121603797  0.20426415239579404  1.0000
  O   O24       1.0  0.01559750645358808  0.7914916204604692  0.295806224021085  1.0000
  O   O25       1.0  0.1268626077572604  0.23576237108492387  0.6985508337789524  1.0000
  O   O26       1.0  0.561096219663696  0.2643525381486569  0.8013877080311997  1.0000
  O   O27       1.0  0.43890889524786997  0.19861145224935228  0.7356455173090384  1.0000
  O   O28       1.0  0.8731386976598967  0.3014484623512955  0.764238143494232  1.0000
  O   O29       1.0  0.8731383559053328  0.7642371373249471  0.3014499646308055  1.0000
  O   O30       1.0  0.4389082405804741  0.7356458573555427  0.19861059487651292  1.0000
  O   O31       1.0  0.5610905290580418  0.8013902534888259  0.2643566480067463  1.0000
  O   O32       1.0  0.12685989316134536  0.6985537760844096  0.23576225113562538  1.0000
