data_image0
_chemical_formula_structural       Zn2H56C64N2O32
_chemical_formula_sum              "Zn2 H56 C64 N2 O32"
_cell_length_a       17.584613454195036
_cell_length_b       18.242073942064113
_cell_length_c       19.51344347246151
_cell_angle_alpha    89.55159027231291
_cell_angle_beta     90.07899042321375
_cell_angle_gamma    90.02982194740078

_space_group_name_H-M_alt    "P 1"
_space_group_IT_number       1

loop_
  _space_group_symop_operation_xyz
  'x, y, z'

loop_
  _atom_site_type_symbol
  _atom_site_label
  _atom_site_symmetry_multiplicity
  _atom_site_fract_x
  _atom_site_fract_y
  _atom_site_fract_z
  _atom_site_occupancy
  Zn  Zn1       1.0  0.49743989178415393  0.42043836448817723  0.5070989727106863  1.0000
  Zn  Zn2       1.0  0.5056810963841228  0.5766516497721382  0.5110964443626287  1.0000
  H   H1        1.0  0.39406452184595503  0.41256418932993444  0.9607728030815184  1.0000
  H   H2        1.0  0.17264738631087787  0.6680397695290025  0.38388745058266954  1.0000
  H   H3        1.0  0.13553875595506068  0.35406932113019  0.5047009266848193  1.0000
  H   H4        1.0  0.8565378114290922  0.6630863856043375  0.5149091446516395  1.0000
  H   H5        1.0  0.6779071781667483  0.38434290607738564  0.4519818633719909  1.0000
  H   H6        1.0  0.3330477383752424  0.6202987220774361  0.4370431719916468  1.0000
  H   H7        1.0  0.30624490201532945  0.39446549122527585  0.5212463789651949  1.0000
  H   H8        1.0  0.6908636742066107  0.6070578494470169  0.5398716164343753  1.0000
  H   H9        1.0  0.3709003625376254  0.6207633143594719  0.7549827312206859  1.0000
  H   H10       1.0  0.6227355374726143  0.37501224524316956  0.26044618369415673  1.0000
  H   H11       1.0  0.38663311120627236  0.6236568019073729  0.2692733653128485  1.0000
  H   H12       1.0  0.5851411495328164  0.5833886346433276  0.058231808093367504  1.0000
  H   H13       1.0  0.5970816654327888  0.36579662868270896  0.7624386014347239  1.0000
  H   H14       1.0  0.33441189564130974  0.5405937052039108  0.9329413184316095  1.0000
  H   H15       1.0  0.285303341224278  0.5409130096688345  0.8519579216585172  1.0000
  H   H16       1.0  0.29246777817038344  0.6236541375544746  0.9010893929449466  1.0000
  H   H17       1.0  0.7015736138157534  0.4571901656626379  0.16491853724824784  1.0000
  H   H18       1.0  0.6524632866739708  0.46343471398503755  0.08413394515363853  1.0000
  H   H19       1.0  0.6952670032435292  0.37853411183635177  0.11017689919117402  1.0000
  H   H20       1.0  0.47947976683311566  0.6596458769279464  0.0944989497875284  1.0000
  H   H21       1.0  0.4764265960673838  0.69822693974222  0.17895778777347726  1.0000
  H   H22       1.0  0.39482177664026347  0.704446441039991  0.1234220282304932  1.0000
  H   H23       1.0  0.41064238742816167  0.42075669357663503  0.0868828486039988  1.0000
  H   H24       1.0  0.4988037222295816  0.29409932934549227  0.8379256320645325  1.0000
  H   H25       1.0  0.4885497674694291  0.3308025962899919  0.9226513776696664  1.0000
  H   H26       1.0  0.5740501902376777  0.28348283937842206  0.8998185325412463  1.0000
  H   H27       1.0  0.38051633957560677  0.2279110718848542  0.6673345976397442  1.0000
  H   H28       1.0  0.47850019892385365  0.22287194935440618  0.6935857852738749  1.0000
  H   H29       1.0  0.4149689551998391  0.14794469876963487  0.7116116933840859  1.0000
  H   H30       1.0  0.30330791514708716  0.7656191318963154  0.5815488403060415  1.0000
  H   H31       1.0  0.2945429271990818  0.7642757505930715  0.489776278541683  1.0000
  H   H32       1.0  0.259333441735393  0.841077588338038  0.5373185858324874  1.0000
  H   H33       1.0  0.6198970925719677  0.24019013462120847  0.34238573220314095  1.0000
  H   H34       1.0  0.5688169913887222  0.5750034056155185  0.9320747214195395  1.0000
  H   H35       1.0  0.5246493313155794  0.23350648428648668  0.3093126404880735  1.0000
  H   H36       1.0  0.5919427516111355  0.16164776816381726  0.2933501692100009  1.0000
  H   H37       1.0  0.7053115328259593  0.7650422851221136  0.42641531845414704  1.0000
  H   H38       1.0  0.7185188872713368  0.7725687779641887  0.5171863583474163  1.0000
  H   H39       1.0  0.7487973041216519  0.8456384234722305  0.4612187194020835  1.0000
  H   H40       1.0  0.3182590449583813  0.09209323074643548  0.4682690558604392  1.0000
  H   H41       1.0  0.31469618548943146  0.0105187958641366  0.4168825955519466  1.0000
  H   H42       1.0  0.30493265472886577  0.09950572266955497  0.3773247541816431  1.0000
  H   H43       1.0  0.4991479125527079  0.9012046252649241  0.6688677352610171  1.0000
  H   H44       1.0  0.5521349361047923  0.984076507071968  0.6840725501370599  1.0000
  H   H45       1.0  0.45748289373882767  0.3041010926297075  0.6030146623225436  1.0000
  H   H46       1.0  0.595111906606462  0.8960624197508477  0.6999904067939086  1.0000
  H   H47       1.0  0.6848898318044191  0.0957199699459963  0.5336642567129105  1.0000
  H   H48       1.0  0.6893176418003434  0.014504328348024797  0.5866646797805047  1.0000
  H   H49       1.0  0.696426141859689  0.10384581507270238  0.6246378516877655  1.0000
  H   H50       1.0  0.5072240002442426  0.9056110271978711  0.3307633662023264  1.0000
  H   H51       1.0  0.44888749949135587  0.9856641987461644  0.3174228141584905  1.0000
  H   H52       1.0  0.4106744975170074  0.8957399136121535  0.302248542856006  1.0000
  H   H53       1.0  0.39248785446423534  0.6902282008563743  0.5321570722319608  1.0000
  H   H54       1.0  0.5355356658167237  0.3105916267791357  0.40344357329603053  1.0000
  H   H55       1.0  0.6220093089099946  0.6922035886267962  0.48490910866466663  1.0000
  H   H56       1.0  0.838078171388858  0.3508606396883777  0.3917111347431543  1.0000
  C   C1        1.0  0.5111434994386953  0.5010655443860657  0.3790945066532814  1.0000
  C   C2        1.0  0.5340294402161874  0.5412889964921703  0.9661512501456501  1.0000
  C   C3        1.0  0.49899638946033764  0.5023733942351141  0.0812019963212549  1.0000
  C   C4        1.0  0.4809379620172364  0.4929205307689342  0.9377721366939085  1.0000
  C   C5        1.0  0.4736797981249764  0.2715591752007499  0.5588813007956049  1.0000
  C   C6        1.0  0.4418092950544119  0.7239419434084624  0.5202738238315874  1.0000
  C   C7        1.0  0.5194541005320231  0.2753438665972964  0.4463581078580106  1.0000
  C   C8        1.0  0.5714559724594678  0.7248850875322077  0.4944064455603865  1.0000
  C   C9        1.0  0.47337277367630276  0.19485345106544827  0.5591112766200724  1.0000
  C   C10       1.0  0.43826610651092307  0.8005800813836288  0.5168853767149102  1.0000
  C   C11       1.0  0.5230556062590352  0.1986749458978352  0.44408408024244045  1.0000
  C   C12       1.0  0.48731102810235427  0.492119799191414  0.6387565991950623  1.0000
  C   C13       1.0  0.5722120228947744  0.801627442557617  0.4909140780851687  1.0000
  C   C14       1.0  0.4990142290669722  0.15691480293073568  0.5010470751547302  1.0000
  C   C15       1.0  0.5046506346780362  0.8408168996950064  0.5025295350604893  1.0000
  C   C16       1.0  0.4578268889155907  0.036825645672195186  0.4525299625330632  1.0000
  C   C17       1.0  0.5452588977939499  0.9609120404017801  0.5501468082519381  1.0000
  C   C18       1.0  0.5461774281063256  0.03783657403331381  0.5484460288905454  1.0000
  C   C19       1.0  0.46131074715888315  0.95990154564285  0.4512132498322003  1.0000
  C   C20       1.0  0.5038015350411128  0.9217284028217488  0.5009204055135826  1.0000
  C   C21       1.0  0.5011785325847028  0.07606469355900458  0.500455857901521  1.0000
  C   C22       1.0  0.35100878187559903  0.5072319627729981  0.4891424993398701  1.0000
  C   C23       1.0  0.47507546263460637  0.4883339054075648  0.861882819911088  1.0000
  C   C24       1.0  0.6526441836272453  0.4949256936196704  0.5040820847416541  1.0000
  C   C25       1.0  0.8431161615421415  0.4469910177648444  0.42658061734982067  1.0000
  C   C26       1.0  0.16105981954657267  0.5727579250283695  0.42113536698549586  1.0000
  C   C27       1.0  0.14651353341373147  0.4490172025553818  0.4671169583384086  1.0000
  C   C28       1.0  0.8499351207712847  0.5700812535232274  0.4736686754711172  1.0000
  C   C29       1.0  0.7673248080793158  0.4415327767806972  0.44736266424743587  1.0000
  C   C30       1.0  0.2381821187852822  0.5712773445440859  0.4378935690605489  1.0000
  C   C31       1.0  0.22378283117286907  0.4472504792457528  0.4834406077791514  1.0000
  C   C32       1.0  0.7742871313453321  0.5647406407896794  0.4942528999605074  1.0000
  C   C33       1.0  0.7318726665212765  0.5001284267940987  0.4821505737834785  1.0000
  C   C34       1.0  0.50725225125597  0.5058337205285922  0.15701013974414482  1.0000
  C   C35       1.0  0.2706665877276109  0.5087505056213856  0.469924658792884  1.0000
  C   C36       1.0  0.8860627871434514  0.5106387879515423  0.4408054443448678  1.0000
  C   C37       1.0  0.11373981309514392  0.5121922747178616  0.4367257586484713  1.0000
  C   C38       1.0  0.9649793402041593  0.5129315007283352  0.42882778993818965  1.0000
  C   C39       1.0  0.03434071806649539  0.5148265024407833  0.4275548540648941  1.0000
  C   C40       1.0  0.4354195918219687  0.5399426723943037  0.7512278968865189  1.0000
  C   C41       1.0  0.5554055176666992  0.45455089180773445  0.2645721394418317  1.0000
  C   C42       1.0  0.4664729269997068  0.554865651928054  0.267250578563285  1.0000
  C   C43       1.0  0.5211658834786376  0.43679329719750365  0.7540310204467603  1.0000
  C   C44       1.0  0.4328586499432063  0.5390108754175811  0.8233979742690991  1.0000
  C   C45       1.0  0.480380735643081  0.4891992146827064  0.7150643999743238  1.0000
  C   C46       1.0  0.5540485235996683  0.456241536904315  0.1925856258610708  1.0000
  C   C47       1.0  0.4639800310225722  0.5554140885325721  0.19527160057740645  1.0000
  C   C48       1.0  0.5178251643477267  0.4365485294226373  0.8260294012773174  1.0000
  C   C49       1.0  0.3216051529724524  0.5729758663251018  0.8866624253204948  1.0000
  C   C50       1.0  0.6655876886174424  0.4275993941018257  0.1280811926567438  1.0000
  C   C51       1.0  0.4431041559773945  0.6701899582408116  0.1391194101623867  1.0000
  C   C52       1.0  0.528945811402167  0.3199371803555096  0.8810261145259801  1.0000
  C   C53       1.0  0.42956298072405014  0.19116244176220218  0.6746898039617977  1.0000
  C   C54       1.0  0.3039668654075739  0.7994111679073369  0.534571310037336  1.0000
  C   C55       1.0  0.572960742888398  0.2023640870886041  0.3304981235077804  1.0000
  C   C56       1.0  0.5121448133932559  0.5041601194169162  0.30250289244231254  1.0000
  C   C57       1.0  0.7057751309399904  0.8032044920637416  0.4697995240767483  1.0000
  C   C58       1.0  0.33285985427160364  0.06817543966322859  0.4183402969302321  1.0000
  C   C59       1.0  0.5558434255861968  0.9268741871545957  0.667002062665162  1.0000
  C   C60       1.0  0.6699277526382088  0.0717353081554961  0.583833663083297  1.0000
  C   C61       1.0  0.44920441008194695  0.9280144379938374  0.33429557472304344  1.0000
  C   C62       1.0  0.4364593009004878  0.4498300248579881  0.9819554046649017  1.0000
  C   C63       1.0  0.5429892870524781  0.545922418664489  0.036976061164210705  1.0000
  C   C64       1.0  0.4454589413271392  0.45446838191101335  0.0528079214418895  1.0000
  N   N1        1.0  0.49571372207331166  0.30938376048653987  0.5031512399111977  1.0000
  N   N2        1.0  0.5072801405464135  0.6882374762587489  0.5091477059415155  1.0000
  O   O1        1.0  0.487252854184426  0.44154804842575135  0.4058390452354317  1.0000
  O   O2        1.0  0.13048323853951865  0.6336925800531573  0.3901711830330186  1.0000
  O   O3        1.0  0.10178512147662389  0.3899055940465459  0.48278728218937067  1.0000
  O   O4        1.0  0.8905818082268411  0.6322185256731954  0.4880168265226175  1.0000
  O   O5        1.0  0.7305673643986951  0.3775084247195792  0.4328524788153772  1.0000
  O   O6        1.0  0.2798267529898126  0.632561283616532  0.4217349416170109  1.0000
  O   O7        1.0  0.2501886744316764  0.384764232312321  0.5142071221259387  1.0000
  O   O8        1.0  0.7443777145142434  0.6235750000626578  0.5280816982164255  1.0000
  O   O9        1.0  0.3933491284333996  0.591657040174553  0.7179059019849774  1.0000
  O   O10       1.0  0.5992799196865661  0.4033230011643596  0.2974029813104551  1.0000
  O   O11       1.0  0.4210234850552084  0.6013950759045129  0.3031087139560143  1.0000
  O   O12       1.0  0.4809357339586953  0.5543635199132452  0.6095413312740163  1.0000
  O   O13       1.0  0.5683247106684134  0.38726216208092973  0.7239396267873986  1.0000
  O   O14       1.0  0.39070721863009783  0.5954200179243754  0.8525785995955317  1.0000
  O   O15       1.0  0.5966016175628965  0.4019496196891835  0.1604520604380397  1.0000
  O   O16       1.0  0.411168052426504  0.6027833889811945  0.1652880920927373  1.0000
  O   O17       1.0  0.5658992741674779  0.3867333939220713  0.8592161762347743  1.0000
  O   O18       1.0  0.4481146209716371  0.15374603768690062  0.6127299166847067  1.0000
  O   O19       1.0  0.373929801969858  0.839489144788878  0.5284581171436784  1.0000
  O   O20       1.0  0.550818646410363  0.16105946157543372  0.3899185428488395  1.0000
  O   O21       1.0  0.6348917112411527  0.8416112375180518  0.475223521583338  1.0000
  O   O22       1.0  0.4134193574861483  0.07486570703566289  0.4060450161829579  1.0000
  O   O23       1.0  0.5000240393068154  0.43159328162450084  0.6086775658387397  1.0000
  O   O24       1.0  0.5866787943321582  0.9227090693896043  0.598770098022051  1.0000
  O   O25       1.0  0.58903620171408  0.07681200437750849  0.5949015243950626  1.0000
  O   O26       1.0  0.42094413428930716  0.9205891157745396  0.4032690609900841  1.0000
  O   O27       1.0  0.5332135677998195  0.5575844532295305  0.4109428136605331  1.0000
  O   O28       1.0  0.3788998017876324  0.44782434054907566  0.5147152534000555  1.0000
  O   O29       1.0  0.6216294448254941  0.5509855601223135  0.5329733622736941  1.0000
  O   O30       1.0  0.6161898196748722  0.4349477018968385  0.493353078472893  1.0000
  O   O31       1.0  0.3911282184510725  0.5656351283062833  0.4797721242096459  1.0000
  O   O32       1.0  0.8766313797976721  0.38946975786960536  0.39361887605807067  1.0000
