data_image0
_chemical_formula_structural       Zn16H24C96S24Cl8O76
_chemical_formula_sum              "Zn16 H24 C96 S24 Cl8 O76"
_cell_length_a       19.58821692457561
_cell_length_b       19.676886865824194
_cell_length_c       33.259119047198936
_cell_angle_alpha    79.19415250415597
_cell_angle_beta     79.46467744271953
_cell_angle_gamma    64.080892299852

_space_group_name_H-M_alt    "P 1"
_space_group_IT_number       1

loop_
  _space_group_symop_operation_xyz
  'x, y, z'

loop_
  _atom_site_type_symbol
  _atom_site_label
  _atom_site_symmetry_multiplicity
  _atom_site_fract_x
  _atom_site_fract_y
  _atom_site_fract_z
  _atom_site_occupancy
  Zn  Zn1       1.0  0.05701095515451019  0.39746288216554154  0.4797135972344719  1.0000
  Zn  Zn2       1.0  0.9870502341087358  0.48038364096261466  0.5605963023497935  1.0000
  Zn  Zn3       1.0  0.0559669193408467  0.5626942474940223  0.4813265432185431  1.0000
  Zn  Zn4       1.0  0.9019284959619895  0.5561377641829994  0.4791274717715694  1.0000
  Zn  Zn5       1.0  0.692034550085367  0.3497174178130678  0.2722661103781689  1.0000
  Zn  Zn6       1.0  0.6855947726994885  0.19240605975400624  0.267222923632275  1.0000
  Zn  Zn7       1.0  0.7718308140327181  0.2647533525859275  0.19057898405155527  1.0000
  Zn  Zn8       1.0  0.848158032095519  0.19404434625783293  0.2707241749526617  1.0000
  Zn  Zn9       1.0  0.2696974512189882  0.765272520597428  0.6888327195197234  1.0000
  Zn  Zn10      1.0  0.35195298716676154  0.6970885051685303  0.7699113492337871  1.0000
  Zn  Zn11      1.0  0.190329126102462  0.846755914256221  0.7717597741877427  1.0000
  Zn  Zn12      1.0  0.1905486486225172  0.6907136144966588  0.7682887588287599  1.0000
  Zn  Zn13      1.0  0.5579813050873099  0.06387657808562622  0.9824704319301033  1.0000
  Zn  Zn14      1.0  0.4004951789689386  0.05834244932915321  0.9764579670431743  1.0000
  Zn  Zn15      1.0  0.5559123133473279  0.9014946972559417  0.9803069302356278  1.0000
  Zn  Zn16      1.0  0.48347065907699266  0.9795857883238883  0.05926769528861797  1.0000
  H   H1        1.0  0.7493622975150346  0.44931352299796845  0.3492477319083989  1.0000
  H   H2        1.0  0.0009190131412921998  0.29978839821239944  0.40093043844097304  1.0000
  H   H3        1.0  0.199915090510828  0.702020980882999  0.6008379609964791  1.0000
  H   H4        1.0  0.049981136306925605  0.5492283506913012  0.6488856292297311  1.0000
  H   H5        1.0  0.4609683262574151  0.2406625359220629  0.34203642273440943  1.0000
  H   H6        1.0  0.48177265908716294  0.6991876870908417  0.599437494946585  1.0000
  H   H7        1.0  0.20120383761370422  0.9769452081190908  0.6021525809606983  1.0000
  H   H8        1.0  0.9443263344989246  0.9763996311748858  0.3507440832383323  1.0000
  H   H9        1.0  0.6504880590794428  0.14782158486364255  0.049235550474101324  1.0000
  H   H10       1.0  0.601101416639345  0.09981079117446266  0.2006483055860286  1.0000
  H   H11       1.0  0.5486424249144264  0.767770578749385  0.14977847403716274  1.0000
  H   H12       1.0  0.16351908222206646  0.13847293744439074  0.039167373189130196  1.0000
  H   H13       1.0  0.2997013380890722  0.00020155143482727245  0.9010026303744425  1.0000
  H   H14       1.0  0.44897640502765773  0.7503719310364332  0.8494402137688084  1.0000
  H   H15       1.0  0.2994102088410671  0.2832305558746597  0.8994139759376764  1.0000
  H   H16       1.0  0.7869240982534721  0.010192716223620705  0.910915341663312  1.0000
  H   H17       1.0  0.8434302215233062  0.5720159520013512  0.39985711896464676  1.0000
  H   H18       1.0  0.9649524218203567  0.23569377514498074  0.2920681791389724  1.0000
  H   H19       1.0  0.06983745858899232  0.6868401530958225  0.513630790491966  1.0000
  H   H20       1.0  0.0637227468356016  0.6780851079343222  0.7366824974690686  1.0000
  H   H21       1.0  0.795032345652153  0.17713605536298624  0.12193693041486135  1.0000
  H   H22       1.0  0.5712236902186376  0.9563347577661646  0.12824608091030143  1.0000
  H   H23       1.0  0.17692911568833844  0.9063757915324333  0.8498987037539578  1.0000
  H   H24       1.0  0.5145089532210109  0.7851948571070793  0.9583882001986409  1.0000
  C   C1        1.0  0.06211532293811221  0.3137616890281976  0.5628805568914146  1.0000
  C   C2        1.0  0.06550400336814022  0.573872541829502  0.568170613684778  1.0000
  C   C3        1.0  0.1818977950847369  0.4402244826892459  0.43943126204447214  1.0000
  C   C4        1.0  0.9353543977981431  0.6869933224838365  0.43818332629358275  1.0000
  C   C5        1.0  0.9338719706644698  0.43282796476539437  0.4289833248739753  1.0000
  C   C6        1.0  0.8197277189098245  0.559959260900534  0.5615002833470442  1.0000
  C   C7        1.0  0.5629160454083219  0.31252538138738134  0.3117277635508202  1.0000
  C   C8        1.0  0.6865212859922494  0.176001555561996  0.1808738502570151  1.0000
  C   C9        1.0  0.6907890671648573  0.43090500115447145  0.18847293644414978  1.0000
  C   C10       1.0  0.9378334173717136  0.18544083245237897  0.188935727769838  1.0000
  C   C11       1.0  0.8212266791969186  0.321277311329972  0.31632957799595823  1.0000
  C   C12       1.0  0.8089978902353182  0.06884494945305163  0.3112243441165603  1.0000
  C   C13       1.0  0.4363251429026819  0.6890595491250553  0.6867006742642018  1.0000
  C   C14       1.0  0.3156545328283542  0.8181896916388498  0.820803883158284  1.0000
  C   C15       1.0  0.18888257557696161  0.9313866618321711  0.6890989405541887  1.0000
  C   C16       1.0  0.0638632287960093  0.8089830854689456  0.8130106188192058  1.0000
  C   C17       1.0  0.1762829635251535  0.685385976487261  0.6815877257869046  1.0000
  C   C18       1.0  0.31447242614767396  0.568681732404997  0.8102564656085887  1.0000
  C   C19       1.0  0.4359249825691193  0.18736303888979935  0.9376097465117752  1.0000
  C   C20       1.0  0.42889618710228206  0.928483205153292  0.9336433368215183  1.0000
  C   C21       1.0  0.6814206551982096  0.941589887510823  0.9391818800341197  1.0000
  C   C22       1.0  0.5623288932957706  0.8138423256961076  0.06270027544035633  1.0000
  C   C23       1.0  0.5733442919603249  0.06358845285556937  0.06896493296057568  1.0000
  C   C24       1.0  0.3172510670685611  0.061592653186068026  0.0597652000645184  1.0000
  C   C25       1.0  0.9003661438451829  0.4054833568872383  0.4015730345269332  1.0000
  C   C26       1.0  0.8516315520300921  0.34529310378466266  0.34688294101535877  1.0000
  C   C27       1.0  0.8280046119827916  0.44678607337437654  0.3872216144714641  1.0000
  C   C28       1.0  0.9226079733826821  0.30259351292380654  0.36261607676000557  1.0000
  C   C29       1.0  0.8051481451033525  0.4166132322068562  0.3602334599448014  1.0000
  C   C30       1.0  0.945840278901038  0.3331461086284905  0.3892324103095675  1.0000
  C   C31       1.0  0.09802610187809792  0.6016912937903385  0.5957870443340382  1.0000
  C   C32       1.0  0.14887037390082014  0.6525538034569466  0.6539616016004713  1.0000
  C   C33       1.0  0.14190829671544952  0.644337754208138  0.5825443359712779  1.0000
  C   C34       1.0  0.10712075119371182  0.6077810569449087  0.667202259849752  1.0000
  C   C35       1.0  0.16618984199363504  0.6690882560555664  0.6114937853681822  1.0000
  C   C36       1.0  0.0823084821377051  0.5835570615202953  0.6382424890831473  1.0000
  C   C37       1.0  0.3024650630313346  0.45631122822164394  0.4014126700985798  1.0000
  C   C38       1.0  0.4437702387443778  0.2976640594837151  0.3496896850487444  1.0000
  C   C39       1.0  0.2564328050067388  0.41683243771161926  0.4145646535295455  1.0000
  C   C40       1.0  0.4883737710874031  0.3379863071337822  0.3368087633269781  1.0000
  C   C41       1.0  0.37562154018228716  0.3408458068570892  0.37316804399549147  1.0000
  C   C42       1.0  0.3703969204683517  0.4128275867012406  0.37768475876109864  1.0000
  C   C43       1.0  0.7289225588952206  0.5760785447581898  0.6294204092595166  1.0000
  C   C44       1.0  0.526598506408668  0.6713255450970125  0.6196845794068649  1.0000
  C   C45       1.0  0.7454890003085454  0.583692931431287  0.5866294996341139  1.0000
  C   C46       1.0  0.5114631417527136  0.6630749928421622  0.6622144590801824  1.0000
  C   C47       1.0  0.6060707287917992  0.639149707444247  0.6075594066419825  1.0000
  C   C48       1.0  0.6492636926096013  0.60758669166907  0.6413144490956597  1.0000
  C   C49       1.0  0.077788690504704  0.22317521363967777  0.6311328295650398  1.0000
  C   C50       1.0  0.1734417605913379  0.021653409194726737  0.6221708795867684  1.0000
  C   C51       1.0  0.08644898737292553  0.23979236187179964  0.5883463832984788  1.0000
  C   C52       1.0  0.1643691394556015  0.006563041315366998  0.664718183935733  1.0000
  C   C53       1.0  0.14219561274943968  0.10079184939134223  0.6097981096010017  1.0000
  C   C54       1.0  0.10983864611810648  0.14376029898028972  0.6433354284544777  1.0000
  C   C55       1.0  0.8412083568561997  0.8031090532639457  0.3956763883303296  1.0000
  C   C56       1.0  0.9012030183115841  0.9544088949058468  0.35376537141091535  1.0000
  C   C57       1.0  0.9092825305754106  0.7616125352949014  0.41339172078922803  1.0000
  C   C58       1.0  0.8334781690077192  0.9941694127267839  0.33617519321735756  1.0000
  C   C59       1.0  0.90445862667967  0.8842431638407506  0.37531380397118846  1.0000
  C   C60       1.0  0.8387438544220487  0.8729022477345862  0.37381652249943903  1.0000
  C   C61       1.0  0.656466040334614  0.15099108285820517  0.15057595034607368  1.0000
  C   C62       1.0  0.5981763369822772  0.09360927817969167  0.09930635855176463  1.0000
  C   C63       1.0  0.6689436605970159  0.16533181776399186  0.1072821103601669  1.0000
  C   C64       1.0  0.5833878891918048  0.08154874148306857  0.14258776439324808  1.0000
  C   C65       1.0  0.6402548716564739  0.13645605944454084  0.08257701814159189  1.0000
  C   C66       1.0  0.6127496548707114  0.10975186953979947  0.16731194574146704  1.0000
  C   C67       1.0  0.6751540709558912  0.5217877376020468  0.12022380762617499  1.0000
  C   C68       1.0  0.5775630276873898  0.7232954980026991  0.1296499855252264  1.0000
  C   C69       1.0  0.6662828364563255  0.504900142996043  0.16300711840751347  1.0000
  C   C70       1.0  0.5875729280531702  0.7387425350024796  0.0871372943832611  1.0000
  C   C71       1.0  0.6098501851940484  0.6440625219876351  0.14185980938927398  1.0000
  C   C72       1.0  0.6431260343872581  0.6013159109673792  0.1082573384306187  1.0000
  C   C73       1.0  0.0854551696844155  0.12332959809694445  0.1775321729398556  1.0000
  C   C74       1.0  0.17160557411383343  0.12332706286180442  0.0716534097834796  1.0000
  C   C75       1.0  0.012744947471041702  0.16072976287807714  0.16451578515437149  1.0000
  C   C76       1.0  0.2431838248433635  0.08641768164309842  0.08532053935687858  1.0000
  C   C77       1.0  0.11379454873666361  0.13729449348181086  0.10529268518809688  1.0000
  C   C78       1.0  0.14309141617483337  0.11022436393987788  0.14367310971063318  1.0000
  C   C79       1.0  0.3429940507231564  0.8507991949649278  0.8486135147279371  1.0000
  C   C80       1.0  0.4041435734909625  0.8982809474751651  0.9033738418609331  1.0000
  C   C81       1.0  0.30159446469406964  0.9224997692173671  0.8630520305866796  1.0000
  C   C82       1.0  0.44664210585992953  0.8276392643045655  0.8878535857439545  1.0000
  C   C83       1.0  0.33230939731279113  0.9447871475225473  0.890048283430275  1.0000
  C   C84       1.0  0.41565813837644333  0.8050540629232759  0.8611231578244298  1.0000
  C   C85       1.0  0.40791061156735964  0.4514949006634978  0.8526010780450761  1.0000
  C   C86       1.0  0.34408445115003167  0.3033436751701899  0.8956176187174875  1.0000
  C   C87       1.0  0.33992416739096143  0.49393940637843076  0.8349331733568731  1.0000
  C   C88       1.0  0.4121542289091522  0.2620747552434752  0.9127049781621963  1.0000
  C   C89       1.0  0.34245554240634857  0.37250968446380744  0.8734286022196542  1.0000
  C   C90       1.0  0.40934606362073117  0.38208351026509746  0.8744582467282027  1.0000
  C   C91       1.0  0.9416971443064027  0.795181659348373  0.8502186757378567  1.0000
  C   C92       1.0  0.8026090540986034  0.9539971922728864  0.902543344552413  1.0000
  C   C93       1.0  0.9892557983802561  0.8331137293917196  0.8377836535994446  1.0000
  C   C94       1.0  0.7561102956350042  0.915467263413099  0.9142660648664814  1.0000
  C   C95       1.0  0.8703558187948701  0.9103181287337281  0.8789616537927003  1.0000
  C   C96       1.0  0.8736818302497155  0.839469701622662  0.8736021383535046  1.0000
  S   S1        1.0  0.2964850806717578  0.32711083591258483  0.39782891431475775  1.0000
  S   S2        1.0  0.44849032220640334  0.42794227894991393  0.3530202554088149  1.0000
  S   S3        1.0  0.6636792073208541  0.6287761026852793  0.5612615946854688  1.0000
  S   S4        1.0  0.592844662286737  0.616527796703032  0.6877767556462047  1.0000
  S   S5        1.0  0.1336804870001558  0.15831663645360555  0.5633762884839797  1.0000
  S   S6        1.0  0.1184051692460741  0.0875529670681061  0.6899909723209916  1.0000
  S   S7        1.0  0.9696060257670709  0.8083091503997369  0.4032309208603024  1.0000
  S   S8        1.0  0.773396469364691  0.9474477443769019  0.3456718350855397  1.0000
  S   S9        1.0  0.6188702917841981  0.5861979881513836  0.18818183372971473  1.0000
  S   S10       1.0  0.6356323187284475  0.6579224351381471  0.06175411455991046  1.0000
  S   S11       1.0  0.015372247013132804  0.17958733582862155  0.11102034252392197  1.0000
  S   S12       1.0  0.24120017778916755  0.06864547733855629  0.13869647982095049  1.0000
  S   S13       1.0  0.27847807562219623  0.4485380694486523  0.8449733020810513  1.0000
  S   S14       1.0  0.4744345171802423  0.3063895767736753  0.902163787411581  1.0000
  S   S15       1.0  0.9505402250107836  0.9225650585063081  0.854779583174917  1.0000
  S   S16       1.0  0.793643447967959  0.8266433352327385  0.8968648073904645  1.0000
  S   S17       1.0  0.7568955379084344  0.5361411880916053  0.40351631062829085  1.0000
  S   S18       1.0  0.986230425686621  0.2060923879736621  0.3534015742135921  1.0000
  S   S19       1.0  0.1758015915498277  0.6655818941622799  0.5295689239131107  1.0000
  S   S20       1.0  0.08699684340417951  0.5726015893247053  0.7201466445976905  1.0000
  S   S21       1.0  0.7150522787036168  0.2251666423840106  0.0798122782340727  1.0000
  S   S22       1.0  0.522630444592032  0.03627082853202526  0.16985058889544288  1.0000
  S   S23       1.0  0.21161553048057166  0.9933376307290588  0.8467146632195011  1.0000
  S   S24       1.0  0.543592866517038  0.7638650788076117  0.897235149437634  1.0000
  Cl  Cl1       1.0  0.28323293037990993  0.5450427284914242  0.4113532939366705  1.0000
  Cl  Cl2       1.0  0.7930238251340925  0.5344659272189461  0.6647446489579849  1.0000
  Cl  Cl3       1.0  0.03536994902028571  0.28690070490475267  0.6661875383171179  1.0000
  Cl  Cl4       1.0  0.7685670106894521  0.776367639215117  0.3982244656626292  1.0000
  Cl  Cl5       1.0  0.7181374745347214  0.4582840163331597  0.08519894141848276  1.0000
  Cl  Cl6       1.0  0.1064572610148105  0.09613824564472402  0.22713708316911146  1.0000
  Cl  Cl7       1.0  0.482340562404147  0.47598979252247625  0.8493662175160495  1.0000
  Cl  Cl8       1.0  0.9589093381810088  0.7076193911696435  0.8391671067962392  1.0000
  O   O1        1.0  0.0012914806455129  0.4975728630871856  0.5000765569202128  1.0000
  O   O2        1.0  0.08119918934017531  0.3123115874116564  0.523898855858107  1.0000
  O   O3        1.0  0.0482923323871347  0.5187510681585368  0.5837272453210716  1.0000
  O   O4        1.0  0.1551754095067679  0.5040639977466769  0.4535893237120376  1.0000
  O   O5        1.0  0.024235774413682507  0.3728812103800649  0.5813410147121517  1.0000
  O   O6        1.0  0.15016712092145207  0.39370698587368474  0.4447104555137996  1.0000
  O   O7        1.0  0.055043049605792815  0.6079136122213883  0.5313831183356541  1.0000
  O   O8        1.0  0.0035183590003740003  0.6598157385039018  0.44819983934934976  1.0000
  O   O9        1.0  0.9073804861989814  0.5047375160859886  0.4307431445071259  1.0000
  O   O10       1.0  0.8892217450275127  0.6550584131703661  0.44791382035185007  1.0000
  O   O11       1.0  0.9881661896727535  0.38249161182727703  0.448023484069914  1.0000
  O   O12       1.0  0.8792655220300604  0.533410401308352  0.5801626415781698  1.0000
  O   O13       1.0  0.817782687693068  0.5688645435487415  0.5223636047652178  1.0000
  O   O14       1.0  0.7479236805635665  0.25088600435861264  0.250551127359941  1.0000
  O   O15       1.0  0.5930971402124001  0.36035380474855566  0.3022532317385966  1.0000
  O   O16       1.0  0.6524979450329483  0.17881182935459353  0.21717559876105236  1.0000
  O   O17       1.0  0.7212569354139619  0.37146161680220047  0.16991401656718347  1.0000
  O   O18       1.0  0.5910461047318519  0.2451871270663165  0.30156145570298776  1.0000
  O   O19       1.0  0.679031286803223  0.4329566293618186  0.22761240212635409  1.0000
  O   O20       1.0  0.745253426671681  0.19093970287356407  0.1689260124352927  1.0000
  O   O21       1.0  0.8799317494688667  0.22300465630737423  0.16856306205696817  1.0000
  O   O22       1.0  0.8685631262919884  0.27077191925555893  0.2933064103186638  1.0000
  O   O23       1.0  0.9354999695939695  0.16812485836222643  0.2279704283101154  1.0000
  O   O24       1.0  0.7498399880104075  0.3544032039250525  0.3144350079432526  1.0000
  O   O25       1.0  0.7454877699960959  0.09309415603119933  0.2961961705157989  1.0000
  O   O26       1.0  0.8531977332760832  0.10273192487456843  0.3067001893838537  1.0000
  O   O27       1.0  0.251402884295743  0.7499571120910886  0.7492595989852404  1.0000
  O   O28       1.0  0.37777407384716355  0.7257015336501456  0.6671189219446702  1.0000
  O   O29       1.0  0.3666009005511058  0.7658704573599311  0.8010391823033911  1.0000
  O   O30       1.0  0.17685388707894836  0.9309198283971725  0.7283550884466052  1.0000
  O   O31       1.0  0.43641031126826846  0.6725248272792046  0.7258485279248744  1.0000
  O   O32       1.0  0.21956415685244934  0.8735585231210908  0.6691365375398134  1.0000
  O   O33       1.0  0.24345732059948227  0.8430555854009542  0.8194161518193397  1.0000
  O   O34       1.0  0.092332973833237  0.8584502211292392  0.8038262422964664  1.0000
  O   O35       1.0  0.1433165245726826  0.6935842643479834  0.7186065977887138  1.0000
  O   O36       1.0  0.0946903040420395  0.7418245278774053  0.8025579020122676  1.0000
  O   O37       1.0  0.2298735897794444  0.705080420381023  0.6658368069368167  1.0000
  O   O38       1.0  0.3566777950396158  0.604598781875595  0.8055123529180718  1.0000
  O   O39       1.0  0.25052397684974903  0.5914616021783063  0.7957379357601652  1.0000
  O   O40       1.0  0.4988904665489074  0.002077680543159485  0.9992813105575563  1.0000
  O   O41       1.0  0.5033549315483583  0.1586955514191574  0.948562884355688  1.0000
  O   O42       1.0  0.3959584657247889  0.999684796529749  0.9350654822475732  1.0000
  O   O43       1.0  0.6474410500525992  0.8971295363021953  0.944781929651505  1.0000
  O   O44       1.0  0.38790287376797045  0.15748550464374494  0.9461568744310611  1.0000
  O   O45       1.0  0.6571778097827378  0.005474437210892881  0.9531044565487363  1.0000
  O   O46       1.0  0.4796714366395348  0.8812689975999748  0.9568599204377576  1.0000
  O   O47       1.0  0.5809139370191616  0.814783601414881  0.023640521692314592  1.0000
  O   O48       1.0  0.5580211889983674  0.005251853210800916  0.08103010644057208  1.0000
  O   O49       1.0  0.5240520423600116  0.871957178289705  0.08211409188770352  1.0000
  O   O50       1.0  0.5712491947112781  0.09703586233288061  0.032461383430437286  1.0000
  O   O51       1.0  0.31625410749877153  0.07253821390715136  0.02071173660723249  1.0000
  O   O52       1.0  0.3763557417845007  0.03070177609327373  0.0793334094500153  1.0000
  O   O53       1.0  0.7966114578769138  0.5923707929702927  0.385164467037896  1.0000
  O   O54       1.0  0.6923521264849626  0.5602643870886796  0.3813233557729561  1.0000
  O   O55       1.0  0.7483814301091131  0.5273711415750029  0.4478534604272966  1.0000
  O   O56       1.0  0.013139099662169  0.2164068913253203  0.3054507477219914  1.0000
  O   O57       1.0  0.0525952268238683  0.18324841004982773  0.37386998969454766  1.0000
  O   O58       1.0  0.9415019311457729  0.16218374348105155  0.36165591934908997  1.0000
  O   O59       1.0  0.0983435992646307  0.7198025397594635  0.5105147857843804  1.0000
  O   O60       1.0  0.21595602914856474  0.7118507787982864  0.5286080659258586  1.0000
  O   O61       1.0  0.21205329301229633  0.5950578444897731  0.5117996833545674  1.0000
  O   O62       1.0  0.031512736708144494  0.6490070075801813  0.7393336666617073  1.0000
  O   O63       1.0  0.041629924754594996  0.5315726966396285  0.7208751092206142  1.0000
  O   O64       1.0  0.15793122072449964  0.5372888111225295  0.7380718186769926  1.0000
  O   O65       1.0  0.8001371292534573  0.17851163658068717  0.09116585479889493  1.0000
  O   O66       1.0  0.7187128006573789  0.2236435863768874  0.036541769921122104  1.0000
  O   O67       1.0  0.6792764418609211  0.2960025359267251  0.09726951605203736  1.0000
  O   O68       1.0  0.569331677662248  0.9512899454193547  0.15907818095506343  1.0000
  O   O69       1.0  0.5235903676339362  0.03295368119156448  0.21316111836098628  1.0000
  O   O70       1.0  0.4518634723925601  0.07194581364079514  0.1517521651013709  1.0000
  O   O71       1.0  0.15575092466541213  0.9529684698664201  0.864578007161647  1.0000
  O   O72       1.0  0.18716860600062551  0.05702863952583931  0.8691953835417647  1.0000
  O   O73       1.0  0.2202780826340032  0.0028214151939991126  0.8023793630798224  1.0000
  O   O74       1.0  0.533653016625209  0.7371462051537064  0.9452956812157325  1.0000
  O   O75       1.0  0.5657781980638248  0.6978299053171922  0.877085023180591  1.0000
  O   O76       1.0  0.5877721526643853  0.80829641773083  0.8887004632935599  1.0000
