data_image0
_chemical_formula_structural       Zn16H132C180N12O52
_chemical_formula_sum              "Zn16 H132 C180 N12 O52"
_cell_length_a       18.97324243509716
_cell_length_b       18.973280066404573
_cell_length_c       25.29619801784567
_cell_angle_alpha    67.9782100556781
_cell_angle_beta     67.97828215886769
_cell_angle_gamma    60.00589997223502

_space_group_name_H-M_alt    "P 1"
_space_group_IT_number       1

loop_
  _space_group_symop_operation_xyz
  'x, y, z'

loop_
  _atom_site_type_symbol
  _atom_site_label
  _atom_site_symmetry_multiplicity
  _atom_site_fract_x
  _atom_site_fract_y
  _atom_site_fract_z
  _atom_site_occupancy
  Zn  Zn1       1.0  0.3697810401502012  0.3696135122449603  0.8910304844042398  1.0000
  Zn  Zn2       1.0  0.6303910068367954  0.6302153998807684  0.10897036246607429  1.0000
  Zn  Zn3       1.0  0.4395396734008515  0.248952354500247  0.004946967087150296  1.0000
  Zn  Zn4       1.0  0.3064926997163155  0.4395097315754555  0.005051135175520436  1.0000
  Zn  Zn5       1.0  0.24891558718157827  0.3066240956317543  0.004988565099346017  1.0000
  Zn  Zn6       1.0  0.560490894647522  0.6935058308044616  0.9949493331374836  1.0000
  Zn  Zn7       1.0  0.7510484093764163  0.5604585488609856  0.9950525953541883  1.0000
  Zn  Zn8       1.0  0.693375432163414  0.7510828494231561  0.9950118976769953  1.0000
  Zn  Zn9       1.0  0.80836336668456  0.8084464208108953  0.5748686193707753  1.0000
  Zn  Zn10      1.0  0.19155644103423702  0.19163518154310563  0.4251317050049506  1.0000
  Zn  Zn11      1.0  0.8663515404541473  0.9318715763614163  0.4616471950110322  1.0000
  Zn  Zn12      1.0  0.7399826311954315  0.8664174861720181  0.46167273725376384  1.0000
  Zn  Zn13      1.0  0.9318586652423236  0.7400553508428944  0.46166110153990286  1.0000
  Zn  Zn14      1.0  0.13358045849131636  0.2600175242432029  0.5383288239763643  1.0000
  Zn  Zn15      1.0  0.0681263293268444  0.13365023728123765  0.5383539640086779  1.0000
  Zn  Zn16      1.0  0.2599424187912263  0.06814124234608697  0.5383400163313607  1.0000
  H   H1        1.0  0.6933256475875424  0.16249099907417983  0.9094244902785672  1.0000
  H   H2        1.0  0.23487922133529796  0.693029347509672  0.9094704794476409  1.0000
  H   H3        1.0  0.16283414802915536  0.23480848267572438  0.9092912602754449  1.0000
  H   H4        1.0  0.3069745589321117  0.7651199480900104  0.09053141926837327  1.0000
  H   H5        1.0  0.8375090645036496  0.3066701636687767  0.09057421573741213  1.0000
  H   H6        1.0  0.7651919104278093  0.8371665991575625  0.09070829789278897  1.0000
  H   H7        1.0  0.8322280102030818  0.09897670870201124  0.8446816673965568  1.0000
  H   H8        1.0  0.22413602456890666  0.8319930576461656  0.8448209360560878  1.0000
  H   H9        1.0  0.0993870704195103  0.22413023018533804  0.8445124515446448  1.0000
  H   H10       1.0  0.16800983863291213  0.7758644842452611  0.15517957665123563  1.0000
  H   H11       1.0  0.9010225560427332  0.16776815705549797  0.15531849441384776  1.0000
  H   H12       1.0  0.7758722158384189  0.9006116081303687  0.15548667789813916  1.0000
  H   H13       1.0  0.7102134350874325  0.15590727258086887  0.7105102185276946  1.0000
  H   H14       1.0  0.4234565440070953  0.7102235305909443  0.7105819983859119  1.0000
  H   H15       1.0  0.15600261419905345  0.42363156498791443  0.7104723581358809  1.0000
  H   H16       1.0  0.2897770511369018  0.5765419623817394  0.28941877432736607  1.0000
  H   H17       1.0  0.8440957779843218  0.28978326503893453  0.2894885987679883  1.0000
  H   H18       1.0  0.5763685977553622  0.8439982085108394  0.28952749866387967  1.0000
  H   H19       1.0  0.5733066374332767  0.2279282066906633  0.7734410855987474  1.0000
  H   H20       1.0  0.4255089574412025  0.573241027861478  0.7734165457169124  1.0000
  H   H21       1.0  0.22808424558135706  0.425529268266146  0.7734042564705559  1.0000
  H   H22       1.0  0.42676090460880545  0.5744883809165132  0.22658546118372394  1.0000
  H   H23       1.0  0.7720741983880047  0.42669081906880263  0.22655636471275642  1.0000
  H   H24       1.0  0.574470121272043  0.7719192905031063  0.226594708954174  1.0000
  H   H25       1.0  0.957978200983938  0.018626370986659337  0.7782160475116552  1.0000
  H   H26       1.0  0.24502279478227965  0.9580418000367886  0.7782611719416291  1.0000
  H   H27       1.0  0.01863810970964151  0.24538938637875424  0.7782420803945838  1.0000
  H   H28       1.0  0.041959432412667814  0.7549791519217877  0.22173774772323898  1.0000
  H   H29       1.0  0.9813785448091894  0.04201677608362777  0.22178498241694192  1.0000
  H   H30       1.0  0.7546120929373785  0.9813602730151062  0.2217557501882439  1.0000
  H   H31       1.0  0.927005120962008  0.12958235088883188  0.7519530980117181  1.0000
  H   H32       1.0  0.1915114514943426  0.9268512036386057  0.7519796907830666  1.0000
  H   H33       1.0  0.1295723281515677  0.19163371387350733  0.751961191374917  1.0000
  H   H34       1.0  0.0731529446385153  0.8084871345975273  0.24802012877036342  1.0000
  H   H35       1.0  0.870423685816782  0.07298907806893593  0.24804812890904057  1.0000
  H   H36       1.0  0.8083680364722028  0.870426400609581  0.24803658351954283  1.0000
  H   H37       1.0  0.9831777255054563  0.0631010219972906  0.7016154159646245  1.0000
  H   H38       1.0  0.2521172981584599  0.9830492123711917  0.7016619984505326  1.0000
  H   H39       1.0  0.06308943264430411  0.25228779496343623  0.7016442159700913  1.0000
  H   H40       1.0  0.0169534561519029  0.7478819681519154  0.2983368634747023  1.0000
  H   H41       1.0  0.9369037042974926  0.016820116692620964  0.29838524196091487  1.0000
  H   H42       1.0  0.7477174678412836  0.9369086594891416  0.2983538438372193  1.0000
  H   H43       1.0  0.9179595542400564  0.047744442880372204  0.551026632320422  1.0000
  H   H44       1.0  0.4833345866729672  0.9177643362508403  0.5511652443628136  1.0000
  H   H45       1.0  0.0478324406767001  0.4835399522844242  0.5510782245997559  1.0000
  H   H46       1.0  0.08223716898491061  0.5166641667267554  0.448833906887863  1.0000
  H   H47       1.0  0.9522586682816795  0.08203946172879023  0.44897332351348485  1.0000
  H   H48       1.0  0.5164624736177147  0.9521619556843887  0.44892347473651734  1.0000
  H   H49       1.0  0.9190166335990783  0.11452848739617844  0.6187345888765207  1.0000
  H   H50       1.0  0.3477880434478777  0.9189072179484582  0.6188834253814193  1.0000
  H   H51       1.0  0.11457945988761511  0.3479605745167476  0.6187701927154519  1.0000
  H   H52       1.0  0.08109458298573463  0.6522111772407938  0.3811154129907094  1.0000
  H   H53       1.0  0.8854773675141773  0.08098020694284705  0.381263973834187  1.0000
  H   H54       1.0  0.6520411772977186  0.8854161534913769  0.3812307081630522  1.0000
  H   H55       1.0  0.8012200783769502  0.9700591609069421  0.7653562023944073  1.0000
  H   H56       1.0  0.4634554948604759  0.8011203563712712  0.7654999693455551  1.0000
  H   H57       1.0  0.9698096340460938  0.46339643664618524  0.7654755176074558  1.0000
  H   H58       1.0  0.1988815263609568  0.5365430813217811  0.2344991948865597  1.0000
  H   H59       1.0  0.0299474547289478  0.1987762552361119  0.23464277689314622  1.0000
  H   H60       1.0  0.5366048390462127  0.030189558201719383  0.23452543525664274  1.0000
  H   H61       1.0  0.8001822608240163  0.9034772557675692  0.6973724249997346  1.0000
  H   H62       1.0  0.5990019077780461  0.8001934201672825  0.697526120448458  1.0000
  H   H63       1.0  0.9032652642582732  0.5990336421246168  0.6975002822408739  1.0000
  H   H64       1.0  0.19980893202396297  0.4009969121609769  0.3024733361026151  1.0000
  H   H65       1.0  0.09652735532050372  0.19981639130450904  0.30262690818138777  1.0000
  H   H66       1.0  0.4009680696477603  0.09673238271011536  0.30250162865482355  1.0000
  H   H67       1.0  0.1807789956362313  0.702574726028537  0.3664452350354137  1.0000
  H   H68       1.0  0.7502633917817578  0.18065564036613316  0.3664892984810846  1.0000
  H   H69       1.0  0.7025844401628305  0.7503494205879019  0.36633594076544523  1.0000
  H   H70       1.0  0.8193397665618107  0.2497408038750067  0.6335091761735041  1.0000
  H   H71       1.0  0.29742417886360784  0.8192215727622026  0.6335524934694375  1.0000
  H   H72       1.0  0.24964842722947375  0.29741342238010293  0.6336667451774499  1.0000
  H   H73       1.0  0.3125329193268129  0.7065272254493917  0.3003660089600402  1.0000
  H   H74       1.0  0.6806859711923537  0.31252859402857064  0.3004381692591308  1.0000
  H   H75       1.0  0.7064085704360894  0.6807034859908255  0.3003094571196598  1.0000
  H   H76       1.0  0.6874671024672241  0.3193192976029593  0.6995601725079648  1.0000
  H   H77       1.0  0.2934709334013022  0.687468362861395  0.6996334015292829  1.0000
  H   H78       1.0  0.3192959473169169  0.29358867335049144  0.6996922186241928  1.0000
  H   H79       1.0  0.20555783310751963  0.9735409869944146  0.2835605064298008  1.0000
  H   H80       1.0  0.5373124941510525  0.2057802673325284  0.28351565241866433  1.0000
  H   H81       1.0  0.9734055792346725  0.5372591172578538  0.28351802586727354  1.0000
  H   H82       1.0  0.7942177310373495  0.4626892230285335  0.7164853869339324  1.0000
  H   H83       1.0  0.0264575727186411  0.7944421693587101  0.7164396740337436  1.0000
  H   H84       1.0  0.46274186632300746  0.02659261277339201  0.7164808686612573  1.0000
  H   H85       1.0  0.07380518056338302  0.9678997539784716  0.34983822651177116  1.0000
  H   H86       1.0  0.6083910048956155  0.07391820011567779  0.3497339613619274  1.0000
  H   H87       1.0  0.9678859782068799  0.608367771148721  0.349749206078961  1.0000
  H   H88       1.0  0.9260808328869246  0.39160763992258996  0.6502681926771315  1.0000
  H   H89       1.0  0.032097609323621205  0.9261943437903284  0.6501627304139743  1.0000
  H   H90       1.0  0.3916321349732925  0.03211438240670361  0.6502501168534918  1.0000
  H   H91       1.0  0.4379675931699722  0.7377852152503975  0.28162624415473664  1.0000
  H   H92       1.0  0.5429097703647516  0.43794009341297613  0.281562251372847  1.0000
  H   H93       1.0  0.7374302951050995  0.5428907623912592  0.2815002285909145  1.0000
  H   H94       1.0  0.5620560020575525  0.45709323489711545  0.7184372174037531  1.0000
  H   H95       1.0  0.2622152929770608  0.5620335799949318  0.7183729982615643  1.0000
  H   H96       1.0  0.45710723868151615  0.2625677806478419  0.7185025278881337  1.0000
  H   H97       1.0  0.467116655711152  0.7815907983994846  0.20486711693573767  1.0000
  H   H98       1.0  0.5466875724494714  0.4671454179988003  0.20480544034307968  1.0000
  H   H99       1.0  0.7813242867330318  0.5466321666119569  0.20476282416031916  1.0000
  H   H100      1.0  0.5328521332270529  0.4533136659377063  0.7951944931348218  1.0000
  H   H101      1.0  0.21840882878797882  0.5328830457242759  0.7951327775470599  1.0000
  H   H102      1.0  0.45336681659234307  0.21867135364687582  0.7952391844158766  1.0000
  H   H103      1.0  0.4080151995798503  0.7227849933762656  0.22885319722579558  1.0000
  H   H104      1.0  0.6406057680276052  0.4079804602982762  0.2287903397146492  1.0000
  H   H105      1.0  0.7226141167542294  0.6405800855176623  0.22872818195461503  1.0000
  H   H106      1.0  0.5920186015043073  0.35939626014917536  0.771208660393668  1.0000
  H   H107      1.0  0.277215485361431  0.5919837803993175  0.7711482416747797  1.0000
  H   H108      1.0  0.3594191888250009  0.2773800490866449  0.7712748410588613  1.0000
  H   H109      1.0  0.46628976612090883  0.025131667568167853  0.13386090072280146  1.0000
  H   H110      1.0  0.3748678846856422  0.46613890614778347  0.13386930777575384  1.0000
  H   H111      1.0  0.024979231964025007  0.3747680348948634  0.13384826230662128  1.0000
  H   H112      1.0  0.5338565708170294  0.6251331154480864  0.8661323404123774  1.0000
  H   H113      1.0  0.9748692865483906  0.5337091160377837  0.8661378113397118  1.0000
  H   H114      1.0  0.6252309149814439  0.975016166431985  0.8661530093978553  1.0000
  H   H115      1.0  0.461040179114896  0.8990350484099282  0.21060427682981941  1.0000
  H   H116      1.0  0.42951507506302283  0.4608765282304007  0.21063001072820242  1.0000
  H   H117      1.0  0.8988496464946609  0.4293539656007255  0.21062107422483206  1.0000
  H   H118      1.0  0.539120211673776  0.5704869854869514  0.7893710261246623  1.0000
  H   H119      1.0  0.1009651800156348  0.5389611229468015  0.7893949090069581  1.0000
  H   H120      1.0  0.5706459244370522  0.1011468040054381  0.7893802238749357  1.0000
  H   H121      1.0  0.22325944723903046  0.958095975173414  0.1849221346841289  1.0000
  H   H122      1.0  0.6338952263975486  0.2231366776256109  0.1849348983475849  1.0000
  H   H123      1.0  0.9579067049301673  0.6337159016024141  0.1850001122701741  1.0000
  H   H124      1.0  0.7768612020974075  0.36611023712692503  0.8150624089815323  1.0000
  H   H125      1.0  0.04190755110434449  0.7767360628775178  0.8150814938513161  1.0000
  H   H126      1.0  0.36628417771203214  0.04209010770934889  0.8149989497731905  1.0000
  H   H127      1.0  0.22732243694750312  0.0874743991385714  0.11043815558787877  1.0000
  H   H128      1.0  0.5748545816966059  0.22708478661905213  0.11055125631747838  1.0000
  H   H129      1.0  0.08727280958597562  0.5748273641229958  0.11053810864830639  1.0000
  H   H130      1.0  0.7729128236305274  0.42514939117333467  0.8894468968425638  1.0000
  H   H131      1.0  0.9125274281238873  0.7726733116180002  0.8895649301693779  1.0000
  H   H132      1.0  0.4251716546218348  0.9127249771666897  0.8894627675985801  1.0000
  C   C1        1.0  0.5410842577812363  0.23740391514479597  0.8845555190298878  1.0000
  C   C2        1.0  0.3370639333770811  0.5409141664804338  0.8845480118917589  1.0000
  C   C3        1.0  0.2375364882120437  0.3371041570695468  0.8845275790494467  1.0000
  C   C4        1.0  0.45908994802679365  0.6629315266706685  0.11545307860529867  1.0000
  C   C5        1.0  0.7625995301944855  0.45891418414278456  0.11544093560388555  1.0000
  C   C6        1.0  0.6628966265622157  0.7624651855009572  0.11547237906388119  1.0000
  C   C7        1.0  0.6238936317891517  0.1981782351324312  0.8462742659001703  1.0000
  C   C8        1.0  0.33180617434110365  0.6237221297321369  0.8462745791058025  1.0000
  C   C9        1.0  0.1983519371406359  0.33182479763893  0.846211980368231  1.0000
  C   C10       1.0  0.3762818706118694  0.668190464036229  0.15372654387657997  1.0000
  C   C11       1.0  0.8018237616383034  0.3761036676171371  0.1537234012410593  1.0000
  C   C12       1.0  0.6681747465172664  0.8016501075619686  0.15378582611396036  1.0000
  C   C13       1.0  0.6978654731087773  0.16196557677056225  0.8653313838226634  1.0000
  C   C14       1.0  0.2749819337845238  0.6976294891968278  0.8653850546075288  1.0000
  C   C15       1.0  0.16221908712263663  0.2749669462764928  0.8652297186493951  1.0000
  C   C16       1.0  0.3023749549765073  0.7250155444478849  0.13461600844841115  1.0000
  C   C17       1.0  0.8380365507501966  0.30213178969453486  0.13466554517761847  1.0000
  C   C18       1.0  0.7250318795905886  0.837781140481063  0.1347703979626828  1.0000
  C   C19       1.0  0.7756892729407243  0.12590416422644055  0.8290225433925681  1.0000
  C   C20       1.0  0.2694959403889428  0.7754989135272368  0.8291371063953431  1.0000
  C   C21       1.0  0.12618034665162275  0.26949256272191485  0.8289207163406683  1.0000
  C   C22       1.0  0.22450503246467698  0.7305027224102575  0.1708617270135732  1.0000
  C   C23       1.0  0.8740983481251662  0.2243068573565237  0.17097546845622705  1.0000
  C   C24       1.0  0.7305083907600718  0.8738193382244145  0.17107853671238638  1.0000
  C   C25       1.0  0.78133833154849  0.12127157326480636  0.7730563738936806  1.0000
  C   C26       1.0  0.3244287076007027  0.7812606321438622  0.7731795038753188  1.0000
  C   C27       1.0  0.12142330834275582  0.32451266756584113  0.7729951442309467  1.0000
  C   C28       1.0  0.21874134533993586  0.6755709157790263  0.22681925332062733  1.0000
  C   C29       1.0  0.8787341313023236  0.21865582366116584  0.22694130256757453  1.0000
  C   C30       1.0  0.6754866633920645  0.8785780580155843  0.2270044446721187  1.0000
  C   C31       1.0  0.7064977747186634  0.15726963077922546  0.7541730889206728  1.0000
  C   C32       1.0  0.3821775110587282  0.7064541227829507  0.7542536007989467  1.0000
  C   C33       1.0  0.15739917720204497  0.38227614660387127  0.754121964863941  1.0000
  C   C34       1.0  0.2935469548964988  0.6178191069299785  0.24574674652155434  1.0000
  C   C35       1.0  0.8427353627110962  0.2934968933495693  0.2458249592037519  1.0000
  C   C36       1.0  0.617724980291527  0.8426025640529033  0.24587660176132434  1.0000
  C   C37       1.0  0.6300675730947916  0.19668362151295343  0.7895023044814946  1.0000
  C   C38       1.0  0.3839136703269048  0.6299735043147051  0.7895167929857505  1.0000
  C   C39       1.0  0.19683162272186652  0.3839545695919709  0.7894464573118467  1.0000
  C   C40       1.0  0.3700280456192645  0.6160833654910929  0.21048494102274148  1.0000
  C   C41       1.0  0.803319639401373  0.36992860947099615  0.21049690794200163  1.0000
  C   C42       1.0  0.6160457661389673  0.8031688201936048  0.21055272482001178  1.0000
  C   C43       1.0  0.935308050730612  0.07350628769194129  0.7425112159255746  1.0000
  C   C44       1.0  0.2486609860015889  0.9352328820897712  0.7425806429139994  1.0000
  C   C45       1.0  0.0735112625158933  0.24886379959617239  0.7425305674341657  1.0000
  C   C46       1.0  0.06476940801743321  0.7513392356886539  0.25741808833623026  1.0000
  C   C47       1.0  0.9264980328569552  0.06468910995896228  0.25748970640272256  1.0000
  C   C48       1.0  0.7511387399533407  0.9264876059131024  0.2574680505928982  1.0000
  C   C49       1.0  0.8526475775629481  0.9346086529168929  0.5803111250531782  1.0000
  C   C50       1.0  0.6324329616450229  0.8527078521912297  0.5803817042813506  1.0000
  C   C51       1.0  0.9345946499687943  0.6325487413623706  0.5803542548710748  1.0000
  C   C52       1.0  0.14729283678976665  0.36756552074020016  0.4196179067149186  1.0000
  C   C53       1.0  0.06539094394403831  0.1473535106248107  0.419690135422428  1.0000
  C   C54       1.0  0.3674536556929482  0.06540076644033371  0.41964769431518073  1.0000
  C   C55       1.0  0.8580121259863277  0.9722203003584649  0.6199932363325968  1.0000
  C   C56       1.0  0.5498116039419402  0.8580047829212842  0.6201221568233988  1.0000
  C   C57       1.0  0.972196636380673  0.5499424329700132  0.6200749519555941  1.0000
  C   C58       1.0  0.14199669695565834  0.4501864964668698  0.37987727597577947  1.0000
  C   C59       1.0  0.027779860249765396  0.1419893288793972  0.3800065530500944  1.0000
  C   C60       1.0  0.4500601405764543  0.027799247610168654  0.37992729735866954  1.0000
  C   C61       1.0  0.892746306917829  0.030654404431629582  0.5979973225119365  1.0000
  C   C62       1.0  0.4786491381152801  0.8926374011797759  0.5981429593753871  1.0000
  C   C63       1.0  0.030682556924553205  0.47881694705517924  0.5980563512601335  1.0000
  C   C64       1.0  0.10736399110020764  0.5213485546370646  0.4018561417206286  1.0000
  C   C65       1.0  0.9693464396076267  0.10725515046505056  0.40200218309628594  1.0000
  C   C66       1.0  0.5211856744630128  0.9693129801704146  0.4019449628291196  1.0000
  C   C67       1.0  0.893927863648621  0.06762018574787007  0.6357479073390734  1.0000
  C   C68       1.0  0.4027440240976503  0.8938540708703612  0.6359167883928831  1.0000
  C   C69       1.0  0.06763220642238821  0.4029143966884091  0.6358001059001808  1.0000
  C   C70       1.0  0.10614781311240763  0.5972533601922548  0.3640833917511515  1.0000
  C   C71       1.0  0.9323826203858943  0.10607121539492682  0.36425050388412933  1.0000
  C   C72       1.0  0.5970870034184017  0.9323643186999032  0.3642009595141856  1.0000
  C   C73       1.0  0.8599686864388547  0.0465337990673475  0.696025472138025  1.0000
  C   C74       1.0  0.39749901359736844  0.8599524212103732  0.6961943505351227  1.0000
  C   C75       1.0  0.04651685415323211  0.3976263709620012  0.6960784245431666  1.0000
  C   C76       1.0  0.14004917651782028  0.6024987980575887  0.303804624468121  1.0000
  C   C77       1.0  0.9534707234913001  0.14003120463440413  0.303972613120841  1.0000
  C   C78       1.0  0.6023751402416765  0.9534814782052976  0.3039216939740541  1.0000
  C   C79       1.0  0.8267449819943026  0.9866754415683161  0.7183228460149919  1.0000
  C   C80       1.0  0.4683093182089309  0.8267296298738671  0.7184714345555246  1.0000
  C   C81       1.0  0.9865131944802459  0.4683377395660885  0.7184216641578797  1.0000
  C   C82       1.0  0.17327337720130492  0.5316891042017103  0.28152665083452877  1.0000
  C   C83       1.0  0.013328528220931404  0.17325380279957867  0.2816761944792673  1.0000
  C   C84       1.0  0.5316651301870721  0.013483345498435908  0.28157999046542403  1.0000
  C   C85       1.0  0.8258432612543842  0.9498583344269559  0.6806338271704602  1.0000
  C   C86       1.0  0.5437062315224991  0.8258817688342291  0.6807700667070193  1.0000
  C   C87       1.0  0.9497081400276812  0.5437596660637637  0.6807310323059497  1.0000
  C   C88       1.0  0.17412024055828115  0.45629398822837425  0.31922863878860835  1.0000
  C   C89       1.0  0.05014457664216111  0.17415653699143258  0.3193656471398965  1.0000
  C   C90       1.0  0.4562419802087804  0.05028900796716575  0.3192715058040462  1.0000
  C   C91       1.0  0.035934914880428416  0.8340809028389627  0.39807623673068776  1.0000
  C   C92       1.0  0.7318730601127613  0.03593324552041807  0.398016251471212  1.0000
  C   C93       1.0  0.8341147650758177  0.7318836647837866  0.3980183040706961  1.0000
  C   C94       1.0  0.9640655366956781  0.2681306266367898  0.6019830878175155  1.0000
  C   C95       1.0  0.16591571038008376  0.9640668285397568  0.601923584670807  1.0000
  C   C96       1.0  0.2681139331158775  0.1658851335841334  0.6019824051359988  1.0000
  C   C97       1.0  0.11674157478330471  0.8353895876057462  0.3608855921816314  1.0000
  C   C98       1.0  0.6870064990973862  0.11674024922483986  0.3608140803773095  1.0000
  C   C99       1.0  0.8353836317710376  0.6869714287978397  0.36082284879421417  1.0000
  C   C100      1.0  0.8832569882560436  0.3129958390191091  0.6391863789328338  1.0000
  C   C101      1.0  0.16460752331445863  0.8832602931405162  0.639113715683365  1.0000
  C   C102      1.0  0.31302796206069433  0.16461470208042778  0.6391774339596947  1.0000
  C   C103      1.0  0.18613731174491482  0.7620548107802563  0.3476797386912691  1.0000
  C   C104      1.0  0.7041986767502453  0.1860926302336452  0.3476723520019504  1.0000
  C   C105      1.0  0.762031808624009  0.7042177387801303  0.34760121664270816  1.0000
  C   C106      1.0  0.8139039125013384  0.29580445760326046  0.6523272506932467  1.0000
  C   C107      1.0  0.23794401110510688  0.8138638170984507  0.6523193978185302  1.0000
  C   C108      1.0  0.29578154463386147  0.2379663833323633  0.6523998620007061  1.0000
  C   C109      1.0  0.2607334386394129  0.7644426700382921  0.31040823817757957  1.0000
  C   C110      1.0  0.664542678510671  0.26074267391664563  0.3104149171716982  1.0000
  C   C111      1.0  0.7643255882261784  0.6645057887906913  0.3103592308620621  1.0000
  C   C112      1.0  0.7392537064779463  0.3354621862740785  0.6895833713316929  1.0000
  C   C113      1.0  0.23555646305971586  0.7392672381574596  0.6895921757177772  1.0000
  C   C114      1.0  0.3354940087664815  0.23567092222754127  0.6896422066473348  1.0000
  C   C115      1.0  0.26812894139708743  0.8413006534281352  0.2838910171914647  1.0000
  C   C116      1.0  0.6067981807235511  0.2681957471405171  0.2838708013915365  1.0000
  C   C117      1.0  0.8411308959495828  0.6066777027534516  0.28388692651199665  1.0000
  C   C118      1.0  0.7318009941249174  0.39320602729321735  0.716127523693032  1.0000
  C   C119      1.0  0.15869634200466728  0.7318728049250962  0.7161096477007332  1.0000
  C   C120      1.0  0.39332361511835506  0.1588662813871409  0.7161132009525344  1.0000
  C   C121      1.0  0.1997276839095079  0.9143764431319995  0.3002625849694309  1.0000
  C   C122      1.0  0.5856131264579931  0.19988723613695908  0.30024890836619983  1.0000
  C   C123      1.0  0.914250778080181  0.5855427526206823  0.3002479317325637  1.0000
  C   C124      1.0  0.8001103037268393  0.41438916441948925  0.6997513467716701  1.0000
  C   C125      1.0  0.08562156257696073  0.8002737317712344  0.6997381824016882  1.0000
  C   C126      1.0  0.41445975213490993  0.08574677378990707  0.6997514282802866  1.0000
  C   C127      1.0  0.12580629379829847  0.9112545577427227  0.3375634328881175  1.0000
  C   C128      1.0  0.625332377958813  0.12589599521858472  0.33750303121369996  1.0000
  C   C129      1.0  0.9112040172188075  0.6252810782670932  0.33752494959569646  1.0000
  C   C130      1.0  0.8741020222559471  0.37466825627453904  0.6624980328081873  1.0000
  C   C131      1.0  0.08874328249773812  0.8741949955302957  0.662436970582682  1.0000
  C   C132      1.0  0.37471851643031334  0.08879462950466177  0.662474890926802  1.0000
  C   C133      1.0  0.4174886639829723  0.7676040577889794  0.24012766587107143  1.0000
  C   C134      1.0  0.5750356250413021  0.41749317017578147  0.24005451204191527  1.0000
  C   C135      1.0  0.767330660528458  0.5749953133764193  0.24002284081242922  1.0000
  C   C136      1.0  0.5825035154218557  0.42496738609144546  0.7599452219052689  1.0000
  C   C137      1.0  0.2323953871653544  0.5825126019111053  0.7598726044326863  1.0000
  C   C138      1.0  0.4250043191062647  0.23266597735470634  0.7599786736342293  1.0000
  C   C139      1.0  0.3486002112521121  0.14173317407957597  0.07246070838098005  1.0000
  C   C140      1.0  0.4373604271690184  0.3485049587763454  0.07244217435766133  1.0000
  C   C141      1.0  0.14151736109561602  0.43734497799655253  0.07242251321387264  1.0000
  C   C142      1.0  0.6514914671025949  0.562641071823137  0.9275584046384033  1.0000
  C   C143      1.0  0.85826573662181  0.651398121312461  0.9275385659190079  1.0000
  C   C144      1.0  0.5626556585779243  0.8584817080481811  0.9275776837601981  1.0000
  C   C145      1.0  0.34703106955225854  0.0645139454748005  0.11730549852443058  1.0000
  C   C146      1.0  0.4713022722142527  0.3468948003921709  0.1173187376079028  1.0000
  C   C147      1.0  0.06428846069530178  0.4712401619172866  0.11730117464615118  1.0000
  C   C148      1.0  0.6531009255637559  0.5287006703064063  0.8826816574685378  1.0000
  C   C149      1.0  0.9354859241198881  0.652967812371479  0.88269340527205  1.0000
  C   C150      1.0  0.528759821706551  0.9357086957256013  0.8826996651820166  1.0000
  C   C151      1.0  0.41307383562099187  0.010232169714065261  0.1454092641822342  1.0000
  C   C152      1.0  0.43141482646414187  0.41291953582941676  0.14543452947658858  1.0000
  C   C153      1.0  0.010052592077954602  0.43132940216200677  0.14541610258969223  1.0000
  C   C154      1.0  0.5870767823570874  0.5685863636038846  0.854566907027866  1.0000
  C   C155      1.0  0.98976867353953  0.5869240421736421  0.8545905251043349  1.0000
  C   C156      1.0  0.5686681402411439  0.9899455944021937  0.8545863103193408  1.0000
  C   C157      1.0  0.4101987802129942  0.9390507715831832  0.18814710331859869  1.0000
  C   C158      1.0  0.4627608985670975  0.4100620433076046  0.1881545418608397  1.0000
  C   C159      1.0  0.9388645064772023  0.46263026341988933  0.18816114407741205  1.0000
  C   C160      1.0  0.5899344432949363  0.5372423162685322  0.8118451155849439  1.0000
  C   C161      1.0  0.06095046577164  0.5898012784091119  0.8118520834138179  1.0000
  C   C162      1.0  0.5373689129533972  0.06113279420245733  0.8118405157252153  1.0000
  C   C163      1.0  0.3418949493672159  0.9192573583670484  0.20298237077766138  1.0000
  C   C164      1.0  0.536057645040799  0.3418264323672632  0.20294913263990808  1.0000
  C   C165      1.0  0.9190463857984315  0.5358733754545637  0.2030108397111192  1.0000
  C   C166      1.0  0.6581713167205194  0.46394473357609217  0.7970501109293618  1.0000
  C   C167      1.0  0.08074241501087442  0.6581045933140857  0.797017338745931  1.0000
  C   C168      1.0  0.46412711502770787  0.08095110663587954  0.7969903292907641  1.0000
  C   C169      1.0  0.27587130584755937  0.9735114128282377  0.17437423104120583  1.0000
  C   C170      1.0  0.5764149210038455  0.2757466116900601  0.17439119711482218  1.0000
  C   C171      1.0  0.9733145856021183  0.5762320366641233  0.1744606257087752  1.0000
  C   C172      1.0  0.7242495107754794  0.4235875572618536  0.8256073668414171  1.0000
  C   C173      1.0  0.026491242468090107  0.7241258982329838  0.8256268205013411  1.0000
  C   C174      1.0  0.4237689876658238  0.026681308387580295  0.8255388764918831  1.0000
  C   C175      1.0  0.27822682505346563  0.0454162758455325  0.13267833699178766  1.0000
  C   C176      1.0  0.5438037684828104  0.2780474576491512  0.13274121109689924  1.0000
  C   C177      1.0  0.0452136136319581  0.5437255961036555  0.13274039086551429  1.0000
  C   C178      1.0  0.7219496590345573  0.45619893187797783  0.8672577759274913  1.0000
  C   C179      1.0  0.954585943012198  0.7217708289009079  0.8673237732395686  1.0000
  C   C180      1.0  0.4562731629054753  0.9547844879797724  0.8672608573172479  1.0000
  N   N1        1.0  0.8570957255168852  0.08583137114981539  0.7352210287940436  1.0000
  N   N2        1.0  0.3218986690243427  0.8570485595462571  0.735383915322785  1.0000
  N   N3        1.0  0.08591408119297482  0.3220049139808053  0.7352181023839462  1.0000
  N   N4        1.0  0.14295336428871516  0.6780988945349903  0.26461498558636254  1.0000
  N   N5        1.0  0.914174080355906  0.14290029641284713  0.2647778542328965  1.0000
  N   N6        1.0  0.6779970208655474  0.9140838327740115  0.26478249244243546  1.0000
  N   N7        1.0  0.34119593876519627  0.8448210115462234  0.24431662029161302  1.0000
  N   N8        1.0  0.5698942725324585  0.3412173294701545  0.24423773417610312  1.0000
  N   N9        1.0  0.8445790044274518  0.5697234826436456  0.244304719085278  1.0000
  N   N10       1.0  0.658778769664231  0.4301108315707793  0.7557608358873292  1.0000
  N   N11       1.0  0.15517908614608442  0.6588044204231804  0.7556844020964062  1.0000
  N   N12       1.0  0.4302781861488825  0.1554180769556055  0.7556953655463158  1.0000
  O   O1        1.0  0.341070332988089  0.34107612642581137  0.9768158588759089  1.0000
  O   O2        1.0  0.6589258350901233  0.6589275047602213  0.023184919183137215  1.0000
  O   O3        1.0  0.8368251029578034  0.8368697051778472  0.4893681276797678  1.0000
  O   O4        1.0  0.16312913009670643  0.16317533459484676  0.5106335892348283  1.0000
  O   O5        1.0  0.4786541635167937  0.2839605945783317  0.8601580877864732  1.0000
  O   O6        1.0  0.37733857498547974  0.4785081478368338  0.8601245816846512  1.0000
  O   O7        1.0  0.2841186202869111  0.37733881184328766  0.8601604947848569  1.0000
  O   O8        1.0  0.5214953571617686  0.6226569584305819  0.13987594278914628  1.0000
  O   O9        1.0  0.7160448516063485  0.5213423222691346  0.13984104332708813  1.0000
  O   O10       1.0  0.6226667858599841  0.7158791266039368  0.13983842738728916  1.0000
  O   O11       1.0  0.5375432902850649  0.2221382696877966  0.9389528141085602  1.0000
  O   O12       1.0  0.30139612788261877  0.537392886119079  0.93893542600005  1.0000
  O   O13       1.0  0.22222742952134672  0.30147576869972426  0.9389131481483444  1.0000
  O   O14       1.0  0.4626088595825735  0.6986048786958248  0.06106474654897914  1.0000
  O   O15       1.0  0.7778636660593748  0.4624506876762028  0.06104572649274326  1.0000
  O   O16       1.0  0.6985250072378693  0.777773112437451  0.061085959471483944  1.0000
  O   O17       1.0  0.8232851320550623  0.8793453067528249  0.6052993345661476  1.0000
  O   O18       1.0  0.6921414477859004  0.82325637901117  0.605313369853064  1.0000
  O   O19       1.0  0.8792807606669159  0.6922089234197628  0.6052942484101106  1.0000
  O   O20       1.0  0.17674238850155893  0.3078596200788866  0.39468651339231525  1.0000
  O   O21       1.0  0.12065514283243323  0.17671367453003478  0.3947019515594618  1.0000
  O   O22       1.0  0.30779538077333524  0.12071448087031905  0.39470831645463267  1.0000
  O   O23       1.0  0.8764902222859166  0.9605832500935705  0.5249451819682346  1.0000
  O   O24       1.0  0.6378497994401757  0.8767162117739742  0.5250236075892403  1.0000
  O   O25       1.0  0.9606138290194721  0.6379943881677831  0.5249973627555775  1.0000
  O   O26       1.0  0.12328229258928762  0.36215055009206054  0.4749776607451607  1.0000
  O   O27       1.0  0.0394120916360521  0.12351583663102873  0.47505627076864687  1.0000
  O   O28       1.0  0.36200666421380845  0.03937943232714496  0.47500519144482195  1.0000
  O   O29       1.0  0.9741124340315185  0.9049950491446948  0.40376014465231674  1.0000
  O   O30       1.0  0.7169937799239109  0.9741508859070934  0.4037508385136092  1.0000
  O   O31       1.0  0.9050401889798252  0.7169954499892268  0.40376397088939336  1.0000
  O   O32       1.0  0.025848167891432208  0.28300782996495133  0.5962503023573615  1.0000
  O   O33       1.0  0.0950016018478976  0.025890671574053697  0.596240299664984  1.0000
  O   O34       1.0  0.2830017200866166  0.09495969115612012  0.5962369255459521  1.0000
  O   O35       1.0  0.03220040441802041  0.7626920683391987  0.42160481743312755  1.0000
  O   O36       1.0  0.783486284087495  0.03216024446582805  0.4215493115839805  1.0000
  O   O37       1.0  0.7627424794177105  0.7835402811090904  0.42150757654538734  1.0000
  O   O38       1.0  0.9678372380317841  0.2165176309423772  0.5784503691506514  1.0000
  O   O39       1.0  0.23730597823712435  0.9678000339401219  0.5783938304000882  1.0000
  O   O40       1.0  0.21645617698509062  0.23725830469898304  0.5784950926562684  1.0000
  O   O41       1.0  0.28172834085972204  0.19224862850885668  0.05421442897556967  1.0000
  O   O42       1.0  0.47196601295593876  0.2816545353218629  0.05418631868037237  1.0000
  O   O43       1.0  0.19210050439895812  0.47185003645004986  0.05428894268334264  1.0000
  O   O44       1.0  0.7183429168627599  0.5280345219834572  0.9458131295823121  1.0000
  O   O45       1.0  0.8077494556084803  0.7182730385850105  0.9457841358845156  1.0000
  O   O46       1.0  0.5281513426315385  0.8078967915806526  0.9457099748029657  1.0000
  O   O47       1.0  0.416306589515692  0.15172425804801995  0.05576492142684942  1.0000
  O   O48       1.0  0.3763822771107074  0.4162344264233794  0.055725582348102876  1.0000
  O   O49       1.0  0.1514383566053752  0.37648347995850884  0.05558598983400029  1.0000
  O   O50       1.0  0.5837626324125367  0.6236181988072076  0.9442758048577101  1.0000
  O   O51       1.0  0.8482751470138723  0.5836930213152058  0.9442338950576994  1.0000
  O   O52       1.0  0.6235161818346882  0.8485599426955163  0.944414353888888  1.0000
