data_image0
_chemical_formula_structural       Zn2H48C34N8O8
_chemical_formula_sum              "Zn2 H48 C34 N8 O8"
_cell_length_a       8.070381359119072
_cell_length_b       9.432866466539716
_cell_length_c       13.693710291637277
_cell_angle_alpha    95.30685823721619
_cell_angle_beta     96.69844174771305
_cell_angle_gamma    101.61436847999593

_space_group_name_H-M_alt    "P 1"
_space_group_IT_number       1

loop_
  _space_group_symop_operation_xyz
  'x, y, z'

loop_
  _atom_site_type_symbol
  _atom_site_label
  _atom_site_symmetry_multiplicity
  _atom_site_fract_x
  _atom_site_fract_y
  _atom_site_fract_z
  _atom_site_occupancy
  Zn  Zn1       1.0  0.7598933991424629  0.7734914963828602  0.770934250862652  1.0000
  Zn  Zn2       1.0  0.2401073744262945  0.22650791029688822  0.2290663469686223  1.0000
  H   H1        1.0  0.9754083521291649  0.0976549952848913  0.8170172456777822  1.0000
  H   H2        1.0  0.02458870059614067  0.9023444941532831  0.18298310439845983  1.0000
  H   H3        1.0  0.5925748118000769  0.8723754817223862  0.9641895857763815  1.0000
  H   H4        1.0  0.4074253324139363  0.1276261318589036  0.0358111241927048  1.0000
  H   H5        1.0  0.7479720510722813  0.14046223755757842  0.07882268484808462  1.0000
  H   H6        1.0  0.25202748355676613  0.8595372070978017  0.9211771009235932  1.0000
  H   H7        1.0  0.11910751689254788  0.30296972109256604  0.9462713239765322  1.0000
  H   H8        1.0  0.8808914081515481  0.6970275546369108  0.05372753759775151  1.0000
  H   H9        1.0  0.06730840386973111  0.29577066853410383  0.06786775033015151  1.0000
  H   H10       1.0  0.9326923737233628  0.7042287693141276  0.9321306590773801  1.0000
  H   H11       1.0  0.8292120087174126  0.4210844877937702  0.029166791640349694  1.0000
  H   H12       1.0  0.17078907568033228  0.5789160501016539  0.9708309856540112  1.0000
  H   H13       1.0  0.8753678220314002  0.43071648247196487  0.9060158675597949  1.0000
  H   H14       1.0  0.12463389172108919  0.5692818485219107  0.09398179759675432  1.0000
  H   H15       1.0  0.430639030040865  0.5490338382130774  0.6655437862736593  1.0000
  H   H16       1.0  0.5693635960768902  0.4509677305854184  0.33445635939087043  1.0000
  H   H17       1.0  0.7161922555374928  0.9123980103738702  0.5585498320366825  1.0000
  H   H18       1.0  0.2838078886765132  0.08760360320741971  0.4414508779324039  1.0000
  H   H19       1.0  0.440934932049906  0.7763122151234255  0.4132948480679773  1.0000
  H   H20       1.0  0.5590667776782396  0.2236860847019813  0.5867050055123144  1.0000
  H   H21       1.0  0.2526884934218572  0.4189689758774334  0.4901329947089509  1.0000
  H   H22       1.0  0.7473135217694987  0.5810304136056671  0.5098669562327487  1.0000
  H   H23       1.0  0.22487776444002344  0.5357601631190648  0.39859177401611134  1.0000
  H   H24       1.0  0.7751267326550745  0.4642391815812419  0.6014076126210313  1.0000
  H   H25       1.0  0.05707964279540784  0.6667698152160638  0.504544911342812  1.0000
  H   H26       1.0  0.9429239221646383  0.3332306675070739  0.49545303112157774  1.0000
  H   H27       1.0  0.09957546039484545  0.5644481964706357  0.6025135867254292  1.0000
  H   H28       1.0  0.9004265574793988  0.4355512137914559  0.39748490526711333  1.0000
  H   H29       1.0  0.3201814498834495  0.8288946881384691  0.7698491175598647  1.0000
  H   H30       1.0  0.6798186970134524  0.1711069462218049  0.23015013346005733  1.0000
  H   H31       1.0  0.26940808678733674  0.8110459493356359  0.6409126067767589  1.0000
  H   H32       1.0  0.7305892700597169  0.1889546193707474  0.3590885701354766  1.0000
  H   H33       1.0  0.4912317894134262  0.02755642917971809  0.6845598131632331  1.0000
  H   H34       1.0  0.5087640257136242  0.9724431086235797  0.31543899537884107  1.0000
  H   H35       1.0  0.2972583778942806  0.07896501322813519  0.643019977353184  1.0000
  H   H36       1.0  0.7027386761724654  0.9210344865995306  0.3569796432484793  1.0000
  H   H37       1.0  0.4660711682358922  0.10248007293012054  0.8581459870249547  1.0000
  H   H38       1.0  0.5339271274534526  0.897519409700898  0.14185298668713392  1.0000
  H   H39       1.0  0.2587814495997733  0.13147636004197244  0.8247201459319059  1.0000
  H   H40       1.0  0.7412183904924774  0.8685241742711157  0.17527973720118692  1.0000
  H   H41       1.0  0.3796870532848047  0.32471603964878426  0.7216870603639337  1.0000
  H   H42       1.0  0.6203130922706492  0.6752855843219977  0.2783129201305741  1.0000
  H   H43       1.0  0.5882307506802178  0.3047299491436988  0.7638981404138718  1.0000
  H   H44       1.0  0.4117693908508997  0.6952716436586002  0.23610402850437143  1.0000
  H   H45       1.0  0.5529652328809576  0.3806104507221307  0.9381920388003522  1.0000
  H   H46       1.0  0.44703273489250245  0.6193922972996474  0.06180933283469867  1.0000
  H   H47       1.0  0.3417136377843875  0.3973215416543566  0.8995501269644635  1.0000
  H   H48       1.0  0.6582831081362741  0.6026768477366248  0.10045085522494904  1.0000
  C   C1        1.0  0.8919689555356456  0.07263340084899278  0.8725993169087121  1.0000
  C   C2        1.0  0.10802964427546162  0.9273671610502349  0.12740048363937015  1.0000
  C   C3        1.0  0.6948878614480306  0.9599286096388937  0.9520455567848317  1.0000
  C   C4        1.0  0.3051104315584254  0.040070852213141  0.0479548758764139  1.0000
  C   C5        1.0  0.7700416714736846  0.0900187560722117  0.008572118540563197  1.0000
  C   C6        1.0  0.22995786181392217  0.9099806781936834  0.9914283967057003  1.0000
  C   C7        1.0  0.013949555553935487  0.2979790421285529  0.9908456984554946  1.0000
  C   C8        1.0  0.9860512220391584  0.7020203957196786  0.009152710952037091  1.0000
  C   C9        1.0  0.9329890664929366  0.4296325727789352  0.982851540976796  1.0000
  C   C10       1.0  0.06701108174541294  0.5703690719708304  0.017146980568554692  1.0000
  C   C11       1.0  0.47220419662527036  0.6301955458828276  0.6174921912286139  1.0000
  C   C12       1.0  0.5277981240292817  0.36980493325796704  0.38250785707450063  1.0000
  C   C13       1.0  0.6138816933071922  0.8182679589710702  0.5588058160844085  1.0000
  C   C14       1.0  0.3861196911879645  0.18173362702407297  0.44119497646968864  1.0000
  C   C15       1.0  0.4800424768015006  0.7514766501767766  0.48695791804230754  1.0000
  C   C16       1.0  0.5199595397312963  0.24852274969581606  0.5130413034248207  1.0000
  C   C17       1.0  0.23639600422755783  0.5294508130137316  0.4786803538756601  1.0000
  C   C18       1.0  0.7636084928675401  0.4705485316865818  0.5213190327614897  1.0000
  C   C19       1.0  0.07844609327944595  0.5592558297324358  0.5211855414076753  1.0000
  C   C20       1.0  0.9215599509014466  0.44074458742892386  0.47881329570131476  1.0000
  C   C21       1.0  0.07423669085777353  0.8698211002586972  0.714911991522115  1.0000
  C   C22       1.0  0.925763162297031  0.1301750062794795  0.28509050264866437  1.0000
  C   C23       1.0  0.26373865654826306  0.8802755110174377  0.709127410289  1.0000
  C   C24       1.0  0.7362599419213894  0.11972504049229828  0.2908731197336607  1.0000
  C   C25       1.0  0.3638551792084784  0.03409756355107161  0.7037855352294855  1.0000
  C   C26       1.0  0.6361421803214711  0.9659030259342953  0.2962141827335855  1.0000
  C   C27       1.0  0.3842338294411364  0.13771460972103  0.7990997176300925  1.0000
  C   C28       1.0  0.6157647703699707  0.8622859521781975  0.20090008291798972  1.0000
  C   C29       1.0  0.4589854641392961  0.29511754149944375  0.7848180230009377  1.0000
  C   C30       1.0  0.5410131356718112  0.7048830203997838  0.21518177754714432  1.0000
  C   C31       1.0  0.4682490380277216  0.404965500512489  0.8758681059607838  1.0000
  C   C32       1.0  0.5317470812210842  0.5950351165590178  0.12413152941727648  1.0000
  C   C33       1.0  0.5329461500935648  0.5612773589428953  0.855987090775109  1.0000
  C   C34       1.0  0.4670512080949366  0.43872322015298  0.14401335666254061  1.0000
  N   N1        1.0  0.7724403251385182  0.9503200827462662  0.867287155817998  1.0000
  N   N2        1.0  0.22755672758678708  0.04967940669190799  0.132713194258244  1.0000
  N   N3        1.0  0.8946295106974488  0.15906113531069366  0.9574010347855053  1.0000
  N   N4        1.0  0.10537156833451176  0.8409393610267486  0.04259966040717702  1.0000
  N   N5        1.0  0.606491442088952  0.7414253697301234  0.6398131139193383  1.0000
  N   N6        1.0  0.3935096382844491  0.258575136996818  0.3601868517987654  1.0000
  N   N7        1.0  0.3926566350830995  0.6321399252876532  0.5251594186484213  1.0000
  N   N8        1.0  0.6073453801082564  0.36785946419544757  0.4748405322932783  1.0000
  O   O1        1.0  0.00044763964245218363  0.7607391752942974  0.7572558728485321  1.0000
  O   O2        1.0  0.9995534578178534  0.23925693482621574  0.24274451548351555  1.0000
  O   O3        1.0  0.9975027036529551  0.960710739398394  0.6793866717097359  1.0000
  O   O4        1.0  0.0024965174642161973  0.0392875532623336  0.3206173935480124  1.0000
  O   O5        1.0  0.44914549090526623  0.6569148264511427  0.8724730521511221  1.0000
  O   O6        1.0  0.550849385379493  0.3430857974275199  0.1275279595910845  1.0000
  O   O7        1.0  0.6763939506776284  0.5828474620091556  0.8189755188778777  1.0000
  O   O8        1.0  0.323604322559035  0.41715637567031644  0.1810259501185882  1.0000
