data_image0
_chemical_formula_structural       Cu2H28C34S2N4O12
_chemical_formula_sum              "Cu2 H28 C34 S2 N4 O12"
_cell_length_a       8.983253957330604
_cell_length_b       11.03079091384551
_cell_length_c       10.879017408834073
_cell_angle_alpha    106.6502198674339
_cell_angle_beta     107.37593668976335
_cell_angle_gamma    106.83425463579498

_space_group_name_H-M_alt    "P 1"
_space_group_IT_number       1

loop_
  _space_group_symop_operation_xyz
  'x, y, z'

loop_
  _atom_site_type_symbol
  _atom_site_label
  _atom_site_symmetry_multiplicity
  _atom_site_fract_x
  _atom_site_fract_y
  _atom_site_fract_z
  _atom_site_occupancy
  Cu  Cu1       1.0  0.12441135067724221  0.9502796330926203  0.8536595989778418  1.0000
  Cu  Cu2       1.0  0.8755900625875981  0.04971720975488839  0.14634171668321735  1.0000
  H   H1        1.0  0.08334012433110873  0.8697634861932786  0.5933021247590986  1.0000
  H   H2        1.0  0.9166662280691326  0.1302385524641352  0.4066991610404642  1.0000
  H   H3        1.0  0.8681591643193582  0.6727553300768321  0.7403990015282601  1.0000
  H   H4        1.0  0.13184164744076549  0.3272405090871402  0.2595899225537011  1.0000
  H   H5        1.0  0.85324574687494  0.4401614436212712  0.7316294791617254  1.0000
  H   H6        1.0  0.1467529019695632  0.5598322968712778  0.26836657551779547  1.0000
  H   H7        1.0  0.3989896500970501  0.6384768703511411  0.9849489795761457  1.0000
  H   H8        1.0  0.6010114128290951  0.3615261979919353  0.01505408928827017  1.0000
  H   H9        1.0  0.3907814072707794  0.8624431627681445  0.9851357133782485  1.0000
  H   H10       1.0  0.6092256916975317  0.1375557683659849  0.014862997039287514  1.0000
  H   H11       1.0  0.8673112288063295  0.30364971915139444  0.8505658906264061  1.0000
  H   H12       1.0  0.132683191980277  0.6963471209915824  0.14943465322193103  1.0000
  H   H13       1.0  0.8694919142615091  0.0781882227557844  0.8411545577547556  1.0000
  H   H14       1.0  0.1305261257008608  0.9218138056291634  0.1588532270371558  1.0000
  H   H15       1.0  0.35198835097319403  0.18512718785436993  0.8433350141182886  1.0000
  H   H16       1.0  0.6480205795782583  0.8148706952882847  0.15666750653021919  1.0000
  H   H17       1.0  0.3723159948254348  0.4211013899890971  0.8541179775114358  1.0000
  H   H18       1.0  0.6276769565161545  0.5788902674333016  0.14587884265709045  1.0000
  H   H19       1.0  0.8666415130589655  0.3524105794471737  0.49231511886006263  1.0000
  H   H20       1.0  0.1333753297014296  0.6476008262966743  0.5076813566038183  1.0000
  H   H21       1.0  0.8817344883971427  0.5893036664932081  0.5186794169121  1.0000
  H   H22       1.0  0.11826979755377919  0.41071293481981297  0.4813127994653356  1.0000
  H   H23       1.0  0.624916292258213  0.6157564658487615  0.3865126455248316  1.0000
  H   H24       1.0  0.3750536165064134  0.38424038178189324  0.6134792177767849  1.0000
  H   H25       1.0  0.3579846386111782  0.40475048744482933  0.21631735296890037  1.0000
  H   H26       1.0  0.6419817145813981  0.5952276575525416  0.7836773217019158  1.0000
  H   H27       1.0  0.9151694806733842  0.8918345859834459  0.5999172752179972  1.0000
  H   H28       1.0  0.08483793904277089  0.10816952003049352  0.4000876365627946  1.0000
  C   C1        1.0  0.981234234566337  0.6588412300436985  0.7938287021678009  1.0000
  C   C2        1.0  0.01876416301988111  0.34115666860394356  0.20616576168217185  1.0000
  C   C3        1.0  0.9744971615310121  0.5311356214031946  0.7917090863629636  1.0000
  C   C4        1.0  0.025500069658882196  0.46886227722839635  0.2082850955386774  1.0000
  C   C5        1.0  0.12567718364480376  0.5196530870686901  0.8600791571430406  1.0000
  C   C6        1.0  0.8743194472551749  0.48034583087980565  0.13992161512582152  1.0000
  C   C7        1.0  0.2775544468277785  0.6406432786736929  0.9297071878930011  1.0000
  C   C8        1.0  0.7224435899273729  0.3593514863522387  0.07029361739920847  1.0000
  C   C9        1.0  0.275051434609246  0.7662348443989729  0.9298267988712682  1.0000
  C   C10       1.0  0.7249494538472164  0.23376096085791434  0.07017408361506484  1.0000
  C   C11       1.0  0.12234299497833231  0.38422084826507336  0.8560625725170894  1.0000
  C   C12       1.0  0.8776566516002687  0.6157770138832888  0.14394505156285217  1.0000
  C   C13       1.0  0.9791879906870804  0.2841693921223793  0.8499887955478728  1.0000
  C   C14       1.0  0.020814309432012  0.7158336449378949  0.15002559379198732  1.0000
  C   C15       1.0  0.9789850707427236  0.15704132852371802  0.845399905364289  1.0000
  C   C16       1.0  0.021025859961845483  0.8429627723218971  0.15460769201601463  1.0000
  C   C17       1.0  0.2508828486318322  0.21958391080820408  0.8484588634040051  1.0000
  C   C18       1.0  0.7491209906063504  0.7804108673391568  0.15153875224356028  1.0000
  C   C19       1.0  0.260482435021423  0.34922194909803744  0.8549873965655834  1.0000
  C   C20       1.0  0.7395179581252478  0.6507728055270405  0.14501765213232423  1.0000
  C   C21       1.0  0.2969654662140968  0.1422569280186323  0.14882816010143773  1.0000
  C   C22       1.0  0.7030283424831579  0.8577409366577199  0.8511771343595953  1.0000
  C   C23       1.0  0.46313187368671294  0.2613225410578011  0.2579288585141768  1.0000
  C   C24       1.0  0.5368629138306814  0.7386774300986403  0.7420662637691819  1.0000
  C   C25       1.0  0.6074814715282812  0.24691068547817718  0.33674028719676136  1.0000
  C   C26       1.0  0.3925254338718815  0.7531017420624265  0.6632596031704308  1.0000
  C   C27       1.0  0.7571993404735905  0.36536048390726705  0.4300881564703616  1.0000
  C   C28       1.0  0.24281236499059125  0.6346498607076256  0.5699150369208112  1.0000
  C   C29       1.0  0.764998051990041  0.4973816025499998  0.44573976806250215  1.0000
  C   C30       1.0  0.23499333532653569  0.5026276885520176  0.5542637182958855  1.0000
  C   C31       1.0  0.6207264548608721  0.5123989180124512  0.3705895628216354  1.0000
  C   C32       1.0  0.3792566863924308  0.4876010451587903  0.6294054996102005  1.0000
  C   C33       1.0  0.4712601180942926  0.3947080065422668  0.27701636490152737  1.0000
  C   C34       1.0  0.5287231399385702  0.6052898814637899  0.7229781131291871  1.0000
  S   S1        1.0  0.602691505283488  0.07937410741024557  0.3267096681530077  1.0000
  S   S2        1.0  0.39732133707842376  0.920636250261886  0.6732892078001953  1.0000
  N   N1        1.0  0.12815851297005307  0.7741354262160839  0.8621499142695868  1.0000
  N   N2        1.0  0.8718464867647385  0.22585935455556694  0.13784706344905118  1.0000
  N   N3        1.0  0.112921519132712  0.12555919524439932  0.8451707416433933  1.0000
  N   N4        1.0  0.8870832529426663  0.874439733249396  0.15482832475473873  1.0000
  O   O1        1.0  0.3111387688378642  0.061540178377598  0.045496539975196995  1.0000
  O   O2        1.0  0.6888583468795203  0.9384504310854285  0.9545046543209638  1.0000
  O   O3        1.0  0.16132533502750587  0.13681502266491916  0.16123563321527706  1.0000
  O   O4        1.0  0.838652290491602  0.8631693662461827  0.8387571750013905  1.0000
  O   O5        1.0  0.44192394676684904  0.0060852703356815  0.329850005910835  1.0000
  O   O6        1.0  0.5580832807804654  0.9939115804167785  0.6701499598600975  1.0000
  O   O7        1.0  0.6177238299399334  0.0137562868698708  0.1947664657198587  1.0000
  O   O8        1.0  0.38228876247075755  0.9862488646235973  0.8052372473972012  1.0000
  O   O9        1.0  0.7587637555558617  0.11209881340105446  0.45078367451243656  1.0000
  O   O10       1.0  0.24123932981522228  0.8879198265457829  0.5492217225994196  1.0000
  O   O11       1.0  0.9913761749583614  0.8487838857254743  0.6306131295802898  1.0000
  O   O12       1.0  0.008627856448668977  0.1512181476833661  0.36938943207713487  1.0000
