data_image0
_chemical_formula_structural       Sr4H36C44N12O20
_chemical_formula_sum              "Sr4 H36 C44 N12 O20"
_cell_length_a       6.750649723
_cell_length_b       12.866206028064266
_cell_length_c       14.696
_cell_angle_alpha    112.85431036934811
_cell_angle_beta     90.0
_cell_angle_gamma    90.0

_space_group_name_H-M_alt    "P 1"
_space_group_IT_number       1

loop_
  _space_group_symop_operation_xyz
  'x, y, z'

loop_
  _atom_site_type_symbol
  _atom_site_label
  _atom_site_symmetry_multiplicity
  _atom_site_fract_x
  _atom_site_fract_y
  _atom_site_fract_z
  _atom_site_occupancy
  Sr  Sr1       1.0  0.5519468722107207  0.8465277625585301  0.03471151988092924  1.0000
  Sr  Sr2       1.0  0.0519490737025166  0.6534760526766519  0.965290730057589  1.0000
  Sr  Sr3       1.0  0.4480531688223693  0.1534739374874619  0.9652887860045494  1.0000
  Sr  Sr4       1.0  0.9480524486694648  0.346524803925206  0.03470996948798442  1.0000
  H   H1        1.0  0.9250828077663515  0.1845295503841129  0.7375185001433235  1.0000
  H   H2        1.0  0.4250968599693081  0.3154658172520328  0.2624825104468441  1.0000
  H   H3        1.0  0.07491278925004963  0.8154696193294839  0.2624802648933624  1.0000
  H   H4        1.0  0.5749105877582537  0.6845291352409147  0.7375182228903014  1.0000
  H   H5        1.0  0.023960656623749802  0.2940035378992789  0.7062842884609636  1.0000
  H   H6        1.0  0.5239628991486356  0.2059901428486057  0.2937175094493867  1.0000
  H   H7        1.0  0.9760364217315499  0.7059939449260568  0.2937125420668352  1.0000
  H   H8        1.0  0.4760371418844542  0.794004809644342  0.7062845848022902  1.0000
  H   H9        1.0  0.7379289704556342  0.0263964275180228  0.6128712222621573  1.0000
  H   H10       1.0  0.2379252465918498  0.4735980966739888  0.3871260992445044  1.0000
  H   H11       1.0  0.262076995933036  0.9735993684190518  0.3871277565003623  1.0000
  H   H12       1.0  0.7620836824746038  0.526401073039608  0.6128733462494508  1.0000
  H   H13       1.0  0.6703502900738485  0.9201056113102908  0.432715437524237  1.0000
  H   H14       1.0  0.1703391595155921  0.5798914563718469  0.5672804352932701  1.0000
  H   H15       1.0  0.329661601670395  0.0798901846267839  0.5672835412382823  1.0000
  H   H16       1.0  0.829663844195281  0.4201102436741451  0.43271646830586963  1.0000
  H   H17       1.0  0.9560057571957687  0.2993045842614634  0.5393994107780742  1.0000
  H   H18       1.0  0.4560109213653548  0.20069584403947263  0.4606040010524096  1.0000
  H   H19       1.0  0.04398391446505911  0.7006937420080064  0.4605983870041682  1.0000
  H   H20       1.0  0.5439817129732561  0.7993033256741314  0.5393988467278773  1.0000
  H   H21       1.0  0.8859961996875756  0.1801934041075839  0.36220833824798854  1.0000
  H   H22       1.0  0.3859984011793784  0.3198120848581283  0.6377947529937558  1.0000
  H   H23       1.0  0.11399791598992691  0.8198049221618788  0.6377894595342538  1.0000
  H   H24       1.0  0.6139942331592396  0.6801921455202519  0.36220777419778466  1.0000
  H   H25       1.0  0.5197870048041295  0.2022992313321481  0.7722569869143284  1.0000
  H   H26       1.0  0.019795131651505905  0.29770541418943  0.2277458175302343  1.0000
  H   H27       1.0  0.48021007355117024  0.7977024687138368  0.22774263851388812  1.0000
  H   H28       1.0  0.9802078720593671  0.7022962858565549  0.7722565297270448  1.0000
  H   H29       1.0  0.4180871643190116  0.9855467545320593  0.233046525917608  1.0000
  H   H30       1.0  0.9180908881827963  0.5144536869266005  0.7669559377467436  1.0000
  H   H31       1.0  0.581909914036288  0.0144541020697986  0.7669541736279655  1.0000
  H   H32       1.0  0.08191063418918532  0.4855471696752645  0.2330440813415606  1.0000
  H   H33       1.0  0.6322961752047648  0.9743660591339633  0.28023752971108007  1.0000
  H   H34       1.0  0.1322954140187704  0.5256343823246965  0.7197622121241947  1.0000
  H   H35       1.0  0.3677053471672167  0.0256322671355065  0.7197616289856937  1.0000
  H   H36       1.0  0.8677046270143123  0.4743673177212955  0.2802374133040145  1.0000
  C   C1        1.0  0.5543214584591212  0.5930567758097567  0.9045544122327056  1.0000
  C   C2        1.0  0.05431329057865501  0.9069487263136864  0.09544841130016123  1.0000
  C   C3        1.0  0.4456830265906504  0.4069449242362353  0.09544657411004212  1.0000
  C   C4        1.0  0.9456837877766449  0.09305044339991042  0.904551034193787  1.0000
  C   C5        1.0  0.5654892723871825  0.4711993415659492  0.8395154018060607  1.0000
  C   C6        1.0  0.0654840671845065  0.0288027736232479  0.1604892640760482  1.0000
  C   C7        1.0  0.43451076864590743  0.5287998281476476  0.16048404368789454  1.0000
  C   C8        1.0  0.9345130111707932  0.9711980829786171  0.8395134768413257  1.0000
  C   C9        1.0  0.4490441845430055  0.3800339957984065  0.8364763446018131  1.0000
  C   C10       1.0  0.9490434643901013  0.11997233661143979  0.1635277138943678  1.0000
  C   C11       1.0  0.5509558564900843  0.6199677042475784  0.16352396128366561  1.0000
  C   C12       1.0  0.05095361396519851  0.8800293634345522  0.8364746333629113  1.0000
  C   C13       1.0  0.2611511591237702  0.3655259133042392  0.8835015023999018  1.0000
  C   C14       1.0  0.7611519203097572  0.1344837928821292  0.11650370328498379  1.0000
  C   C15       1.0  0.7388503632482113  0.6344757867417528  0.11649948394284591  1.0000
  C   C16       1.0  0.2388481207233255  0.8655187506079898  0.8835002916840081  1.0000
  C   C17       1.0  0.7283017489781827  0.3185874039801817  0.7525368700380851  1.0000
  C   C18       1.0  0.22830543180887736  0.1814147112090083  0.24746575447221625  1.0000
  C   C19       1.0  0.2716968107160085  0.6814126091775492  0.2474621817957754  1.0000
  C   C20       1.0  0.7716960905631042  0.8185869888369836  0.7525365927850629  1.0000
  C   C21       1.0  0.8929570111543441  0.2408252288954458  0.6989797759943172  1.0000
  C   C22       1.0  0.3929651380017276  0.259171825628961  0.3010224886474687  1.0000
  C   C23       1.0  0.10703858586205683  0.759173097374024  0.3010180217879252  1.0000
  C   C24       1.0  0.6070378657091524  0.7408265006405087  0.6989793918783817  1.0000
  C   C25       1.0  0.8514069364934826  0.172595659377194  0.59119264283418  1.0000
  C   C26       1.0  0.3514076566463871  0.3274039254796008  0.408809121284598  1.0000
  C   C27       1.0  0.14859162320070857  0.8274018234481416  0.40880554860815005  1.0000
  C   C28       1.0  0.6485923843867027  0.672597774566384  0.5911932259726881  1.0000
  C   C29       1.0  0.7711894726610782  0.0639305347834807  0.5596071733563122  1.0000
  C   C30       1.0  0.2711887114750837  0.43606651974092614  0.4403910085418659  1.0000
  C   C31       1.0  0.2288135310498021  0.936065261153594  0.44039112494893823  1.0000
  C   C32       1.0  0.7288172549135794  0.5639334934168048  0.5596087237492638  1.0000
  C   C33       1.0  0.7348107520820337  0.0045613458594573  0.4593817013574365  1.0000
  C   C34       1.0  0.23480406554046604  0.4954373955532105  0.5406156932205589  1.0000
  C   C35       1.0  0.26519521430663673  0.9954327631893564  0.5406167038107269  1.0000
  C   C36       1.0  0.7651989381704141  0.5045651479369084  0.45938353854755576  1.0000
  C   C37       1.0  0.8927125902366981  0.2152924881673783  0.5188586847748553  1.0000
  C   C38       1.0  0.3927177544062914  0.2847104704659458  0.48114422653262773  1.0000
  C   C39       1.0  0.107278562763014  0.7847058381020915  0.48113911300738715  1.0000
  C   C40       1.0  0.6072793239490082  0.7152920730241732  0.5188590879790951  1.0000
  C   C41       1.0  0.8535682099410238  0.1492972021516579  0.42011924684834406  1.0000
  C   C42       1.0  0.3535704114328269  0.35070406959340517  0.5798817299502516  1.0000
  C   C43       1.0  0.1464273870753772  0.8506985937854168  0.5798783709996442  1.0000
  C   C44       1.0  0.6464266669224727  0.6492976304525868  0.4201192563924962  1.0000
  N   N1        1.0  0.735915830897568  0.4305849763347496  0.7850411311174809  1.0000
  N   N2        1.0  0.23591062569489202  0.0694154519661794  0.21496228071300996  1.0000
  N   N3        1.0  0.2640856914744134  0.5694150368229742  0.2149579207163795  1.0000
  N   N4        1.0  0.764084971321509  0.9305862480798126  0.7850407470015383  1.0000
  N   N5        1.0  0.5563405233727607  0.2850385702328353  0.7809863295560859  1.0000
  N   N6        1.0  0.0563442062034554  0.2149652318446158  0.21901686854857158  1.0000
  N   N7        1.0  0.443656554982539  0.7149622863690226  0.21901232861768696  1.0000
  N   N8        1.0  0.9436543534907358  0.785034781313108  0.7809849051143587  1.0000
  N   N9        1.0  0.7738899534663375  0.04560755448562761  0.39005684050693645  1.0000
  N   N10       1.0  0.27388622960255304  0.4543962475918235  0.6099443162259205  1.0000
  N   N11       1.0  0.2261115689056439  0.9543890848955741  0.6099431055100268  1.0000
  N   N12       1.0  0.7261108487527397  0.5456096696748176  0.3900567431881683  1.0000
  O   O1        1.0  0.6926992499800306  0.6571096099922045  0.896314630079857  1.0000
  O   O2        1.0  0.1926940447773546  0.8428950486871045  0.10368586528403505  1.0000
  O   O3        1.0  0.3073037537308494  0.3428920900537804  0.1036849953483525  1.0000
  O   O4        1.0  0.807303033577945  0.1571049644706193  0.8963145474643636  1.0000
  O   O5        1.0  0.4197936667258447  0.6281887541906457  0.9695515453736403  1.0000
  O   O6        1.0  0.9197899838951571  0.8718159044886634  0.030450991362052135  1.0000
  O   O7        1.0  0.5802093369850284  0.37181294585533925  0.030449440969100298  1.0000
  O   O8        1.0  0.08021005713793272  0.1281849521131946  0.9695483472689901  1.0000
  O   O9        1.0  0.1383348326929621  0.44589264386493704  0.9198263709231682  1.0000
  O   O10       1.0  0.638337075217848  0.054112845100782195  0.08017603986130689  1.0000
  O   O11       1.0  0.8616652083401279  0.5541090561810549  0.08017461541957968  1.0000
  O   O12       1.0  0.3616629658152419  0.9458905418334709  0.9198268809903282  1.0000
  O   O13       1.0  0.23287388096051134  0.2684927267186126  0.8852248183665381  1.0000
  O   O14       1.0  0.7328761234853973  0.2315136056912337  0.11477855967237359  1.0000
  O   O15       1.0  0.7671261600725785  0.7315089733273794  0.11477548751894061  1.0000
  O   O16       1.0  0.2671239175476927  0.7684906246871464  0.8852246479764361  1.0000
  O   O17       1.0  0.5269492783605969  0.9313959544453922  0.23282764006363982  1.0000
  O   O18       1.0  0.0269514798523929  0.5686044870132605  0.7671727822289113  1.0000
  O   O19       1.0  0.4730492813335944  0.0686040587123316  0.7671707313129515  1.0000
  O   O20       1.0  0.9730500425195886  0.43139636958859745  0.2328279173166621  1.0000
