data_image0
_chemical_formula_structural       Zn3H32C50N14O18
_chemical_formula_sum              "Zn3 H32 C50 N14 O18"
_cell_length_a       7.858263966634417
_cell_length_b       8.789873984026563
_cell_length_c       18.142026332469296
_cell_angle_alpha    84.54733318479904
_cell_angle_beta     84.3409448884385
_cell_angle_gamma    81.641503366348

_space_group_name_H-M_alt    "P 1"
_space_group_IT_number       1

loop_
  _space_group_symop_operation_xyz
  'x, y, z'

loop_
  _atom_site_type_symbol
  _atom_site_label
  _atom_site_symmetry_multiplicity
  _atom_site_fract_x
  _atom_site_fract_y
  _atom_site_fract_z
  _atom_site_occupancy
  Zn  Zn1       1.0  0.5228034680079149  0.2514347920045025  0.41850917301709956  1.0000
  Zn  Zn2       1.0  0.4771951427448897  0.7485643746596438  0.5814907984839052  1.0000
  Zn  Zn3       1.0  1.9459118759995933e-07  2.2705046379959958e-07  0.49999965277952185  1.0000
  H   H1        1.0  0.993411338449406  0.2984412342445992  0.5117483348631495  1.0000
  H   H2        1.0  0.006586928716963317  0.7015602380749756  0.4882509921818253  1.0000
  H   H3        1.0  0.16235245226197756  0.2715488568938866  0.45556234736463347  1.0000
  H   H4        1.0  0.8376459869758152  0.7284514635254098  0.5444375774565271  1.0000
  H   H5        1.0  0.3918601841246386  0.6670993248139041  0.7514300086346919  1.0000
  H   H6        1.0  0.6081385998123993  0.3328986936597148  0.24857166283521076  1.0000
  H   H7        1.0  0.9732957189955441  0.16228358660318784  0.9184852343013432  1.0000
  H   H8        1.0  0.026708525088565728  0.8377121000158355  0.08151520923801306  1.0000
  H   H9        1.0  0.1074125188275801  0.19741636317030503  0.3341355581323312  1.0000
  H   H10       1.0  0.8925870278962549  0.8025851039906374  0.665863714138254  1.0000
  H   H11       1.0  0.44300505373215776  0.9474096710663671  0.1910204642199957  1.0000
  H   H12       1.0  0.5569985037354999  0.0525906287183915  0.8089792415036284  1.0000
  H   H13       1.0  0.2745539065198628  0.5042055197759225  0.25465550732691605  1.0000
  H   H14       1.0  0.7254445332743416  0.49579480249825286  0.7453449685906007  1.0000
  H   H15       1.0  0.27338513919999496  0.4799177395334199  0.9958376404917499  1.0000
  H   H16       1.0  0.7266229413308737  0.5200779241901898  0.004160434339056002  1.0000
  H   H17       1.0  0.03382613447457321  0.2705566095891641  0.7893716815014926  1.0000
  H   H18       1.0  0.9661735843206861  0.7294437056714999  0.21062818854529297  1.0000
  H   H19       1.0  0.18183120945331416  0.5098349983359469  0.5728939896351192  1.0000
  H   H20       1.0  0.8181708974982771  0.4901664622174735  0.4271062752793994  1.0000
  H   H21       1.0  0.33190892024172314  0.5866829413754643  0.8682812684709373  1.0000
  H   H22       1.0  0.6680909689557241  0.4133162164202915  0.131717546062994  1.0000
  H   H23       1.0  0.7848143442543504  0.059151221006096905  0.15520944598247147  1.0000
  H   H24       1.0  0.215185201913073  0.9408502442999662  0.8447892751917649  1.0000
  H   H25       1.0  0.8095497136447138  0.8346593007110101  0.3853003714853712  1.0000
  H   H26       1.0  0.1904472739641889  0.1653421767671972  0.6146990103339858  1.0000
  H   H27       1.0  0.3085534182843049  0.31336286256684087  0.0850837347171876  1.0000
  H   H28       1.0  0.6914506537283887  0.6866339759524535  0.9149161110459758  1.0000
  H   H29       1.0  0.24907029960844806  0.20996522002131  0.21361111354575257  1.0000
  H   H30       1.0  0.7509277971557254  0.7900374097631657  0.7863892690120762  1.0000
  H   H31       1.0  0.844534642298754  0.16412941031557443  0.0250803461410811  1.0000
  H   H32       1.0  0.15546729146859667  0.8358731984283736  0.9749182188045392  1.0000
  C   C1        1.0  0.37205226438845784  0.7916460225644145  0.4464625307189749  1.0000
  C   C2        1.0  0.6279474544068009  0.20835429269624942  0.5535373393278036  1.0000
  C   C3        1.0  0.36069528387947986  0.7743404882801385  0.36493446905004834  1.0000
  C   C4        1.0  0.6393044354721839  0.225659828835397  0.6350659520930789  1.0000
  C   C5        1.0  0.30961994760900075  0.6371457555991853  0.34468375701380427  1.0000
  C   C6        1.0  0.6903784921852035  0.36285456667498295  0.6553167189037126  1.0000
  C   C7        1.0  0.4101314457581183  0.8856504188238576  0.30862635408954725  1.0000
  C   C8        1.0  0.589869381079595  0.11435104503331671  0.6913734145030046  1.0000
  C   C9        1.0  0.24821763900040145  0.517907604249217  0.4026902931914975  1.0000
  C   C10       1.0  0.7517820809076738  0.4820927147211976  0.5973106790479789  1.0000
  C   C11       1.0  0.08192711886849222  0.24730924387460362  0.044637815043771  1.0000
  C   C12       1.0  0.9180782321452629  0.7526875876311792  0.9553614248486535  1.0000
  C   C13       1.0  0.3188543158926151  0.6041864976356807  0.719969917487141  1.0000
  C   C14       1.0  0.6811466835729264  0.39581381617609424  0.2800309999779529  1.0000
  C   C15       1.0  0.1828856061888402  0.43667560434494856  0.8209256758443216  1.0000
  C   C16       1.0  0.8171118965215031  0.5633224137226733  0.17907439711091644  1.0000
  C   C17       1.0  0.1183787630622462  0.311819447447519  0.9675931568401662  1.0000
  C   C18       1.0  0.8816253083940353  0.6881773892169039  0.0324061378266407  1.0000
  C   C19       1.0  0.0501697228017122  0.2568166888083425  0.9081143783308079  1.0000
  C   C20       1.0  0.9498330696535079  0.7431801548695846  0.09188552220673779  1.0000
  C   C21       1.0  0.3582886230791757  0.7237656911663424  0.21557354027840595  1.0000
  C   C22       1.0  0.6417123747171375  0.27623461708081015  0.784425723897641  1.0000
  C   C23       1.0  0.029318974055755103  0.10670290741894921  0.3302009997392545  1.0000
  C   C24       1.0  0.9706792936670257  0.8932985667555045  0.6697988784020693  1.0000
  C   C25       1.0  0.4065282411341118  0.8602905410999214  0.23396730930139137  1.0000
  C   C26       1.0  0.5934727572186065  0.13970976900210993  0.7660325059710046  1.0000
  C   C27       1.0  0.010414706248177199  0.13154080384029504  0.19216354443141626  1.0000
  C   C28       1.0  0.98958501199067  0.8684595095654901  0.8078357745190132  1.0000
  C   C29       1.0  0.31140648813262584  0.6108085727643556  0.2699319153495025  1.0000
  C   C30       1.0  0.6885941671900752  0.3891940448479758  0.7300678065632056  1.0000
  C   C31       1.0  0.22115006886652822  0.4312228935824011  0.9512628537957821  1.0000
  C   C32       1.0  0.7788551106322147  0.568775091678539  0.04873633941679857  1.0000
  C   C33       1.0  0.0816624544077413  0.317566519865892  0.8353616003069602  1.0000
  C   C34       1.0  0.9183361557886512  0.6824326449433756  0.1646378200977026  1.0000
  C   C35       1.0  0.20926393517742534  0.5241631629401412  0.6292528842791539  1.0000
  C   C36       1.0  0.7907381723305703  0.4758382994681512  0.3707479317317136  1.0000
  C   C37       1.0  0.2534639401242559  0.4934293248303234  0.8787879624161617  1.0000
  C   C38       1.0  0.7465372297434814  0.5065698315165506  0.12121189953607815  1.0000
  C   C39       1.0  0.8987817971869348  0.11560136265030255  0.1388116101537946  1.0000
  C   C40       1.0  0.10121920005296656  0.884398943741971  0.8611871029259032  1.0000
  C   C41       1.0  0.8766194863052591  0.9224400974633513  0.3539434278754711  1.0000
  C   C42       1.0  0.12337750130364364  0.07756138001485621  0.646055953943886  1.0000
  C   C43       1.0  0.19175408806972877  0.2603658944690679  0.09968925892547986  1.0000
  C   C44       1.0  0.8082510919854189  0.7396320926467438  0.9003104853834498  1.0000
  C   C45       1.0  0.1572546420771275  0.2040026566525839  0.17297543395616796  1.0000
  C   C46       1.0  0.8427461847605857  0.7959988072045973  0.8270243346363838  1.0000
  C   C47       1.0  0.9351938796873256  0.17323569306370964  0.06574248326480608  1.0000
  C   C48       1.0  0.0648085691814657  0.8267634562696459  0.9342567728166955  1.0000
  C   C49       1.0  0.4651445440602658  0.036390791067226806  0.3241004111876008  1.0000
  C   C50       1.0  0.534852617289289  0.9636095400753392  0.6759012216969964  1.0000
  N   N1        1.0  0.9685874849297847  0.014809011079343298  0.38640280377649816  1.0000
  N   N2        1.0  0.031410782236584125  0.9851924612402314  0.6135965232684767  1.0000
  N   N3        1.0  0.21576767273218422  0.49812658318943204  0.7463456634352423  1.0000
  N   N4        1.0  0.7842307665056083  0.5018737372298645  0.25365426138592534  1.0000
  N   N5        1.0  0.9755523486853123  0.06968489569784712  0.2663931214612631  1.0000
  N   N6        1.0  0.024444467408578387  0.9303177355355179  0.73360621367825  1.0000
  N   N7        1.0  0.14418070252888524  0.4466763303197255  0.6889391701475418  1.0000
  N   N8        1.0  0.8558190168227854  0.5533239867958174  0.3110612509955927  1.0000
  N   N9        1.0  0.35747615486117473  0.6984399286478363  0.13680381986178958  1.0000
  N   N10       1.0  0.6425248434915505  0.30156038145419484  0.8631959954106064  1.0000
  N   N11       1.0  0.8775260135737142  0.9520727893079627  0.28107858350902853  1.0000
  N   N12       1.0  0.12246952351912195  0.0479298489389137  0.7189213575012161  1.0000
  N   N13       1.0  0.31695217559811795  0.6232925607143259  0.6459772012056177  1.0000
  N   N14       1.0  0.6830480594114051  0.37670429884550327  0.35402446216974676  1.0000
  O   O1        1.0  0.5036135480788175  0.7095977300089589  0.47381429785127677  1.0000
  O   O2        1.0  0.4963848917153796  0.29040259226520965  0.5261861780662398  1.0000
  O   O3        1.0  0.2885393016884307  0.37412153631812123  0.38915215037533096  1.0000
  O   O4        1.0  0.7114613536342702  0.6258810812942172  0.6108475715373771  1.0000
  O   O5        1.0  0.339764648399502  0.5670574081349641  0.12145911670695848  1.0000
  O   O6        1.0  0.6602348994371566  0.4329440627357286  0.8785412577563321  1.0000
  O   O7        1.0  0.26013390967685274  0.873587185677799  0.48527154653003624  1.0000
  O   O8        1.0  0.7398634220748975  0.1264119879998518  0.514729030841707  1.0000
  O   O9        1.0  0.08588227896919423  0.21813245897200773  0.49318177919079165  1.0000
  O   O10       1.0  0.9141172688674644  0.7818690118986851  0.5068185952724986  1.0000
  O   O11       1.0  0.159291811171002  0.5615996987794533  0.45965527033667525  1.0000
  O   O12       1.0  0.8407064565517787  0.4384017753949935  0.5403446078046412  1.0000
  O   O13       1.0  0.3732437595301408  0.809060325333931  0.08994277762774769  1.0000
  O   O14       1.0  0.626757411450413  0.19093883472270085  0.9100581865171903  1.0000
  O   O15       1.0  0.49282412604137704  0.047448049767510304  0.39229083582143426  1.0000
  O   O16       1.0  0.5071679176347247  0.952552303864465  0.6077115672570484  1.0000
  O   O17       1.0  0.47789974871026436  0.138905586093486  0.2718777367863793  1.0000
  O   O18       1.0  0.5220985212381564  0.8610958955004692  0.7281243457403404  1.0000
