data_image0
_chemical_formula_structural       Ag4H24C28N20
_chemical_formula_sum              "Ag4 H24 C28 N20"
_cell_length_a       8.3438656121218
_cell_length_b       8.343847910869986
_cell_length_c       12.584839698394026
_cell_angle_alpha    71.27515642734315
_cell_angle_beta     71.27533653712227
_cell_angle_gamma    72.36576662266516

_space_group_name_H-M_alt    "P 1"
_space_group_IT_number       1

loop_
  _space_group_symop_operation_xyz
  'x, y, z'

loop_
  _atom_site_type_symbol
  _atom_site_label
  _atom_site_symmetry_multiplicity
  _atom_site_fract_x
  _atom_site_fract_y
  _atom_site_fract_z
  _atom_site_occupancy
  Ag  Ag1       1.0  0.8737713006018524  0.9475300613203073  0.9083772782005965  1.0000
  Ag  Ag2       1.0  0.05247196580449301  0.12622952328302967  0.5916223284620585  1.0000
  Ag  Ag3       1.0  0.1262268325909233  0.052474834532418406  0.0916213509707902  1.0000
  Ag  Ag4       1.0  0.9475300785232005  0.8737688535638951  0.4083776529215158  1.0000
  H   H1        1.0  0.6680307630545883  0.4312415207244341  0.795731683941348  1.0000
  H   H2        1.0  0.56875725280603  0.3319654452190051  0.7042682510956054  1.0000
  H   H3        1.0  0.3319715540637064  0.5687555564978551  0.204267722386092  1.0000
  H   H4        1.0  0.4312394372132928  0.668034285848087  0.2957302017357932  1.0000
  H   H5        1.0  0.6373492237715511  0.18169125724870125  0.15642408420303866  1.0000
  H   H6        1.0  0.818307424419075  0.3626534579914066  0.3435758399426233  1.0000
  H   H7        1.0  0.3626550869186573  0.8183083903213059  0.8435767301186557  1.0000
  H   H8        1.0  0.18169280234221213  0.6373475301498815  0.6564239717289694  1.0000
  H   H9        1.0  0.7755481547346507  0.3990912958466311  0.1682994770529405  1.0000
  H   H10       1.0  0.6009080058823385  0.22445595158034587  0.3316991553721564  1.0000
  H   H11       1.0  0.22445207363239914  0.6009096938984512  0.8317011285408353  1.0000
  H   H12       1.0  0.3990942096336027  0.7755476020973047  0.6682996825271559  1.0000
  H   H13       1.0  0.8599393176833772  0.631028465751015  0.9957076861381393  1.0000
  H   H14       1.0  0.3689734275931329  0.1400557467585912  0.5042910258361032  1.0000
  H   H15       1.0  0.14005247645824428  0.36897651117639907  0.004294664900292831  1.0000
  H   H16       1.0  0.631028163121158  0.8599387432595266  0.4957059105547969  1.0000
  H   H17       1.0  0.500446400268288  0.20226577798172937  0.9089060944236705  1.0000
  H   H18       1.0  0.7977339238787096  0.49955189999771216  0.5910956251152726  1.0000
  H   H19       1.0  0.4995553728745605  0.7977339000936112  0.09109525593822099  1.0000
  H   H20       1.0  0.20226685006953463  0.5004464904980922  0.4089038303662277  1.0000
  H   H21       1.0  0.5160554406977907  0.09643530429969618  0.04398749666713546  1.0000
  H   H22       1.0  0.9035632818072943  0.4839436210161096  0.4560139892626579  1.0000
  H   H23       1.0  0.4839463324450578  0.9035643737756515  0.9560138536947562  1.0000
  H   H24       1.0  0.09643649615787102  0.5160534851077259  0.5439851591828031  1.0000
  C   C1        1.0  0.8117192987740508  0.684856671703578  0.7811386937333464  1.0000
  C   C2        1.0  0.3151453322965097  0.1882782235546259  0.7188609810293015  1.0000
  C   C3        1.0  0.18827839204562474  0.31514434854683765  0.21886244790062648  1.0000
  C   C4        1.0  0.6848582503839539  0.8117188352074223  0.28113656943367  1.0000
  C   C5        1.0  0.768322461751076  0.546573076137683  0.8842850934974817  1.0000
  C   C6        1.0  0.4534322527977038  0.23167155079823226  0.6157138979980343  1.0000
  C   C7        1.0  0.23167341310795564  0.45343055701087565  0.11571667234668574  1.0000
  C   C8        1.0  0.54656879072963  0.768325536865369  0.3842833945829652  1.0000
  C   C9        1.0  0.6926614251188354  0.4227839381783269  0.8774278744695465  1.0000
  C   C10       1.0  0.5772159465958568  0.30733350975403073  0.622573709499946  1.0000
  C   C11       1.0  0.30733654009720385  0.5772157840512334  0.12257348603046832  1.0000
  C   C12       1.0  0.42278510335450636  0.6926635843247125  0.3774267587697723  1.0000
  C   C13       1.0  0.6461653221668656  0.2903942591776029  0.9745805490332415  1.0000
  C   C14       1.0  0.7096094646792396  0.35382929586884854  0.5254203468415354  1.0000
  C   C15       1.0  0.3538333646358963  0.7096080454447745  0.02542089963677093  1.0000
  C   C16       1.0  0.29039185966748  0.6461665001890393  0.47458034029422447  1.0000
  C   C17       1.0  0.6763917502339112  0.2829411306661526  0.07985237585543102  1.0000
  C   C18       1.0  0.7170611924537126  0.3236079521227849  0.42014894887226006  1.0000
  C   C19       1.0  0.3236079325519299  0.7170624583281934  0.9201493798506204  1.0000
  C   C20       1.0  0.2829387647284917  0.6763943388507129  0.5798530256998333  1.0000
  C   C21       1.0  0.7530371198407052  0.40506146805115145  0.08635772529298444  1.0000
  C   C22       1.0  0.5949407501097782  0.2469624462880589  0.413641232760227  1.0000
  C   C23       1.0  0.24696437730002424  0.594939506441257  0.9136426122806893  1.0000
  C   C24       1.0  0.4050638301595271  0.7530358984497454  0.5863574186609667  1.0000
  C   C25       1.0  0.7994181526387862  0.5369370782158994  0.9894822059123527  1.0000
  C   C26       1.0  0.46306037854833454  0.20058190306797744  0.5105172074753594  1.0000
  C   C27       1.0  0.20057854540932857  0.4630626608701149  0.010520216529947404  1.0000
  C   C28       1.0  0.5369373042425565  0.7994191091635089  0.48947996454771203  1.0000
  N   N1        1.0  0.8538838033425191  0.8312145530069728  0.7778602340348186  1.0000
  N   N2        1.0  0.16878744905831414  0.14611497832341766  0.7221398876250189  1.0000
  N   N3        1.0  0.1461151562508434  0.16878645199077622  0.2221406395790524  1.0000
  N   N4        1.0  0.8312133264956926  0.8538834137761738  0.27786036177865725  1.0000
  N   N5        1.0  0.8837622747081613  0.9202166928886154  0.6660432807101699  1.0000
  N   N6        1.0  0.07978333234442658  0.116238895585866  0.8339559135431783  1.0000
  N   N7        1.0  0.1162356872963599  0.07978302613337719  0.3339564919454858  1.0000
  N   N8        1.0  0.9202181631905477  0.8837620773027552  0.16604363010831252  1.0000
  N   N9        1.0  0.8594463768731443  0.8317036514367471  0.6044199493347621  1.0000
  N   N10       1.0  0.16829738305021644  0.14055432552141403  0.8955799723668532  1.0000
  N   N11       1.0  0.14055186273925102  0.16829477277196497  0.3955816300313017  1.0000
  N   N12       1.0  0.8317053812584444  0.8594466321145405  0.10441930326453536  1.0000
  N   N13       1.0  0.8146189681924838  0.6840563249368257  0.673418487237967  1.0000
  N   N14       1.0  0.3159448071397506  0.1853791000626899  0.8265812600273461  1.0000
  N   N15       1.0  0.18537899702355526  0.3159433972927346  0.3265828732620476  1.0000
  N   N16       1.0  0.6840569611858242  0.8146205732013032  0.17341770856800315  1.0000
  N   N17       1.0  0.578099137779894  0.16223590019707504  0.9656891713329897  1.0000
  N   N18       1.0  0.8377639655519928  0.42189969880074324  0.5343124875622108  1.0000
  N   N19       1.0  0.42190236257235375  0.8377650775029081  0.03431275408504327  1.0000
  N   N20       1.0  0.16223499243560724  0.5781013045932113  0.4656875921294769  1.0000
