data_image0
_chemical_formula_structural       Cd4H12C28N4O16
_chemical_formula_sum              "Cd4 H12 C28 N4 O16"
_cell_length_a       6.717264795788249
_cell_length_b       9.563264189082984
_cell_length_c       11.213257596090799
_cell_angle_alpha    89.99959145369968
_cell_angle_beta     103.44438474206437
_cell_angle_gamma    90.00030887100718

_space_group_name_H-M_alt    "P 1"
_space_group_IT_number       1

loop_
  _space_group_symop_operation_xyz
  'x, y, z'

loop_
  _atom_site_type_symbol
  _atom_site_label
  _atom_site_symmetry_multiplicity
  _atom_site_fract_x
  _atom_site_fract_y
  _atom_site_fract_z
  _atom_site_occupancy
  Cd  Cd1       1.0  0.1881010113611481  0.8553496864946407  0.9777693045329556  1.0000
  Cd  Cd2       1.0  0.31189218921846873  0.35535094667828554  0.5222322281920668  1.0000
  Cd  Cd3       1.0  0.8119006807017543  0.14465282656634318  0.022229755125792422  1.0000
  Cd  Cd4       1.0  0.6881094911338721  0.6446505207073157  0.4777686134288641  1.0000
  H   H1        1.0  0.44918921277105983  0.38133949023855235  0.19157342444333378  1.0000
  H   H2        1.0  0.0507831733206032  0.8813412086874021  0.3084353098751365  1.0000
  H   H3        1.0  0.5508094121604472  0.6186609314788567  0.8084260930081797  1.0000
  H   H4        1.0  0.9491970430028118  0.11865816731371838  0.6915678452816181  1.0000
  H   H5        1.0  0.10651213484432283  0.31077566822031594  0.819050492129655  1.0000
  H   H6        1.0  0.3935191323895141  0.8107692141202631  0.6809468950366693  1.0000
  H   H7        1.0  0.8934926419049846  0.6892268448590568  0.1809454368029293  1.0000
  H   H8        1.0  0.6064886939145352  0.18923016195137168  0.3190512490562938  1.0000
  H   H9        1.0  0.05456117413936569  0.5694613886614235  0.7989364685815871  1.0000
  H   H10       1.0  0.4454425924958087  0.06945748759163448  0.7010665561375333  1.0000
  H   H11       1.0  0.945443590902485  0.4305411244106381  0.20106124231035943  1.0000
  H   H12       1.0  0.554560641897929  0.9305408428062663  0.2989309381694056  1.0000
  C   C1        1.0  0.4003865656364383  0.6618576503157882  0.1885022817527044  1.0000
  C   C2        1.0  0.09961681799258319  0.16185577594923467  0.31148901881037  1.0000
  C   C3        1.0  0.5996135957845466  0.3381427714071705  0.8114965613154083  1.0000
  C   C4        1.0  0.9003833258579235  0.8381415087585465  0.688512497205238  1.0000
  C   C5        1.0  0.3204948815552908  0.5595068912880734  0.08529741092136328  1.0000
  C   C6        1.0  0.17950629005215293  0.059507599360799183  0.41470580752773856  1.0000
  C   C7        1.0  0.6795083587014545  0.44049457611768605  0.9146991923974426  1.0000
  C   C8        1.0  0.8204877312584884  0.9404907310075072  0.585294842099934  1.0000
  C   C9        1.0  0.3604047167799962  0.41738177761175865  0.1032345049501089  1.0000
  C   C10       1.0  0.1395755590555723  0.9173830953595182  0.3967715541350074  1.0000
  C   C11       1.0  0.6395939198589743  0.5826186441129619  0.8967632305420423  1.0000
  C   C12       1.0  0.8604092491750633  0.08261628064726519  0.603232250810585  1.0000
  C   C13       1.0  0.2812548329839828  0.32457270880101413  0.007919166899121397  1.0000
  C   C14       1.0  0.21874942512273066  0.8245703969145238  0.49208462119446494  1.0000
  C   C15       1.0  0.7187484014159436  0.6754277129330218  0.9920783274021828  1.0000
  C   C16       1.0  0.7812476574562905  0.17542688778949156  0.5079164616285894  1.0000
  C   C17       1.0  0.16966604497555693  0.37854730447028107  0.8965938179758765  1.0000
  C   C18       1.0  0.3303441824512916  0.8785423013120732  0.6034019534540319  1.0000
  C   C19       1.0  0.8303387317706664  0.6214541629410206  0.1034021109595287  1.0000
  C   C20       1.0  0.6696575037516934  0.12145812040910896  0.39659799719003525  1.0000
  C   C21       1.0  0.14053029440875517  0.5227585220246381  0.8843888803879167  1.0000
  C   C22       1.0  0.3594716536901004  0.022756053934173792  0.6156159614566759  1.0000
  C   C23       1.0  0.8594729399942622  0.47724294537746187  0.11560861391056679  1.0000
  C   C24       1.0  0.6405269595308454  0.9772433221078671  0.3843853379570206  1.0000
  C   C25       1.0  0.31606168096660536  0.17004804649771899  0.027670491128212397  1.0000
  C   C26       1.0  0.1839416867106536  0.6700468156998622  0.4723305660567405  1.0000
  C   C27       1.0  0.6839384863081079  0.8299523752288918  0.9723274609602227  1.0000
  C   C28       1.0  0.8160599643637454  0.3299515146632642  0.5276747304710411  1.0000
  N   N1        1.0  0.21178893530113638  0.6107742419912725  0.977776910632009  1.0000
  N   N2        1.0  0.2882074224915598  0.11077541641999736  0.522224808382326  1.0000
  N   N3        1.0  0.7882127684630476  0.3892261797408734  0.02222036707301809  1.0000
  N   N4        1.0  0.7117881470253026  0.8892260509653626  0.4777733848941281  1.0000
  O   O1        1.0  0.34919768324774475  0.7899226764059789  0.17406138674081006  1.0000
  O   O2        1.0  0.15083706460664098  0.28991982377750236  0.32593444635599406  1.0000
  O   O3        1.0  0.6508009416837625  0.21007774531143747  0.8259381307107034  1.0000
  O   O4        1.0  0.8491615603186843  0.7100785066037714  0.6740650711011538  1.0000
  O   O5        1.0  0.5158481374366631  0.6083673706012573  0.2825309709463539  1.0000
  O   O6        1.0  0.9841694437363911  0.108370795330444  0.21747313108062363  1.0000
  O   O7        1.0  0.4841550911064374  0.3916320054610549  0.717467414337456  1.0000
  O   O8        1.0  0.015824565876059203  0.8916306720347644  0.7825293004979557  1.0000
  O   O9        1.0  0.48945529451974323  0.12605060681327976  0.08248131398826078  1.0000
  O   O10       1.0  0.010556990913841002  0.626047104692965  0.41752217094197164  1.0000
  O   O11       1.0  0.5105464268025486  0.8739487692617587  0.9175132907805404  1.0000
  O   O12       1.0  0.9894461439386005  0.3739418146301999  0.5824904700449025  1.0000
  O   O13       1.0  0.1578782470807951  0.09296555289225236  0.9869648022271207  1.0000
  O   O14       1.0  0.34213789194924266  0.59296655976172  0.5130416105018867  1.0000
  O   O15       1.0  0.8421203719938858  0.9070338231534409  0.013035606206891292  1.0000
  O   O16       1.0  0.6578683686059391  0.4070359532903111  0.4869616628644166  1.0000
