data_image0
_chemical_formula_structural       Dy8H68C72N12O52
_chemical_formula_sum              "Dy8 H68 C72 N12 O52"
_cell_length_a       16.529259300888224
_cell_length_b       16.52935299170878
_cell_length_c       17.680657204696953
_cell_angle_alpha    62.12532635761861
_cell_angle_beta     62.13171610185045
_cell_angle_gamma    60.00540457512931

_space_group_name_H-M_alt    "P 1"
_space_group_IT_number       1

loop_
  _space_group_symop_operation_xyz
  'x, y, z'

loop_
  _atom_site_type_symbol
  _atom_site_label
  _atom_site_symmetry_multiplicity
  _atom_site_fract_x
  _atom_site_fract_y
  _atom_site_fract_z
  _atom_site_occupancy
  Dy  Dy1       1.0  0.19069215161263028  0.190621999473599  0.42808594228225877  1.0000
  Dy  Dy2       1.0  0.8093086614868312  0.8093772696151336  0.5719143027095511  1.0000
  Dy  Dy3       1.0  0.39939288903654097  0.2209385070846964  0.21044108076427637  1.0000
  Dy  Dy4       1.0  0.2209108042667154  0.1693698225017215  0.21041308092294028  1.0000
  Dy  Dy5       1.0  0.16935231484238497  0.3994145763401775  0.2104513943967703  1.0000
  Dy  Dy6       1.0  0.6006079238953459  0.7790614464569928  0.7895588647035936  1.0000
  Dy  Dy7       1.0  0.7790892752756944  0.8306297105710174  0.789587369574697  1.0000
  Dy  Dy8       1.0  0.8306477647000251  0.6005849567325541  0.78954905610086  1.0000
  H   H1        1.0  0.5822869861426125  0.7928065235843819  0.010836774512107131  1.0000
  H   H2        1.0  0.7926423080715493  0.6140823511035047  0.010966189244051459  1.0000
  H   H3        1.0  0.6142432045040208  0.582356790725278  0.010770165553210953  1.0000
  H   H4        1.0  0.41771309280768776  0.2071936935779917  0.9891628112163248  1.0000
  H   H5        1.0  0.2073585053630751  0.38591554907931414  0.9890346547956452  1.0000
  H   H6        1.0  0.38575614004017206  0.4176436896944437  0.9892284951905312  1.0000
  H   H7        1.0  0.44935700609544676  0.0873685152733046  0.68916269982455  1.0000
  H   H8        1.0  0.08737576479335017  0.774043651172498  0.689164231786087  1.0000
  H   H9        1.0  0.774193591779415  0.4493833512482651  0.6892031427781689  1.0000
  H   H10       1.0  0.5506445408962363  0.9126291209255086  0.31083793870933396  1.0000
  H   H11       1.0  0.9126228478136793  0.22595914840671588  0.3108365621179274  1.0000
  H   H12       1.0  0.22580502039193817  0.5506160249761933  0.31079745300979067  1.0000
  H   H13       1.0  0.6144409105813223  0.1289943884001588  0.365656081429755  1.0000
  H   H14       1.0  0.1288759009952898  0.8908971396565518  0.36565769828865763  1.0000
  H   H15       1.0  0.8907828338201538  0.614302603525985  0.3655982250882986  1.0000
  H   H16       1.0  0.3855606354830883  0.8710053007942022  0.6343430932870431  1.0000
  H   H17       1.0  0.8711241791392225  0.10910170932654494  0.6343436169781784  1.0000
  H   H18       1.0  0.1092172455546745  0.3856976139997029  0.634401925885392  1.0000
  H   H19       1.0  0.6985028612600529  0.09595062081638166  0.47135715685384844  1.0000
  H   H20       1.0  0.09580090337033198  0.7342018689936721  0.47139704294190216  1.0000
  H   H21       1.0  0.7341665341458352  0.698402038742735  0.4713045760586424  1.0000
  H   H22       1.0  0.30149795192878054  0.9040500175415853  0.5286430543353405  1.0000
  H   H23       1.0  0.9041984434640752  0.26579792878970915  0.5286047435520587  1.0000
  H   H24       1.0  0.26583134387635704  0.30159828555536455  0.5286953604659388  1.0000
  H   H25       1.0  0.4441083800257175  0.9052575412192853  0.1041921563290201  1.0000
  H   H26       1.0  0.9051865670909933  0.5464029988449254  0.10424378761412362  1.0000
  H   H27       1.0  0.5465142281788217  0.4442207295545232  0.1040309316355703  1.0000
  H   H28       1.0  0.555891699349111  0.09474267630641012  0.8958079946446704  1.0000
  H   H29       1.0  0.0948142458408938  0.4535969546967636  0.8957561578537466  1.0000
  H   H30       1.0  0.4534858494979018  0.5557794865178707  0.8959669583570999  1.0000
  H   H31       1.0  0.6610967929191743  0.9779215866952314  0.10283426936553047  1.0000
  H   H32       1.0  0.9779233895047668  0.25818853257885616  0.1026794570418303  1.0000
  H   H33       1.0  0.25828789320406287  0.6613212832019002  0.1027159954186488  1.0000
  H   H34       1.0  0.3389032850144956  0.022079314193447892  0.8971638863484513  1.0000
  H   H35       1.0  0.0220788907088121  0.7418102085418641  0.8973203769383457  1.0000
  H   H36       1.0  0.741711451764658  0.3386791975811506  0.8972832305703521  1.0000
  H   H37       1.0  0.7901798352731005  0.865179391360549  0.008263867856641089  1.0000
  H   H38       1.0  0.8651053944476459  0.3365035562421069  0.008143836079319981  1.0000
  H   H39       1.0  0.3366344648146508  0.7903790243361118  0.008164904442700995  1.0000
  H   H40       1.0  0.2098202438447814  0.13482014134886097  0.9917360173957378  1.0000
  H   H41       1.0  0.1348961514491904  0.6634968174052106  0.9918550391135381  1.0000
  H   H42       1.0  0.6633648799864956  0.20962214089989567  0.9918340220223529  1.0000
  H   H43       1.0  0.35535392108165104  0.11678411039505222  0.5919769450858609  1.0000
  H   H44       1.0  0.116789649321916  0.9357926568037628  0.5919431969842534  1.0000
  H   H45       1.0  0.9358429804743125  0.35532391387437906  0.5919944582625621  1.0000
  H   H46       1.0  0.6446468920178176  0.8832151586936802  0.408023299905949  1.0000
  H   H47       1.0  0.8832111632748081  0.06420866564383934  0.4080561494357368  1.0000
  H   H48       1.0  0.06415563136187788  0.6446768312559996  0.40800553847751075  1.0000
  H   H49       1.0  0.12159881552567238  0.12162231435319625  0.6343166554664351  1.0000
  H   H50       1.0  0.878399063356724  0.8783814336629805  0.3656840444194532  1.0000
  H   H51       1.0  0.5795857188397591  0.14418816690034217  0.2360846631237906  1.0000
  H   H52       1.0  0.14418834109930856  0.04020466894165512  0.23608228052425767  1.0000
  H   H53       1.0  0.04019594517668419  0.5794940337399623  0.23601670526034713  1.0000
  H   H54       1.0  0.42041509324307197  0.8558117859146959  0.7639141518535695  1.0000
  H   H55       1.0  0.8558117380185734  0.9597948637677545  0.7639176047281141  1.0000
  H   H56       1.0  0.9598048677552028  0.4205059198017269  0.7639832402075228  1.0000
  H   H57       1.0  0.592425508432484  0.10259646238031209  0.16672158331797246  1.0000
  H   H58       1.0  0.10255500813475038  0.13833715001646849  0.1667421000637077  1.0000
  H   H59       1.0  0.13832509711303936  0.5923653385707865  0.1666761759410348  1.0000
  H   H60       1.0  0.4075745706853979  0.8974030703290977  0.8332783019344063  1.0000
  H   H61       1.0  0.8974465379296673  0.8616625391778923  0.8332570746530908  1.0000
  H   H62       1.0  0.8616757158188476  0.40763461497089554  0.8333237695268352  1.0000
  H   H63       1.0  0.28829185746653957  0.33655753839483543  0.32574519969690385  1.0000
  H   H64       1.0  0.33652249370870635  0.04957109696766784  0.32570413695592043  1.0000
  H   H65       1.0  0.049588867077396494  0.28828983503844097  0.3257115823554173  1.0000
  H   H66       1.0  0.7117089556329219  0.663441730693897  0.6742550452949131  1.0000
  H   H67       1.0  0.6634775858337036  0.9504284361050633  0.6742963135417102  1.0000
  H   H68       1.0  0.9504104787403804  0.7117106464712534  0.6742887741240936  1.0000
  C   C1        1.0  0.5420960787824923  0.9503590206602014  0.11060285568371604  1.0000
  C   C2        1.0  0.9503525529304042  0.396940059833746  0.11055611669723919  1.0000
  C   C3        1.0  0.39703565869361057  0.5422822861607344  0.11043840328842695  1.0000
  C   C4        1.0  0.457904733300346  0.04964093215484409  0.889395959293644  1.0000
  C   C5        1.0  0.04964826042601089  0.603059894071272  0.8894443940158893  1.0000
  C   C6        1.0  0.6029636858505824  0.45771819425898747  0.8895602574553153  1.0000
  C   C7        1.0  0.46305892373113267  0.027128746141400453  0.15485506980919436  1.0000
  C   C8        1.0  0.027121732738223197  0.3549857271131103  0.15482186427664146  1.0000
  C   C9        1.0  0.3549944222197324  0.4632661395454748  0.15473001208042095  1.0000
  C   C10       1.0  0.5369404216621163  0.972871735004972  0.8451447214250577  1.0000
  C   C11       1.0  0.9728798141752434  0.6450139628078945  0.8451784409306671  1.0000
  C   C12       1.0  0.6450041885998274  0.5367352893112101  0.8452685546452018  1.0000
  C   C13       1.0  0.5938844683887012  0.8343579646772668  0.035630714239232544  1.0000
  C   C14       1.0  0.8342174248309033  0.5361489666124514  0.03570602432444747  1.0000
  C   C15       1.0  0.5362838037158822  0.5939887879851329  0.03556516040224978  1.0000
  C   C16       1.0  0.4061156109861273  0.1656422528484285  0.964369436734458  1.0000
  C   C17       1.0  0.16578412284224697  0.46384935476596206  0.9642954451759993  1.0000
  C   C18       1.0  0.46371407371420037  0.40601222040260165  0.9644339113531332  1.0000
  C   C19       1.0  0.4792776251241619  0.09921424452156202  0.6170963172746795  1.0000
  C   C20       1.0  0.09916810677269439  0.8043532197436889  0.6170937701204265  1.0000
  C   C21       1.0  0.8043959897685793  0.4792474169636237  0.617113749371839  1.0000
  C   C22       1.0  0.5207231892488764  0.900785025657136  0.3829056234528991  1.0000
  C   C23       1.0  0.9008305060019167  0.19564889538257543  0.38290732330752786  1.0000
  C   C24       1.0  0.19560188867813366  0.5207529076977976  0.3828867523979938  1.0000
  C   C25       1.0  0.4773873677725148  0.12696529320569286  0.4711423010470597  1.0000
  C   C26       1.0  0.1269482154309998  0.9244889778983351  0.47111169948251314  1.0000
  C   C27       1.0  0.9244167022107844  0.47726456116938476  0.471119638379932  1.0000
  C   C28       1.0  0.5226141791409517  0.873034396715319  0.5288580041602489  1.0000
  C   C29       1.0  0.8730518639438286  0.07551123962735319  0.5288884514911771  1.0000
  C   C30       1.0  0.07558190936845927  0.5227354991447156  0.528880092638822  1.0000
  C   C31       1.0  0.5747713990007384  0.1212217234925248  0.43659003125785034  1.0000
  C   C32       1.0  0.12112394276347518  0.8674282825645961  0.43658301550243545  1.0000
  C   C33       1.0  0.8673217549047293  0.5746236159815653  0.4365300064248529  1.0000
  C   C34       1.0  0.4252279471521945  0.8787773891112565  0.5634109242695401  1.0000
  C   C35       1.0  0.8788776047420939  0.1325707232667809  0.5634181544740713  1.0000
  C   C36       1.0  0.13267759141578486  0.42537481216925943  0.5634712486264775  1.0000
  C   C37       1.0  0.42267635031185335  0.14422878827704722  0.4142657537501222  1.0000
  C   C38       1.0  0.14429980959269528  0.018808173176445616  0.414254347409056  1.0000
  C   C39       1.0  0.0188285637036074  0.4225368381156898  0.4143031613700999  1.0000
  C   C40       1.0  0.5773222622058114  0.8557726420329317  0.5857350739565204  1.0000
  C   C41       1.0  0.8557024696042532  0.9811912516705943  0.5857440565566704  1.0000
  C   C42       1.0  0.9811722499879634  0.5774617468834082  0.5856979483909086  1.0000
  C   C43       1.0  0.6222761960756528  0.10439724724788846  0.4921428866252386  1.0000
  C   C44       1.0  0.1042752462227057  0.7811991561392232  0.49216011516203656  1.0000
  C   C45       1.0  0.7811134271521138  0.6221688694586621  0.4920973495271852  1.0000
  C   C46       1.0  0.37772461668865287  0.8956033907467571  0.5078567593186916  1.0000
  C   C47       1.0  0.8957248338335972  0.2188017465660721  0.507840866778224  1.0000
  C   C48       1.0  0.2188859187438723  0.3778295583288411  0.5079033402788937  1.0000
  C   C49       1.0  0.5201893837807602  0.8962459422618352  0.08589160515608543  1.0000
  C   C50       1.0  0.8961694867680093  0.49765867081412546  0.08592974607032745  1.0000
  C   C51       1.0  0.4977847748229465  0.5203071250246153  0.08575729014905425  1.0000
  C   C52       1.0  0.47981069618617056  0.10375359117422538  0.9141094105868036  1.0000
  C   C53       1.0  0.10382985853586749  0.5023404410630121  0.9140700789665601  1.0000
  C   C54       1.0  0.5022145695536722  0.4796940398480701  0.914241071070748  1.0000
  C   C55       1.0  0.6407578731711965  0.937268282387464  0.08513017457379857  1.0000
  C   C56       1.0  0.9372634860520391  0.33689335676632476  0.08502236687593992  1.0000
  C   C57       1.0  0.33699442643437993  0.6409604999658  0.08501246681768038  1.0000
  C   C58       1.0  0.3592422054439481  0.06273330368082244  0.9148688121067539  1.0000
  C   C59       1.0  0.06273732662290138  0.663105911959086  0.9149773128706189  1.0000
  C   C60       1.0  0.6630063860729791  0.3590394532125601  0.9149869134049383  1.0000
  C   C61       1.0  0.7128052851022131  0.8758921347091261  0.034225023596903256  1.0000
  C   C62       1.0  0.8758305760352697  0.3771552054163933  0.03415966171086644  1.0000
  C   C63       1.0  0.37726626148781867  0.7129825235643636  0.03416966352146745  1.0000
  C   C64       1.0  0.2871955274051459  0.12410781846923412  0.9657743566257155  1.0000
  C   C65       1.0  0.12417097104577829  0.6228438000516617  0.9658409430203816  1.0000
  C   C66       1.0  0.6227330833133207  0.2870186416716437  0.9658292629435862  1.0000
  C   C67       1.0  0.4305670586708103  0.11479788013878083  0.5633094400087089  1.0000
  C   C68       1.0  0.11477598038429448  0.8912650197884916  0.5632885825348237  1.0000
  C   C69       1.0  0.891269563031578  0.43049299365058863  0.5633014357517113  1.0000
  C   C70       1.0  0.5694330205364436  0.885203021839871  0.43669041144103454  1.0000
  C   C71       1.0  0.8852248330614857  0.10873630338575423  0.4367118943756693  1.0000
  C   C72       1.0  0.10872978286440829  0.5695054341369142  0.43669925405436766  1.0000
  N   N1        1.0  0.6890698356233358  0.8264151535815006  0.008609511195316989  1.0000
  N   N2        1.0  0.8263029360974414  0.47596741410328036  0.008618665328690036  1.0000
  N   N3        1.0  0.47610901483001555  0.689185496033126  0.008550896951732148  1.0000
  N   N4        1.0  0.3109302434945462  0.17358437912791655  0.9913903740570618  1.0000
  N   N5        1.0  0.1736971429310756  0.5240307493368944  0.9913812537263169  1.0000
  N   N6        1.0  0.5238903307308077  0.3108143006602902  0.99144919380646  1.0000
  N   N7        1.0  0.5745846572570982  0.09450028868285905  0.5817190845572568  1.0000
  N   N8        1.0  0.09442195981834088  0.7491511393637963  0.5817417603817959  1.0000
  N   N9        1.0  0.7491617321270425  0.5745172811610572  0.5817023125197095  1.0000
  N   N10       1.0  0.42541688880731954  0.9054994005115019  0.4182800901595413  1.0000
  N   N11       1.0  0.9055759199913211  0.2508505556568322  0.4182604033211774  1.0000
  N   N12       1.0  0.25083761317684145  0.42548183071607343  0.41829751251717795  1.0000
  O   O1        1.0  0.7581978104747477  0.7727367186295454  0.956450934440852  1.0000
  O   O2        1.0  0.7725982903356864  0.5127418310369835  0.9564549257950361  1.0000
  O   O3        1.0  0.5128587861715204  0.7582924885038124  0.9563538103711123  1.0000
  O   O4        1.0  0.2418015350860827  0.22726307806387067  0.0435491563173471  1.0000
  O   O5        1.0  0.2274025225068357  0.4872567532354707  0.043545053475462225  1.0000
  O   O6        1.0  0.4871405590541471  0.24170867709552377  0.04364568133919986  1.0000
  O   O7        1.0  0.28096414046157037  0.28100991092441063  0.15716398709224683  1.0000
  O   O8        1.0  0.7190366732300006  0.7189886740746871  0.8428371226687688  1.0000
  O   O9        1.0  0.2644162675215753  0.3048820763772042  0.30889384913492535  1.0000
  O   O10       1.0  0.3048597067429384  0.1219622363470876  0.3088530172428462  1.0000
  O   O11       1.0  0.12197758547428347  0.2643979060618093  0.3088873858562949  1.0000
  O   O12       1.0  0.7355845457454678  0.6951165082585716  0.6911066953808317  1.0000
  O   O13       1.0  0.6951411073731606  0.878036349015339  0.6911486577634205  1.0000
  O   O14       1.0  0.8780217597513839  0.7356032595375196  0.6911121058540177  1.0000
  O   O15       1.0  0.37579278883681877  0.0522047043189175  0.15755492896324344  1.0000
  O   O16       1.0  0.0521960169050715  0.4144720059634182  0.15752115817141996  1.0000
  O   O17       1.0  0.4144039467827055  0.37600028709682953  0.15743712932412274  1.0000
  O   O18       1.0  0.6242087568030711  0.9477949845121219  0.8424436805082962  1.0000
  O   O19       1.0  0.9478033289127054  0.5855284755462763  0.8424791983080907  1.0000
  O   O20       1.0  0.5855953979290688  0.623999508869943  0.8425618309435665  1.0000
  O   O21       1.0  0.6199860789728858  0.07838093693956685  0.6336029284235849  1.0000
  O   O22       1.0  0.07832519487519818  0.6679728904813231  0.6336307544933175  1.0000
  O   O23       1.0  0.668032294038447  0.6199342198096859  0.6335808401208212  1.0000
  O   O24       1.0  0.3800154669239432  0.9216194367077507  0.3663959467692733  1.0000
  O   O25       1.0  0.9216712185018279  0.33203001768691814  0.3663726511878594  1.0000
  O   O26       1.0  0.3319670513548019  0.38006626133668686  0.366418951113431  1.0000
  O   O27       1.0  0.49072628608177377  0.06522966577632876  0.1824973497959306  1.0000
  O   O28       1.0  0.0652154614300926  0.26155799262513574  0.18250406341497444  1.0000
  O   O29       1.0  0.2615553241923507  0.4909716540280655  0.18245484288853225  1.0000
  O   O30       1.0  0.5092730594790496  0.9347701309170875  0.8175027409622687  1.0000
  O   O31       1.0  0.9347853519263154  0.7384419612798753  0.8174964472981544  1.0000
  O   O32       1.0  0.7384440216254261  0.5090288274816289  0.8175455135909788  1.0000
  O   O33       1.0  0.3365956150005047  0.14352128686932278  0.4545976430070199  1.0000
  O   O34       1.0  0.1437543517597817  0.06512673028336742  0.45461402502985493  1.0000
  O   O35       1.0  0.0651678606364996  0.3364398453305242  0.4546737924237049  1.0000
  O   O36       1.0  0.6634044638715864  0.8564809840152351  0.5454016093948437  1.0000
  O   O37       1.0  0.856247193880108  0.9348729585476719  0.5453845844416847  1.0000
  O   O38       1.0  0.9348322200119057  0.6635603732851366  0.5453280542857543  1.0000
  O   O39       1.0  0.5962106744983372  0.15762495095534496  0.17110809034576843  1.0000
  O   O40       1.0  0.1575411750325983  0.07511507348540647  0.17110250588598322  1.0000
  O   O41       1.0  0.075238609106151  0.5958942898795598  0.1710601282573733  1.0000
  O   O42       1.0  0.40378720293174547  0.8423760574323894  0.8288909814096141  1.0000
  O   O43       1.0  0.8424596374747607  0.9248848796929606  0.8288968743366354  1.0000
  O   O44       1.0  0.9247629375503692  0.4041047152251665  0.8289399112286164  1.0000
  O   O45       1.0  0.4660650705952065  0.15787216994557707  0.32986031740539085  1.0000
  O   O46       1.0  0.15785462353175458  0.04627695882646071  0.32985835808202063  1.0000
  O   O47       1.0  0.04638436837371529  0.46597969013468094  0.32992926760208974  1.0000
  O   O48       1.0  0.5339357420015176  0.8421291525020251  0.6701390290145993  1.0000
  O   O49       1.0  0.8421476564248777  0.9537210974779808  0.6701412101768368  1.0000
  O   O50       1.0  0.9536157117608042  0.534019158848423  0.670072047664739  1.0000
  O   O51       1.0  0.14361690536675548  0.1435069944404432  0.5696311859335382  1.0000
  O   O52       1.0  0.856391977184323  0.8564845789269028  0.4303677646713525  1.0000
