data_image0
_chemical_formula_structural       CaH20C10S2N2O8
_chemical_formula_sum              "Ca1 H20 C10 S2 N2 O8"
_cell_length_a       5.402741189985252
_cell_length_b       8.099704984586689
_cell_length_c       9.694654817155834
_cell_angle_alpha    70.48267271735084
_cell_angle_beta     84.48946092249511
_cell_angle_gamma    89.62630354652741

_space_group_name_H-M_alt    "P 1"
_space_group_IT_number       1

loop_
  _space_group_symop_operation_xyz
  'x, y, z'

loop_
  _atom_site_type_symbol
  _atom_site_label
  _atom_site_symmetry_multiplicity
  _atom_site_fract_x
  _atom_site_fract_y
  _atom_site_fract_z
  _atom_site_occupancy
  Ca  Ca1       1.0  3.0843682666010736e-06  0.5000048454796655  0.9999938394732834  1.0000
  H   H1        1.0  0.8890105165331195  0.17995032672486394  0.6944072354848315  1.0000
  H   H2        1.0  0.11098767833777858  0.8200582596106755  0.3055867432827668  1.0000
  H   H3        1.0  0.5341948012999965  0.23474327383438262  0.33389151648324855  1.0000
  H   H4        1.0  0.46580645676836246  0.7652496726923205  0.666115021740758  1.0000
  H   H5        1.0  0.6096076754483876  0.3430551018309416  0.457969039521906  1.0000
  H   H6        1.0  0.3903881680158889  0.656941752434733  0.542034596952611  1.0000
  H   H7        1.0  0.16941340382430783  0.381338984213599  0.527788111724405  1.0000
  H   H8        1.0  0.8305900494408648  0.6186617737002749  0.47221092728194236  1.0000
  H   H9        1.0  0.07118171916362571  0.282931944063634  0.40316143142619854  1.0000
  H   H10       1.0  0.928816384487014  0.7170740113370472  0.5968322713379662  1.0000
  H   H11       1.0  0.2322601655437495  0.9977988245976803  0.5471457184239624  1.0000
  H   H12       1.0  0.767724681775384  0.002200562700537  0.452849504549178  1.0000
  H   H13       1.0  0.38844245476568773  0.09623561250901957  0.6541890751112048  1.0000
  H   H14       1.0  0.6115552840039129  0.9037598191522206  0.3458035236392121  1.0000
  H   H15       1.0  0.751418407227604  0.8788531663407186  0.022531557800114326  1.0000
  H   H16       1.0  0.24858301777774025  0.12114506263138482  0.9774775904262967  1.0000
  H   H17       1.0  0.5762058971405819  0.8275998345309786  0.8972753343409251  1.0000
  H   H18       1.0  0.4238161590952317  0.1724009219480109  0.10272172320918568  1.0000
  H   H19       1.0  0.6268236704400892  0.052194385141021385  0.8787444062053918  1.0000
  H   H20       1.0  0.3731759755364551  0.9478051121179405  0.12126034477864064  1.0000
  C   C1        1.0  0.4696358761669971  0.3296919847317453  0.3871571226262133  1.0000
  C   C2        1.0  0.5303749317172333  0.6703061355006171  0.612840230395541  1.0000
  C   C3        1.0  0.21622997876452393  0.2821200129004495  0.47565630248949714  1.0000
  C   C4        1.0  0.783762168911288  0.7178768087311199  0.5243444374834211  1.0000
  C   C5        1.0  0.22221186945429142  0.10316983060305772  0.59536117164712  1.0000
  C   C6        1.0  0.7777784836891827  0.8968282798910465  0.40463722907894334  1.0000
  C   C7        1.0  0.9453453669620733  0.9257010410131983  0.8107766099993724  1.0000
  C   C8        1.0  0.05466389679529731  0.07430629174979939  0.1892223187791373  1.0000
  C   C9        1.0  0.7105161717356624  0.9233972087460601  0.9073624318506646  1.0000
  C   C10       1.0  0.28949473809599624  0.07660490418385989  0.09263996566619427  1.0000
  S   S1        1.0  0.4769663917063768  0.5349555132124166  0.2414125738837001  1.0000
  S   S2        1.0  0.5230202608722649  0.4650439469859649  0.7585897568279589  1.0000
  N   N1        1.0  0.00019733187647120133  0.07527009749055942  0.698986375784912  1.0000
  N   N2        1.0  0.9998064600390252  0.9247398429757325  0.30101105673904266  1.0000
  O   O1        1.0  0.37611724220671056  0.6655250175078891  0.3046745713654032  1.0000
  O   O2        1.0  0.6238989152920524  0.3344679052376661  0.6953281178985334  1.0000
  O   O3        1.0  0.7417991320009564  0.5704593370274154  0.18422478046620222  1.0000
  O   O4        1.0  0.2581985125729816  0.42953209164842593  0.815761744791338  1.0000
  O   O5        1.0  0.32562315170339673  0.5107221434674828  0.13082939051015063  1.0000
  O   O6        1.0  0.6743520420514815  0.4892708318164339  0.8691825971467749  1.0000
  O   O7        1.0  0.08141863694222451  0.7937100241859698  0.8331475111200246  1.0000
  O   O8        1.0  0.9186095249009015  0.20630792347212426  0.1668598011959048  1.0000
