data_image0
_chemical_formula_structural       Hg12H26C28N20Cl26O8
_chemical_formula_sum              "Hg12 H26 C28 N20 Cl26 O8"
_cell_length_a       11.933925070963321
_cell_length_b       13.291924132418798
_cell_length_c       13.405176072176657
_cell_angle_alpha    78.58257014823144
_cell_angle_beta     89.86498478352964
_cell_angle_gamma    64.6674949768069

_space_group_name_H-M_alt    "P 1"
_space_group_IT_number       1

loop_
  _space_group_symop_operation_xyz
  'x, y, z'

loop_
  _atom_site_type_symbol
  _atom_site_label
  _atom_site_symmetry_multiplicity
  _atom_site_fract_x
  _atom_site_fract_y
  _atom_site_fract_z
  _atom_site_occupancy
  Hg  Hg1       1.0  0.8315868104552919  0.9751837908752355  0.8510091574074821  1.0000
  Hg  Hg2       1.0  0.16841496555941401  0.024815021256067406  0.1489831576622151  1.0000
  Hg  Hg3       1.0  0.14722876137306418  0.7470963306488161  0.058737879054660894  1.0000
  Hg  Hg4       1.0  0.8527725851507739  0.2529016255743742  0.9412538606997386  1.0000
  Hg  Hg5       1.0  0.5087231076180033  0.14185235194430856  0.6456291297271265  1.0000
  Hg  Hg6       1.0  0.4912757776133957  0.8581507562212566  0.35437278146388007  1.0000
  Hg  Hg7       1.0  0.4186444275280723  0.20267671871101106  0.3387275461800455  1.0000
  Hg  Hg8       1.0  0.5813606705212707  0.7973203968026968  0.661267337715337  1.0000
  Hg  Hg9       1.0  0.8110208195790065  0.0006023865666620002  0.1583657345594389  1.0000
  Hg  Hg10      1.0  0.18898128640555706  0.999390460259605  0.8416300020251839  1.0000
  Hg  Hg11      1.0  0.21487163894428113  0.06515602274003382  0.532620265344768  1.0000
  Hg  Hg12      1.0  0.7851108395807316  0.934841080165242  0.4673768992714926  1.0000
  H   H1        1.0  0.5353449554013991  0.19912397131236767  0.9048631430595863  1.0000
  H   H2        1.0  0.4646638685925881  0.8008705993463039  0.09513596928977121  1.0000
  H   H3        1.0  0.4659297591360314  0.21219526878818584  0.08045116756596123  1.0000
  H   H4        1.0  0.5340804708459501  0.7878367845349888  0.9195211061581219  1.0000
  H   H5        1.0  0.3052399785163971  0.24997749469268643  0.09130716561767828  1.0000
  H   H6        1.0  0.6947823182868971  0.7500222092525849  0.9086916497388843  1.0000
  H   H7        1.0  0.1769762732612321  0.42170998109077845  0.6252558837015699  1.0000
  H   H8        1.0  0.8230459957392784  0.578261645335765  0.37477386870962454  1.0000
  H   H9        1.0  0.9102834623416809  0.5550274751034578  0.9313045949051499  1.0000
  H   H10       1.0  0.08972188333017073  0.4449585719304424  0.06869994554876507  1.0000
  H   H11       1.0  0.8591931260611148  0.5934687732868442  0.7990743335436575  1.0000
  H   H12       1.0  0.14080063388436775  0.40649763966786884  0.20093412502999541  1.0000
  H   H13       1.0  0.666896984556061  0.5223550433249644  0.7815014344777822  1.0000
  H   H14       1.0  0.3330961369650397  0.4776548809839766  0.21849764195791718  1.0000
  H   H15       1.0  0.9759826314603262  0.2550740695300746  0.2590550261491984  1.0000
  H   H16       1.0  0.023980691167842714  0.7449350615098002  0.7409718621868749  1.0000
  H   H17       1.0  0.5875879066756725  0.46461904136064913  0.5406203312514747  1.0000
  H   H18       1.0  0.41240058612262226  0.5353900419426908  0.45938414225272345  1.0000
  H   H19       1.0  0.6336247858225832  0.33603093056051864  0.6342401238011918  1.0000
  H   H20       1.0  0.3663716275894373  0.6639738541076599  0.3657525071937897  1.0000
  H   H21       1.0  0.9155772267271801  0.2292819206415332  0.6376635275562706  1.0000
  H   H22       1.0  0.08441751567949031  0.7707228556317249  0.3623268701300475  1.0000
  H   H23       1.0  0.49450551002313164  0.526632718243178  0.20984705234308623  1.0000
  H   H24       1.0  0.5054689155590995  0.4733882933440654  0.7901535863943464  1.0000
  H   H25       1.0  0.5958857589026111  0.49897813636068383  0.10807401572233033  1.0000
  H   H26       1.0  0.4040830024903316  0.5010565125830839  0.8919209420601605  1.0000
  C   C1        1.0  0.2671256609573192  0.3560343334599168  0.7825839065559349  1.0000
  C   C2        1.0  0.7329064214827383  0.6439483539291757  0.21743095099476759  1.0000
  C   C3        1.0  0.23936909916595547  0.36253652637006445  0.8865404106405705  1.0000
  C   C4        1.0  0.7606469248912334  0.6374640300047576  0.1134597386366778  1.0000
  C   C5        1.0  0.43813805863084815  0.25526357015124296  0.8784621946565849  1.0000
  C   C6        1.0  0.5618852603095945  0.7447181846230678  0.12152973814311  1.0000
  C   C7        1.0  0.3714172865748394  0.27934401267502557  0.0544217410959007  1.0000
  C   C8        1.0  0.6285872671875266  0.7206753208397958  0.9455799230979808  1.0000
  C   C9        1.0  0.35755583232509036  0.3894909964130733  0.08441989354553671  1.0000
  C   C10       1.0  0.6424356665499714  0.6105223324229956  0.9155762720078331  1.0000
  C   C11       1.0  0.04151687609362405  0.4828544159410413  0.8354670353404431  1.0000
  C   C12       1.0  0.9584908972418942  0.5171265347217969  0.1645452263046749  1.0000
  C   C13       1.0  0.16632713209008193  0.4209703363492566  0.7064444043023885  1.0000
  C   C14       1.0  0.8336999075494871  0.5790106286559364  0.293567074213776  1.0000
  C   C15       1.0  0.8710854461436527  0.2875360571378637  0.3939453493806227  1.0000
  C   C16       1.0  0.12890521268381133  0.7124790214289266  0.6060646440178346  1.0000
  C   C17       1.0  0.8864591149906647  0.3005047080397177  0.2877869619462885  1.0000
  C   C18       1.0  0.11351728598592095  0.6995086424918571  0.7122204159277317  1.0000
  C   C19       1.0  0.6780758320239073  0.4302777844668456  0.2553072955579125  1.0000
  C   C20       1.0  0.3219010905992832  0.569741508939309  0.7446892039046915  1.0000
  C   C21       1.0  0.7494369864156313  0.35927013316708684  0.4202575416857428  1.0000
  C   C22       1.0  0.250560751217499  0.6407406529867076  0.5797428474168882  1.0000
  C   C23       1.0  0.6666787792690911  0.3951558700976749  0.5905030758728459  1.0000
  C   C24       1.0  0.33330685813513833  0.6048591971771773  0.4095046907565632  1.0000
  C   C25       1.0  0.715463831914292  0.44805363886250404  0.6607892119895595  1.0000
  C   C26       1.0  0.2845250304466944  0.5519511601266347  0.3392101434549843  1.0000
  C   C27       1.0  0.880195567930656  0.2606900315915439  0.557345533665533  1.0000
  C   C28       1.0  0.11981579305640372  0.7393062477009098  0.44265323499228504  1.0000
  N   N1        1.0  0.3903466148534065  0.28942509992197785  0.780219660822475  1.0000
  N   N2        1.0  0.6096994139044439  0.7105371268780946  0.21980072542913826  1.0000
  N   N3        1.0  0.3513317852392177  0.2951782295170349  0.9449209832632874  1.0000
  N   N4        1.0  0.6486776119223521  0.7048274381313606  0.0550774172065402  1.0000
  N   N5        1.0  0.13102404480253682  0.42328127505126645  0.9168484766406948  1.0000
  N   N6        1.0  0.8690100582295063  0.5766954230111097  0.0831615983673899  1.0000
  N   N7        1.0  0.05607455075659829  0.48396754627412975  0.7332554280701731  1.0000
  N   N8        1.0  0.943961952597796  0.5160006077630684  0.2667518628103949  1.0000
  N   N9        1.0  0.9286439871997488  0.5483301078366409  0.8572876524140655  1.0000
  N   N10       1.0  0.07136689439786892  0.4516320352889452  0.14271565540186512  1.0000
  N   N11       1.0  0.9493004026528098  0.22788412449406084  0.4792356794789329  1.0000
  N   N12       1.0  0.050688448857855  0.7721224388428852  0.5207819753327526  1.0000
  N   N13       1.0  0.6528267864840912  0.4301580471425909  0.3565499986341507  1.0000
  N   N14       1.0  0.3471624146132158  0.5698425184727114  0.6434606403262393  1.0000
  N   N15       1.0  0.7605302713780588  0.33834405149804075  0.526252048199659  1.0000
  N   N16       1.0  0.23946083759898323  0.6616701024207575  0.47373500246384026  1.0000
  N   N17       1.0  0.7917457778617563  0.37252555838129114  0.22080529686104464  1.0000
  N   N18       1.0  0.20824588032439809  0.6274698622380513  0.7791974072412133  1.0000
  N   N19       1.0  0.5822362710848169  0.49191277747193857  0.18533376786967182  1.0000
  N   N20       1.0  0.417752290186911  0.5081313018130659  0.8146682344789227  1.0000
  Cl  Cl1       1.0  0.7273086127558203  0.17438075439164902  0.7895505938417883  1.0000
  Cl  Cl2       1.0  0.27269728014348255  0.825612939662385  0.21044198388771213  1.0000
  Cl  Cl3       1.0  0.9245574157188087  0.7759380487126466  0.9037692320903545  1.0000
  Cl  Cl4       1.0  0.07543431920989721  0.22406248434334952  0.09623021907294321  1.0000
  Cl  Cl5       1.0  0.9999968660939728  0.9999997639111913  0.9999984239627365  1.0000
  Cl  Cl6       1.0  0.007080974461608368  0.7385670577753989  0.1781213893663036  1.0000
  Cl  Cl7       1.0  0.9929260688383722  0.26141895365946516  0.821871219399263  1.0000
  Cl  Cl8       1.0  0.3022751784874698  0.7414605160079193  0.9512596670434519  1.0000
  Cl  Cl9       1.0  0.6977267156230981  0.25854683305944093  0.04873244514440961  1.0000
  Cl  Cl10      1.0  0.44722835001902433  0.3072131917316484  0.5151828598865009  1.0000
  Cl  Cl11      1.0  0.5527688456321728  0.692788192316094  0.48481417467803584  1.0000
  Cl  Cl12      1.0  0.5749421149709237  0.9830613915308605  0.7842057787994747  1.0000
  Cl  Cl13      1.0  0.42506873101625336  0.016927187485620707  0.21578780548109933  1.0000
  Cl  Cl14      1.0  0.4999992935776733  0.999999004888615  0.49999683731843453  1.0000
  Cl  Cl15      1.0  0.20591407713520482  0.2517801297804283  0.35746084219386626  1.0000
  Cl  Cl16      1.0  0.794089838968546  0.7482212276447483  0.642525741925212  1.0000
  Cl  Cl17      1.0  0.6198251912334173  0.17485761365327332  0.2953386036645327  1.0000
  Cl  Cl18      1.0  0.3801770640326508  0.8251454649927158  0.7046528636206374  1.0000
  Cl  Cl19      1.0  0.6756466043157373  0.9824997385331785  0.043345244026205904  1.0000
  Cl  Cl20      1.0  0.3243501902278467  0.017502489121056907  0.9566486398577325  1.0000
  Cl  Cl21      1.0  0.9419593989602646  0.018797137164369808  0.2781839983308743  1.0000
  Cl  Cl22      1.0  0.058046043070923696  0.9811939898895905  0.7218068518178528  1.0000
  Cl  Cl23      1.0  0.21093775585171656  0.9483017359060928  0.4242906461740147  1.0000
  Cl  Cl24      1.0  0.789049752503722  0.051695364398291616  0.5757042720543524  1.0000
  Cl  Cl25      1.0  0.2293632664526797  0.16647516970881077  0.6540979247342733  1.0000
  Cl  Cl26      1.0  0.7706405203456225  0.8335176693040726  0.345894826475913  1.0000
  O   O1        1.0  0.3719513393107833  0.4651859205305019  0.02243627634608458  1.0000
  O   O2        1.0  0.6280410840789656  0.5348342510822094  0.9775637511081784  1.0000
  O   O3        1.0  0.33029795071394824  0.3924656450853378  0.17729070650988626  1.0000
  O   O4        1.0  0.669697629297204  0.6075391319121694  0.8226996895415296  1.0000
  O   O5        1.0  0.6510589941325265  0.4642477390933167  0.7418286884974636  1.0000
  O   O6        1.0  0.34892058344151167  0.5357519302304897  0.25817095576535815  1.0000
  O   O7        1.0  0.8014233628473308  0.47337535715598733  0.6415195227110574  1.0000
  O   O8        1.0  0.19855266680608696  0.5266405341812261  0.35848138359090603  1.0000
