data_image0
_chemical_formula_structural       Cu12H72C120N48O48
_chemical_formula_sum              "Cu12 H72 C120 N48 O48"
_cell_length_a       7.901241808309047
_cell_length_b       24.84237053695899
_cell_length_c       24.833688476077583
_cell_angle_alpha    118.88659116605405
_cell_angle_beta     96.08211280247761
_cell_angle_gamma    96.08355124525421

_space_group_name_H-M_alt    "P 1"
_space_group_IT_number       1

loop_
  _space_group_symop_operation_xyz
  'x, y, z'

loop_
  _atom_site_type_symbol
  _atom_site_label
  _atom_site_symmetry_multiplicity
  _atom_site_fract_x
  _atom_site_fract_y
  _atom_site_fract_z
  _atom_site_occupancy
  Cu  Cu1       1.0  0.7534557158933738  0.7531616237963022  0.005724753495094502  1.0000
  Cu  Cu2       1.0  0.5062398775513728  0.7580451530650907  0.2580901265811875  1.0000
  Cu  Cu3       1.0  0.00012771910330398244  0.252324065147171  0.24679626658847548  1.0000
  Cu  Cu4       1.0  0.7483995855766281  0.4996999070118805  0.24197957861083097  1.0000
  Cu  Cu5       1.0  0.7485037728779956  0.9944417123916479  0.7476494245093049  1.0000
  Cu  Cu6       1.0  0.2483562324851079  0.7419084187249183  0.5000318163450571  1.0000
  Cu  Cu7       1.0  0.2465551793199836  0.24683367659056904  0.9942683895869917  1.0000
  Cu  Cu8       1.0  0.4937500235703355  0.24195902881230325  0.7419082455169814  1.0000
  Cu  Cu9       1.0  0.999876693582152  0.7476707685067155  0.7532048972528995  1.0000
  Cu  Cu10      1.0  0.25160649273115615  0.5003033402437326  0.7580261129246253  1.0000
  Cu  Cu11      1.0  0.25149269016770853  0.005557795095938902  0.25234609271070946  1.0000
  Cu  Cu12      1.0  0.751645436573739  0.25809108925413693  0.4999723258790921  1.0000
  H   H1        1.0  0.07362633764320514  0.7649799610888909  0.08110978098604703  1.0000
  H   H2        1.0  0.558493529607631  0.714264833438442  0.08579425969573141  1.0000
  H   H3        1.0  0.9354674380042666  0.7000323676709287  0.20580894543932257  1.0000
  H   H4        1.0  0.9315094220344166  0.7352498170321058  0.42603327598114055  1.0000
  H   H5        1.0  0.44918338063014557  0.789711575458341  0.42738227794291106  1.0000
  H   H6        1.0  0.07875259770658989  0.815811406810781  0.3146387696572931  1.0000
  H   H7        1.0  0.23448087795152622  0.8061285822433676  0.9988236993361208  1.0000
  H   H8        1.0  0.9764879889897884  0.9256756674047324  0.13307995616112567  1.0000
  H   H9        1.0  0.4963197795256918  0.9305235274902091  0.18866183669506145  1.0000
  H   H10       1.0  0.0048402460556432325  0.5730784356455062  0.823273951623335  1.0000
  H   H11       1.0  0.5268632226344252  0.5793812106026125  0.8774438872205862  1.0000
  H   H12       1.0  0.27160419726688195  0.7000486153711734  0.01190169562491409  1.0000
  H   H13       1.0  0.3088566652385579  0.31577997648912515  0.23498326480943627  1.0000
  H   H14       1.0  0.8443468221313706  0.37114034087169767  0.2856393604837493  1.0000
  H   H15       1.0  0.23560194745638094  0.5053852158334067  0.2999790353109901  1.0000
  H   H16       1.0  0.1959793548847202  0.6907734819745103  0.26484093697882116  1.0000
  H   H17       1.0  0.6592130733215742  0.6375503528953959  0.21043907417041657  1.0000
  H   H18       1.0  0.2625049438303009  0.49885458374763675  0.18439955083375992  1.0000
  H   H19       1.0  0.4279379833574096  0.19242899203476327  0.19353065566448172  1.0000
  H   H20       1.0  0.05103331287430987  0.20742289633484745  0.07401349527166444  1.0000
  H   H21       1.0  0.5662034229375336  0.2584241114161118  0.06960731195680131  1.0000
  H   H22       1.0  0.4321790106230026  0.250408978342989  0.4271074631911488  1.0000
  H   H23       1.0  0.9477956203911545  0.2981699779119751  0.42061955048892224  1.0000
  H   H24       1.0  0.5717111805281121  0.31148951663845287  0.29966478930199253  1.0000
  H   H25       1.0  0.9933875359419204  0.9192030618872239  0.6840117031213352  1.0000
  H   H26       1.0  0.4733625570151149  0.9143510036560588  0.6287346923531345  1.0000
  H   H27       1.0  0.730138402404165  0.7942703481164344  0.49447416438420067  1.0000
  H   H28       1.0  0.5054878464477356  0.5735482284650574  0.30917853828763237  1.0000
  H   H29       1.0  0.02199028011975213  0.5725529432570654  0.3624841448115674  1.0000
  H   H30       1.0  0.764069205276968  0.6855410358740388  0.5010927224819781  1.0000
  H   H31       1.0  0.23651992427856777  0.0010590035886509  0.8073545955287286  1.0000
  H   H32       1.0  0.84432645741564  0.8667955457599135  0.7925368072877105  1.0000
  H   H33       1.0  0.30868846800120764  0.8112547634066658  0.7418550717506845  1.0000
  H   H34       1.0  0.1820335839371126  0.17675759624222562  0.7496177129558959  1.0000
  H   H35       1.0  0.6500149176806643  0.12256777109945463  0.7019216580722797  1.0000
  H   H36       1.0  0.2606021913088343  0.9883113546725614  0.68855737013903  1.0000
  H   H37       1.0  0.9263765001790885  0.2350195463459671  0.9188867478208421  1.0000
  H   H38       1.0  0.4415082088858711  0.28573514113377035  0.9141980300718231  1.0000
  H   H39       1.0  0.06452153946947455  0.2999699445879004  0.7941892974807772  1.0000
  H   H40       1.0  0.06848101207076951  0.2647553000121762  0.5739703980540085  1.0000
  H   H41       1.0  0.5508100274687918  0.2102968138232626  0.5726279078523078  1.0000
  H   H42       1.0  0.921256647164398  0.18420072141589833  0.6853713215985024  1.0000
  H   H43       1.0  0.7655327548956662  0.19386438142700507  0.0011748445624135753  1.0000
  H   H44       1.0  0.023511720585950996  0.07431495925161609  0.8669149930358556  1.0000
  H   H45       1.0  0.5036834293096604  0.06947411041456063  0.8113362155936483  1.0000
  H   H46       1.0  0.995174629373757  0.42692995241701936  0.17672444497091522  1.0000
  H   H47       1.0  0.47315652986068113  0.42062951393707954  0.12254774407478661  1.0000
  H   H48       1.0  0.7284124045674644  0.2999555659161643  0.9880955266410041  1.0000
  H   H49       1.0  0.6911637128275459  0.6842237382779431  0.7650279477823005  1.0000
  H   H50       1.0  0.15567453160975492  0.6288601022535973  0.7143751328025943  1.0000
  H   H51       1.0  0.7644021675675605  0.4946189668797631  0.7000355016812989  1.0000
  H   H52       1.0  0.8040001304617377  0.3092302326568871  0.7351568720427082  1.0000
  H   H53       1.0  0.340760040478294  0.36245616568796635  0.7895498184047582  1.0000
  H   H54       1.0  0.7374823515479321  0.501149597870267  0.815594307325881  1.0000
  H   H55       1.0  0.5720494658581786  0.8075625696738629  0.8064643493123851  1.0000
  H   H56       1.0  0.9489695528877532  0.7925639905580371  0.9259749142753079  1.0000
  H   H57       1.0  0.4338022466630349  0.7415581014541957  0.9303825508095115  1.0000
  H   H58       1.0  0.5678201566947154  0.7495905298992303  0.5728998196799395  1.0000
  H   H59       1.0  0.05220354416377412  0.7018346718381495  0.5793882067218945  1.0000
  H   H60       1.0  0.4282862822798847  0.6885141984889813  0.7003452793890971  1.0000
  H   H61       1.0  0.006612310946223901  0.08079551086397169  0.315985887378865  1.0000
  H   H62       1.0  0.5266331142729896  0.0856442972369678  0.37126158256673847  1.0000
  H   H63       1.0  0.2698665355471519  0.2057282245485581  0.5055235907888259  1.0000
  H   H64       1.0  0.4945050944051772  0.4264489429364177  0.690829828493257  1.0000
  H   H65       1.0  0.9780060062589441  0.42744329321546826  0.6375234751390764  1.0000
  H   H66       1.0  0.23592812569243904  0.3144547331860537  0.4989151077788135  1.0000
  H   H67       1.0  0.763467360203812  0.9989348949309118  0.19263710533270015  1.0000
  H   H68       1.0  0.15567035751067948  0.13319695057963804  0.20745814758272013  1.0000
  H   H69       1.0  0.691309737870867  0.18874053738824875  0.25814047975976  1.0000
  H   H70       1.0  0.8179588846114144  0.8232465857021085  0.25038235297036243  1.0000
  H   H71       1.0  0.34998321646116903  0.8774401500173641  0.2980787897147295  1.0000
  H   H72       1.0  0.7393996374766161  0.0116937618751933  0.31144224280787813  1.0000
  C   C1        1.0  0.22575506698351694  0.747454080254535  0.17143922903989045  1.0000
  C   C2        1.0  0.03421462066752679  0.7364758738995293  0.1487927334019545  1.0000
  C   C3        1.0  0.9798492269916892  0.7487066559397277  0.10141760359813645  1.0000
  C   C4        1.0  0.6949056388002433  0.7189365333255466  0.10298385585218017  1.0000
  C   C5        1.0  0.9046773137095769  0.7128832612257412  0.1700697169163518  1.0000
  C   C6        1.0  0.7843278836835309  0.7634923675758005  0.3434014733713937  1.0000
  C   C7        1.0  0.9756048847021217  0.7726425151049127  0.3655273768925864  1.0000
  C   C8        1.0  0.027164936970848326  0.7546937166276918  0.40878575629781005  1.0000
  C   C9        1.0  0.3134514072922628  0.7862355034102465  0.4103989936421326  1.0000
  C   C10       1.0  0.10730043948546361  0.7992444773384053  0.34754172654289295  1.0000
  C   C11       1.0  0.5593892109863106  0.8409307974602103  0.0808296394358194  1.0000
  C   C12       1.0  0.3899854209981796  0.8633072548582632  0.09228085788038946  1.0000
  C   C13       1.0  0.23924434413672926  0.8419302113692102  0.047379115361025216  1.0000
  C   C14       1.0  0.09590482382520817  0.9086467451257366  0.120565327355685  1.0000
  C   C15       1.0  0.38247278829240383  0.9103672082904455  0.15198936320104656  1.0000
  C   C16       1.0  0.9450477100820648  0.664503801692419  0.9308205517841585  1.0000
  C   C17       1.0  0.11377254964506993  0.6416973042372689  0.9190384755016437  1.0000
  C   C18       1.0  0.11975073139002754  0.5938727169846629  0.8595401341443532  1.0000
  C   C19       1.0  0.4074596423226565  0.5963016969395484  0.890232512863541  1.0000
  C   C20       1.0  0.2656822996930757  0.6636449997355599  0.9635116059616563  1.0000
  C   C21       1.0  0.47853751400102607  0.42367226122754437  0.25258140969788195  1.0000
  C   C22       1.0  0.29797712426591977  0.41197260377063566  0.2635642520146816  1.0000
  C   C23       1.0  0.23139442965871382  0.3523674461199491  0.2512873723124897  1.0000
  C   C24       1.0  0.9761141470066761  0.38368270010172284  0.2810057411622963  1.0000
  C   C25       1.0  0.19198628952949554  0.4568145876150212  0.2871314240892318  1.0000
  C   C26       1.0  0.02057045050132445  0.5798517882871793  0.23670521883170884  1.0000
  C   C27       1.0  0.20261531330275775  0.5928915976641635  0.22754476953961236  1.0000
  C   C28       1.0  0.2721670610151037  0.6540652334412798  0.2454387780413327  1.0000
  C   C29       1.0  0.5269405478073423  0.6240899373024719  0.2139203163015964  1.0000
  C   C30       1.0  0.3076865055912492  0.5483032264290985  0.20095862975095707  1.0000
  C   C31       1.0  0.7184176538049769  0.23992455991970024  0.15905322677370748  1.0000
  C   C32       1.0  0.5266834373994554  0.2290674334211148  0.1366660281611516  1.0000
  C   C33       1.0  0.39715072885969244  0.20536168528052207  0.15784318120370242  1.0000
  C   C34       1.0  0.18740030769897942  0.21195623927970794  0.09112461743212208  1.0000
  C   C35       1.0  0.47234962156559135  0.24183574210488254  0.08966221465423267  1.0000
  C   C36       1.0  0.2806989693929792  0.2661815165381896  0.33550684964199456  1.0000
  C   C37       1.0  0.4723012169495958  0.2772742440490674  0.35826512071781014  1.0000
  C   C38       1.0  0.5262362916028421  0.26579932388585104  0.4062338149962271  1.0000
  C   C39       1.0  0.8114638952270994  0.2940021596424885  0.40370093386491135  1.0000
  C   C40       1.0  0.6021822522341153  0.29966510844901256  0.33618917524253067  1.0000
  C   C41       1.0  0.05487265732816855  0.8286862783289454  0.5761146757735389  1.0000
  C   C42       1.0  0.8861049030018364  0.851406771184401  0.5878593857772927  1.0000
  C   C43       1.0  0.8792464072871693  0.8988420314713678  0.6474464966086656  1.0000
  C   C44       1.0  0.5925815429289756  0.8971809425497101  0.6161934237321418  1.0000
  C   C45       1.0  0.7351648732966963  0.8300624559828689  0.5430451631773393  1.0000
  C   C46       1.0  0.44091586741424754  0.6565647774089315  0.41999467919663397  1.0000
  C   C47       1.0  0.6100339680845933  0.6343878060525939  0.4070530336746643  1.0000
  C   C48       1.0  0.6183687620693448  0.5909515440769371  0.3459131451049231  1.0000
  C   C49       1.0  0.9031561989263891  0.5895047961467555  0.3759310693709494  1.0000
  C   C50       1.0  0.7597508484421454  0.652514034708851  0.45166582961170576  1.0000
  C   C51       1.0  0.4796117502667699  0.9191606327016262  0.7602344800254173  1.0000
  C   C52       1.0  0.2986825976256496  0.9076437275087911  0.7710586539827771  1.0000
  C   C53       1.0  0.19278501638818585  0.9525086088050403  0.7945718692853062  1.0000
  C   C54       1.0  0.976241313268005  0.8793313681014469  0.7880437235699133  1.0000
  C   C55       1.0  0.23146655140145375  0.8479217010911244  0.7583560102317647  1.0000
  C   C56       1.0  0.01490850955647721  0.06934447807231693  0.7338212194541  1.0000
  C   C57       1.0  0.19541798818132608  0.0810992879781622  0.7228014037023128  1.0000
  C   C58       1.0  0.2607599628599431  0.14051698401343068  0.7342725378933892  1.0000
  C   C59       1.0  0.5178658053323345  0.10982860989720682  0.7061030015966309  1.0000
  C   C60       1.0  0.3029842730994829  0.03665418295988591  0.7004098552253168  1.0000
  C   C61       1.0  0.7742411317624941  0.2525524388211977  0.8285632964964191  1.0000
  C   C62       1.0  0.9657931155967175  0.2635283077587046  0.8512074236698695  1.0000
  C   C63       1.0  0.02015106529901093  0.2512928515382172  0.8985788428723396  1.0000
  C   C64       1.0  0.3050923032911115  0.2810634414213453  0.8970099219024233  1.0000
  C   C65       1.0  0.09532076845697193  0.28711951810808506  0.8299262278017351  1.0000
  C   C66       1.0  0.2156719330727839  0.23651134654576111  0.6565945771039379  1.0000
  C   C67       1.0  0.024396394159452897  0.22736400382960648  0.634474507570715  1.0000
  C   C68       1.0  0.9728297608342801  0.24531233507870098  0.5912168972122344  1.0000
  C   C69       1.0  0.6865440626190562  0.21377195090894227  0.5896095984087921  1.0000
  C   C70       1.0  0.8927091161867012  0.20076578105560833  0.6524654565926085  1.0000
  C   C71       1.0  0.44062615368787306  0.1590682425058105  0.9191694845596885  1.0000
  C   C72       1.0  0.6100237117373907  0.13668944823950824  0.9077189471519985  1.0000
  C   C73       1.0  0.7607648657511205  0.1580641544775006  0.9526175478200969  1.0000
  C   C74       1.0  0.9041016123559655  0.0913471533731851  0.879431422630958  1.0000
  C   C75       1.0  0.617533304244752  0.0896285598760969  0.8480078776683797  1.0000
  C   C76       1.0  0.05496332244370449  0.3354994447892992  0.06917523260114682  1.0000
  C   C77       1.0  0.886245080358563  0.35830640955510523  0.0809577484556741  1.0000
  C   C78       1.0  0.8802599520179085  0.4061323991371778  0.1404557382508145  1.0000
  C   C79       1.0  0.5925572839715088  0.4037057561055448  0.10976348424057389  1.0000
  C   C80       1.0  0.7343355694332557  0.33635918150272204  0.036485254599554665  1.0000
  C   C81       1.0  0.5214732728902831  0.5763351930531188  0.7474308993548816  1.0000
  C   C82       1.0  0.7020341162645423  0.5880306437563831  0.7364468415415502  1.0000
  C   C83       1.0  0.7686214401109339  0.6476348665115951  0.7487238213275376  1.0000
  C   C84       1.0  0.023900810062627988  0.616317742966267  0.7190061290455033  1.0000
  C   C85       1.0  0.8080209209499214  0.5431881926682891  0.7128809237230768  1.0000
  C   C86       1.0  0.9794127404363663  0.4201491218301642  0.7632925610955539  1.0000
  C   C87       1.0  0.7973684521650667  0.40711305171186757  0.7724532275755749  1.0000
  C   C88       1.0  0.7278113961620676  0.3459389486850669  0.7545600292888038  1.0000
  C   C89       1.0  0.47303415451433045  0.3759170490903544  0.786074894266548  1.0000
  C   C90       1.0  0.6923033736352266  0.45170095533826793  0.7990381308555354  1.0000
  C   C91       1.0  0.2815803759190629  0.7600651322239855  0.8409456453952301  1.0000
  C   C92       1.0  0.473307612886039  0.7709236608869858  0.8633300752081112  1.0000
  C   C93       1.0  0.6028437960791635  0.7946312786305613  0.8421535365529635  1.0000
  C   C94       1.0  0.8126006472735128  0.7880343872175504  0.9088683585684763  1.0000
  C   C95       1.0  0.5276544617052182  0.758153482127554  0.9103309894038958  1.0000
  C   C96       1.0  0.7193005804043862  0.7338137845927832  0.6644939803846056  1.0000
  C   C97       1.0  0.5277025139216179  0.7227243289675728  0.6417374277620452  1.0000
  C   C98       1.0  0.47376387651512175  0.7341997167238645  0.5937704552016567  1.0000
  C   C99       1.0  0.18853687479003164  0.7060006203634474  0.5963055678854943  1.0000
  C   C100      1.0  0.39781677771943447  0.7003367367416758  0.6638168178777093  1.0000
  C   C101      1.0  0.9451233132945233  0.17130949031257361  0.4238866673523419  1.0000
  C   C102      1.0  0.1138991496181703  0.14858993205458404  0.41214106032810344  1.0000
  C   C103      1.0  0.12075331047340401  0.10115373674789652  0.35254973267388573  1.0000
  C   C104      1.0  0.40742261144956865  0.10281856508365912  0.3838063692263062  1.0000
  C   C105      1.0  0.2648317271131759  0.1699347145562271  0.45695164379352343  1.0000
  C   C106      1.0  0.5590805316706023  0.34343426351299666  0.5800130933528962  1.0000
  C   C107      1.0  0.3899685502327159  0.3656107672881816  0.592953905239085  1.0000
  C   C108      1.0  0.38162566877683446  0.40904609463886743  0.6540942879563899  1.0000
  C   C109      1.0  0.09683243990992454  0.41049144040005103  0.624075497824613  1.0000
  C   C110      1.0  0.2402527473087233  0.3474840713845424  0.5483437368497164  1.0000
  C   C111      1.0  0.5203776069756074  0.08083233091053903  0.23975643283755227  1.0000
  C   C112      1.0  0.7013119907550872  0.0923520406041192  0.22893459051650913  1.0000
  C   C113      1.0  0.8072052973449998  0.04748622459073461  0.20542158999324295  1.0000
  C   C114      1.0  0.023752139711106707  0.1206620630845308  0.21195076951200778  1.0000
  C   C115      1.0  0.7685308435288078  0.15207453453461992  0.2416395646995113  1.0000
  C   C116      1.0  0.9850807404017843  0.9306559641612823  0.26617129523527433  1.0000
  C   C117      1.0  0.804578722171911  0.9189058285182482  0.27719603020717176  1.0000
  C   C118      1.0  0.7392352903428758  0.8594876653337025  0.2657282469731823  1.0000
  C   C119      1.0  0.4821310888865541  0.8901793114062075  0.2938998222596894  1.0000
  C   C120      1.0  0.6970177893348647  0.9633514010062642  0.2995899914525636  1.0000
  N   N1        1.0  0.8116586119389668  0.7398046584706537  0.07829468520472455  1.0000
  N   N2        1.0  0.7357911284980999  0.704542196514069  0.14740229115052014  1.0000
  N   N3        1.0  0.19453989710614653  0.761759266667383  0.4315944785282894  1.0000
  N   N4        1.0  0.2754956257522139  0.8055822129600614  0.36967568992812244  1.0000
  N   N5        1.0  0.23718936982054842  0.9332846515498121  0.1662211133471985  1.0000
  N   N6        1.0  0.09269975591836056  0.8643924317272041  0.06171623263560374  1.0000
  N   N7        1.0  0.26510993884905804  0.5711151036997252  0.8449915313349763  1.0000
  N   N8        1.0  0.4118821467225403  0.6410360067848944  0.948978356464515  1.0000
  N   N9        1.0  0.07206387120284323  0.3381493159151675  0.2601466501244474  1.0000
  N   N10       1.0  0.031380401518426006  0.44247678667047546  0.29542160427783404  1.0000
  N   N11       1.0  0.43251099804206916  0.66977355929955  0.23835979129373894  1.0000
  N   N12       1.0  0.4695800318931944  0.5640536388316733  0.19460329350540914  1.0000
  N   N13       1.0  0.30424319622930074  0.2331043532795505  0.06663786170525299  1.0000
  N   N14       1.0  0.22818721733209202  0.19722441934812454  0.13529119532639558  1.0000
  N   N15       1.0  0.6943554459959245  0.27409320407063126  0.4290307734484172  1.0000
  N   N16       1.0  0.7710309651575074  0.30780471912251534  0.3588215341209845  1.0000
  N   N17       1.0  0.7341506622672327  0.9219408264575791  0.6616995872001111  1.0000
  N   N18       1.0  0.5889256882443022  0.8527074280103196  0.5574032750901736  1.0000
  N   N19       1.0  0.7630054446765939  0.5681345074376979  0.33024812268197923  1.0000
  N   N20       1.0  0.9058634688158091  0.6303849893049787  0.4359513952854285  1.0000
  N   N21       1.0  0.07191743041029502  0.8336815922947239  0.7670014754948865  1.0000
  N   N22       1.0  0.031870928940264956  0.9381623876355152  0.8026752529689388  1.0000
  N   N23       1.0  0.42062719990884284  0.15503101210226333  0.7259913826368418  1.0000
  N   N24       1.0  0.4636999718344014  0.05115044492938382  0.6922977548257518  1.0000
  N   N25       1.0  0.18834419304047859  0.26019484879915217  0.9216994263646541  1.0000
  N   N26       1.0  0.2641986161269969  0.2954591806938609  0.8525927053653959  1.0000
  N   N27       1.0  0.8054603809551821  0.23824771989964696  0.5684104186082166  1.0000
  N   N28       1.0  0.7245007787546813  0.19442711103270943  0.6303338370467059  1.0000
  N   N29       1.0  0.7628083797013473  0.0667097144633217  0.8337747764471356  1.0000
  N   N30       1.0  0.9073093138943094  0.13559912953256512  0.9382782635820276  1.0000
  N   N31       1.0  0.7348978718046908  0.42889188221535335  0.15500595822530977  1.0000
  N   N32       1.0  0.5881363959814365  0.35896957657102757  0.051017190925030244  1.0000
  N   N33       1.0  0.9279510694450365  0.6618511270702997  0.7398640114645898  1.0000
  N   N34       1.0  0.9686266743596051  0.5575231890533986  0.7045889794439046  1.0000
  N   N35       1.0  0.5674702054727447  0.33023109003704587  0.7616369148662796  1.0000
  N   N36       1.0  0.5303966304823219  0.43594960820435347  0.8053909764653753  1.0000
  N   N37       1.0  0.695768990934063  0.7668858056603869  0.9333560568240671  1.0000
  N   N38       1.0  0.7718078192139899  0.8027671419836296  0.8647004308034383  1.0000
  N   N39       1.0  0.30564496124473817  0.725906303984985  0.5709741333533599  1.0000
  N   N40       1.0  0.22896473569167608  0.6921980610796511  0.6411864144482635  1.0000
  N   N41       1.0  0.2658386424291095  0.07805961605110671  0.338296956218457  1.0000
  N   N42       1.0  0.41107583578451573  0.14728693771811413  0.4425895152254283  1.0000
  N   N43       1.0  0.23699105892957562  0.4318621963707088  0.6697585223808815  1.0000
  N   N44       1.0  0.09412994480869945  0.3696131169607996  0.5640578418303334  1.0000
  N   N45       1.0  0.9280773062822191  0.16631183892472023  0.23299386450108267  1.0000
  N   N46       1.0  0.9681204403312407  0.061831978402842915  0.19731922236559998  1.0000
  N   N47       1.0  0.5793687706620787  0.8449750395825858  0.27401131204141643  1.0000
  N   N48       1.0  0.5362982777763676  0.9488551391289234  0.30770237122042227  1.0000
  O   O1        1.0  0.2649173498930111  0.7556601429738025  0.2272079897375718  1.0000
  O   O2        1.0  0.32824379627960093  0.7479952097348813  0.1368329867615258  1.0000
  O   O3        1.0  0.7468757989462347  0.7616679696960772  0.29043207426688145  1.0000
  O   O4        1.0  0.6807836738650507  0.7582840484224533  0.37578288621453737  1.0000
  O   O5        1.0  0.5434875062423642  0.7852194918698104  0.03330553134269115  1.0000
  O   O6        1.0  0.6959590289284209  0.875678101958208  0.11623792593591989  1.0000
  O   O7        1.0  0.9625673588482401  0.7206006568228959  0.9779050436335623  1.0000
  O   O8        1.0  0.8076594239501063  0.629832745911557  0.8960794547832903  1.0000
  O   O9        1.0  0.5093472752318107  0.47118301051533973  0.24430813291807854  1.0000
  O   O10       1.0  0.5806198809474097  0.38858344173048215  0.25207249562261314  1.0000
  O   O11       1.0  0.9852425789161005  0.5286589293888044  0.23843563257121764  1.0000
  O   O12       1.0  0.9219869985349333  0.617371398254889  0.24196713955126367  1.0000
  O   O13       1.0  0.7581736245670925  0.24805395250653112  0.21476302315253545  1.0000
  O   O14       1.0  0.8202739558303024  0.24055216134660648  0.12429480851618281  1.0000
  O   O15       1.0  0.24181374409778303  0.2569031874150909  0.2793035126369716  1.0000
  O   O16       1.0  0.1782168205363135  0.26632608824954224  0.3703387895733313  1.0000
  O   O17       1.0  0.0379989839299668  0.7728759036878755  0.5286283646144551  1.0000
  O   O18       1.0  0.19211840659063728  0.8632489176392324  0.6111357465420751  1.0000
  O   O19       1.0  0.4565131255086925  0.7095181695045413  0.47114436241837865  1.0000
  O   O20       1.0  0.30497169322113393  0.6242375442648155  0.3824075940798934  1.0000
  O   O21       1.0  0.5110947347652229  0.9666900713494543  0.7520484033293114  1.0000
  O   O22       1.0  0.580938073626683  0.883835315897933  0.7596684148387352  1.0000
  O   O23       1.0  0.985376872447233  0.022332034211672198  0.7429424669859656  1.0000
  O   O24       1.0  0.9122125229037505  0.1040313169501275  0.7337675878711137  1.0000
  O   O25       1.0  0.7350733096244824  0.24435058296927545  0.7727959894953641  1.0000
  O   O26       1.0  0.6717579991440275  0.25201224428401053  0.8631729910200006  1.0000
  O   O27       1.0  0.2531312697331529  0.23833247223584667  0.7095610167773927  1.0000
  O   O28       1.0  0.3192066233949475  0.2417210679341296  0.6242107159976342  1.0000
  O   O29       1.0  0.4565259755302621  0.21478095020193425  0.9666913913988961  1.0000
  O   O30       1.0  0.3040547467049847  0.124322807834524  0.8837636621387546  1.0000
  O   O31       1.0  0.037444294760902594  0.2794011876296594  0.022093706583291364  1.0000
  O   O32       1.0  0.192355693883755  0.37016863045278114  0.10391032200298869  1.0000
  O   O33       1.0  0.49064828606115896  0.5288146274637101  0.755688866615543  1.0000
  O   O34       1.0  0.4194091388978052  0.6114347636179859  0.7479552698747297  1.0000
  O   O35       1.0  0.014760794081723828  0.4713489923845344  0.7615758574574442  1.0000
  O   O36       1.0  0.07798375145871722  0.38262016296364726  0.7580160497971774  1.0000
  O   O37       1.0  0.2418293309161824  0.7519506970414083  0.7852428431983038  1.0000
  O   O38       1.0  0.1797269166196288  0.7594202362875537  0.8756982033580059  1.0000
  O   O39       1.0  0.7581907485027416  0.7430841674798149  0.7206940350134089  1.0000
  O   O40       1.0  0.8217766209244459  0.7336799635609239  0.6296650313872688  1.0000
  O   O41       1.0  0.9619980531786607  0.2271193976512365  0.47137480031324935  1.0000
  O   O42       1.0  0.8078737512084756  0.13674685109444343  0.38886587595209926  1.0000
  O   O43       1.0  0.5434840160694918  0.29048507776437305  0.5288590265750273  1.0000
  O   O44       1.0  0.6950234796511623  0.37575635539082003  0.6176028859450539  1.0000
  O   O45       1.0  0.4888981190257411  0.033304761975721006  0.2479447354127373  1.0000
  O   O46       1.0  0.4190475205753543  0.11615531041777422  0.24031762117667196  1.0000
  O   O47       1.0  0.014617474048016535  0.9776684079632435  0.2570506152491562  1.0000
  O   O48       1.0  0.08777161409611271  0.8959691252596399  0.26622315065375085  1.0000
