data_image0
_chemical_formula_structural       Ag2H30C32N16O6
_chemical_formula_sum              "Ag2 H30 C32 N16 O6"
_cell_length_a       9.61207765791413
_cell_length_b       9.929751074512287
_cell_length_c       11.326772952573943
_cell_angle_alpha    103.79205865281325
_cell_angle_beta     98.60196255963399
_cell_angle_gamma    116.23411000037791

_space_group_name_H-M_alt    "P 1"
_space_group_IT_number       1

loop_
  _space_group_symop_operation_xyz
  'x, y, z'

loop_
  _atom_site_type_symbol
  _atom_site_label
  _atom_site_symmetry_multiplicity
  _atom_site_fract_x
  _atom_site_fract_y
  _atom_site_fract_z
  _atom_site_occupancy
  Ag  Ag1       1.0  0.8801879431058452  0.6244178127242535  0.7270313204920598  1.0000
  Ag  Ag2       1.0  0.1198155184019001  0.37558231127712827  0.2729646749111154  1.0000
  H   H1        1.0  0.6131454335828438  0.6542179184936929  0.5401927546447496  1.0000
  H   H2        1.0  0.3868547004334247  0.34577979420938487  0.4598049495454575  1.0000
  H   H3        1.0  0.4780217876788981  0.775154992635642  0.43197968554930805  1.0000
  H   H4        1.0  0.5219807309179033  0.22484749384011593  0.5680210960532364  1.0000
  H   H5        1.0  0.6283019226519998  0.05712809400256453  0.4470231589822262  1.0000
  H   H6        1.0  0.3716972552921123  0.9428719734528247  0.5529810938246271  1.0000
  H   H7        1.0  0.9209695593914732  0.2334005940633404  0.5691587162528577  1.0000
  H   H8        1.0  0.07902718594023382  0.7666030338554325  0.4308477305348505  1.0000
  H   H9        1.0  0.21983421080117443  0.3142134774681154  0.6767442359301441  1.0000
  H   H10       1.0  0.7801645318808353  0.6857877924601752  0.3232575633288732  1.0000
  H   H11       1.0  0.3323540325697608  0.24603269072876097  0.7579963889614163  1.0000
  H   H12       1.0  0.6676463837289078  0.753969790640234  0.24200323409112204  1.0000
  H   H13       1.0  0.2207715362887939  0.2859612414489804  0.9422581625763654  1.0000
  H   H14       1.0  0.7792303697113426  0.714040041931007  0.057744052694687305  1.0000
  H   H15       1.0  0.33051344040368497  0.4678402362995018  0.9097109027231625  1.0000
  H   H16       1.0  0.6694905810558184  0.5321610599093278  0.0902907086806124  1.0000
  H   H17       1.0  0.6132430532400832  0.34846789809834894  0.8359845403747528  1.0000
  H   H18       1.0  0.3867563151998183  0.6515345826477841  0.1640140627984721  1.0000
  H   H19       1.0  0.5050370741768263  0.1214423888790961  0.9188615191302458  1.0000
  H   H20       1.0  0.49496123982370227  0.878560087383136  0.08113694537230032  1.0000
  H   H21       1.0  0.669150770831422  0.9956153365013523  0.9716550093441257  1.0000
  H   H22       1.0  0.33084679272154466  0.0043835542626809  0.02834348879144239  1.0000
  H   H23       1.0  0.9490893463831329  0.10002203133000624  0.9563622374148365  1.0000
  H   H24       1.0  0.050905957278971056  0.8999744603417031  0.043636345761171993  1.0000
  H   H25       1.0  0.5552455720007218  0.14576281218158021  0.2582272991945517  1.0000
  H   H26       1.0  0.44475955654305477  0.8542385193994666  0.7417674012107938  1.0000
  H   H27       1.0  0.7583212026340505  0.17995457057342187  0.28186969665048167  1.0000
  H   H28       1.0  0.24167895770467143  0.8200431575738139  0.7181244827051642  1.0000
  H   H29       1.0  0.6951222972145816  0.2894042714992296  0.20367010550454273  1.0000
  H   H30       1.0  0.3048822055713033  0.7105958492639676  0.7963277909865951  1.0000
  C   C1        1.0  0.8439099292036618  0.8769882920874894  0.6139810529110719  1.0000
  C   C2        1.0  0.15609032950227694  0.12301179529595174  0.3860198137319061  1.0000
  C   C3        1.0  0.678840606647519  0.7785273364947829  0.5462108645708028  1.0000
  C   C4        1.0  0.3211611680823411  0.22147156834380166  0.4537890694561284  1.0000
  C   C5        1.0  0.6054333245785416  0.8477903969658344  0.4873603741347594  1.0000
  C   C6        1.0  0.39456709830074044  0.15221208826420712  0.512638367709144  1.0000
  C   C7        1.0  0.6923846803235351  0.009785960910221504  0.4959046637453355  1.0000
  C   C8        1.0  0.3076167706726666  0.9902165133595564  0.5040977416038076  1.0000
  C   C9        1.0  0.8553980147884845  0.10903584675098445  0.5633720617526521  1.0000
  C   C10       1.0  0.14460283677228597  0.8909654321451088  0.4366300148477293  1.0000
  C   C11       1.0  0.9297886668611784  0.038684161176981  0.6224389856019882  1.0000
  C   C12       1.0  0.0702067680712022  0.9613147090361315  0.3775618788181419  1.0000
  C   C13       1.0  0.2218004760518397  0.25450332524380304  0.7463070441927541  1.0000
  C   C14       1.0  0.778197667194732  0.745496749310796  0.2536944263175016  1.0000
  C   C15       1.0  0.2219322092548311  0.3485885915586311  0.874408938069081  1.0000
  C   C16       1.0  0.778068042870494  0.6514114919637706  0.12559280978253176  1.0000
  C   C17       1.0  0.8421238120923606  0.3506184558459183  0.8509580599678445  1.0000
  C   C18       1.0  0.15787434431543806  0.6493816264307599  0.1490416481251274  1.0000
  C   C19       1.0  0.6841427390276353  0.2936801962298291  0.8617405260246827  1.0000
  C   C20       1.0  0.31585587896471173  0.7063186990180983  0.13825811078157108  1.0000
  C   C21       1.0  0.6259513933779318  0.16703845052882124  0.9067806967564138  1.0000
  C   C22       1.0  0.37404888506984696  0.8329616484377385  0.093217526260645  1.0000
  C   C23       1.0  0.7204811891087886  0.09758365354142033  0.9395135116238151  1.0000
  C   C24       1.0  0.27951369245244007  0.9024140483252768  0.060480855587080516  1.0000
  C   C25       1.0  0.8773498022932245  0.1536409491664799  0.9304856322979375  1.0000
  C   C26       1.0  0.12264927070305728  0.846356755191657  0.06951281443023305  1.0000
  C   C27       1.0  0.936440376051934  0.2824590127394232  0.8859359027183444  1.0000
  C   C28       1.0  0.06355718750103977  0.7175398780246098  0.11406259541723068  1.0000
  C   C29       1.0  0.682745639402178  0.2366403216337433  0.2790090451774176  1.0000
  C   C30       1.0  0.3172595743475952  0.7633633614614226  0.7209941049325294  1.0000
  C   C31       1.0  0.731817698191989  0.36068221292789104  0.39902261826758684  1.0000
  C   C32       1.0  0.26818379425547784  0.639311923244776  0.600975396897006  1.0000
  N   N1        1.0  0.9511912369852882  0.8461266363024366  0.6814799261009341  1.0000
  N   N2        1.0  0.0488102140109135  0.15387583796734824  0.3185224792482089  1.0000
  N   N3        1.0  0.0935544023409777  0.9758085368155283  0.7304847718193345  1.0000
  N   N4        1.0  0.9064475168203859  0.024192754286545413  0.26951568103444157  1.0000
  N   N5        1.0  0.0837773035195326  0.0931550131426349  0.695487730894591  1.0000
  N   N6        1.0  0.9162225001824712  0.9068462651305967  0.30451332582646984  1.0000
  N   N7        1.0  0.9347486770955558  0.47097808837806826  0.8091929869454333  1.0000
  N   N8        1.0  0.06525218762643449  0.5290231982401041  0.19080732723767116  1.0000
  N   N9        1.0  0.07653047752647527  0.4802586114566341  0.8164010465755852  1.0000
  N   N10       1.0  0.9234709734697335  0.5197438628131509  0.18360135877355782  1.0000
  N   N11       1.0  0.08023417928862389  0.36872282706593756  0.862973086119645  1.0000
  N   N12       1.0  0.919769380586331  0.6312796561716427  0.13702959657086208  1.0000
  N   N13       1.0  0.6212975148549804  0.6631888156262352  0.8471011406982569  1.0000
  N   N14       1.0  0.3787043977257696  0.3368124716147918  0.152900193364168  1.0000
  N   N15       1.0  0.768166182335449  0.45991199587973614  0.4956296912381717  1.0000
  N   N16       1.0  0.23183558581379776  0.5400869050978161  0.5043711239974016  1.0000
  O   O1        1.0  0.7717347558040332  0.7672572701654377  0.8824873297381471  1.0000
  O   O2        1.0  0.22826716335733022  0.23274402093662877  0.11751312311562863  1.0000
  O   O3        1.0  0.5653891669925032  0.5382557829390038  0.7501069152868637  1.0000
  O   O4        1.0  0.43461169772948693  0.46174550367916123  0.2498933988962335  1.0000
  O   O5        1.0  0.5302188984499241  0.6844008821241093  0.9103274255332823  1.0000
  O   O6        1.0  0.4697830141308331  0.3156004051169178  0.08967390852913582  1.0000
