data_image0
_chemical_formula_structural       Nd4H32C24O28
_chemical_formula_sum              "Nd4 H32 C24 O28"
_cell_length_a       7.784590398964247
_cell_length_b       8.109066391724767
_cell_length_c       14.259071564225094
_cell_angle_alpha    96.95170997488484
_cell_angle_beta     95.85570601789424
_cell_angle_gamma    104.04641445934963

_space_group_name_H-M_alt    "P 1"
_space_group_IT_number       1

loop_
  _space_group_symop_operation_xyz
  'x, y, z'

loop_
  _atom_site_type_symbol
  _atom_site_label
  _atom_site_symmetry_multiplicity
  _atom_site_fract_x
  _atom_site_fract_y
  _atom_site_fract_z
  _atom_site_occupancy
  Nd  Nd1       1.0  0.6278574683507615  0.5771956959685055  0.7922412656750808  1.0000
  Nd  Nd2       1.0  0.3721391531982264  0.42280325310653677  0.20775752621941024  1.0000
  Nd  Nd3       1.0  0.08819068946834825  0.49025386503998913  0.6999875050114143  1.0000
  Nd  Nd4       1.0  0.9118065680185978  0.5097476429741407  0.3000136068792898  1.0000
  H   H1        1.0  0.9007507496013218  0.9085438438663404  0.5154824342980433  1.0000
  H   H2        1.0  0.09924940922466159  0.09145383377182982  0.4845164872297331  1.0000
  H   H3        1.0  0.8256193747590429  0.9639928521229137  0.6251631928721153  1.0000
  H   H4        1.0  0.1743811244178843  0.03600611145620291  0.37483583844961293  1.0000
  H   H5        1.0  0.5474424093941649  0.7065120224105288  0.5729257589904507  1.0000
  H   H6        1.0  0.4525554897761595  0.2934869271849367  0.4270738128492155  1.0000
  H   H7        1.0  0.5629010674711736  0.8761078412566621  0.5057685668997324  1.0000
  H   H8        1.0  0.43709943170575377  0.12389112232245483  0.494230464421996  1.0000
  H   H9        1.0  0.13728341740877434  0.9920875076804735  0.004340000584690497  1.0000
  H   H10       1.0  0.8627180878996654  0.007915309407188405  0.9956600602550054  1.0000
  H   H11       1.0  0.30769290697394086  0.8829049630378595  0.0066577288888112094  1.0000
  H   H12       1.0  0.6923062847390327  0.11709399139230212  0.9933419227599386  1.0000
  H   H13       1.0  0.11772793167691029  0.9021036636722929  0.15317187687845293  1.0000
  H   H14       1.0  0.8822719407379436  0.0978978626397407  0.8468279943582075  1.0000
  H   H15       1.0  0.9573440295337506  0.7300804097539669  0.0812966017140937  1.0000
  H   H16       1.0  0.0426578161256259  0.2699236932746345  0.918703568919554  1.0000
  H   H17       1.0  0.31362728834079695  0.9570455296039813  0.6457066637628088  1.0000
  H   H18       1.0  0.6863718884508713  0.04295342051191402  0.3542936880220395  1.0000
  H   H19       1.0  0.5240746501715848  0.10642863717101393  0.6945557740347681  1.0000
  H   H20       1.0  0.4759267862757427  0.8935690409875864  0.3054439274381906  1.0000
  H   H21       1.0  0.2122405799932069  0.9712740447032433  0.8048885594773482  1.0000
  H   H22       1.0  0.7877618625856257  0.028727486963909105  0.1951121715135713  1.0000
  H   H23       1.0  0.41871384658688976  0.12238234843858461  0.8562608394124566  1.0000
  H   H24       1.0  0.5812889065002765  0.8776204605409745  0.14374140164462554  1.0000
  H   H25       1.0  0.3604248691899772  0.6881201312671055  0.9012088688406764  1.0000
  H   H26       1.0  0.639574662873933  0.3118801091039956  0.09879089260202531  1.0000
  H   H27       1.0  0.4715054014949374  0.6573211891273515  0.9902606776740583  1.0000
  H   H28       1.0  0.5284954231116218  0.34267905607843824  0.009739163577727096  1.0000
  H   H29       1.0  0.8649840748608425  0.29709791597405655  0.5142513418646288  1.0000
  H   H30       1.0  0.13501640939477974  0.7029010432907868  0.4857483895931978  1.0000
  H   H31       1.0  0.7226671777274021  0.3353130352735435  0.5859074442373425  1.0000
  H   H32       1.0  0.27733202890687636  0.6646859234708842  0.41409150727530897  1.0000
  C   C1        1.0  0.9122541489882748  0.7373161572609988  0.6158724502522475  1.0000
  C   C2        1.0  0.0877453979969474  0.2626840874243612  0.3841266110543557  1.0000
  C   C3        1.0  0.8210397087686089  0.8564449633427388  0.5692426501386123  1.0000
  C   C4        1.0  0.17895689785907362  0.14355398141803735  0.4307568418919772  1.0000
  C   C5        1.0  0.6274832801624655  0.7752999558049325  0.5235155650356874  1.0000
  C   C6        1.0  0.37251720409315675  0.22469900345991792  0.47648416642213937  1.0000
  C   C7        1.0  0.612160943553306  0.6481621074699577  0.43358292434879797  1.0000
  C   C8        1.0  0.38783884507912353  0.35183427559874775  0.5664172876572239  1.0000
  C   C9        1.0  0.061441207703808245  0.7487207140992213  0.9150047008980452  1.0000
  C   C10       1.0  0.9385573572470849  0.25128080306385675  0.08499579066563712  1.0000
  C   C11       1.0  0.16329649145165354  0.8649385872605182  0.004959422111994619  1.0000
  C   C12       1.0  0.8367039778826636  0.135060367690059  0.9950410094819377  1.0000
  C   C13       1.0  0.10086992589187829  0.7962031822591417  0.09447109562225361  1.0000
  C   C14       1.0  0.8991312092230076  0.20379834025905555  0.9055302556956876  1.0000
  C   C15       1.0  0.19959833777253524  0.6749279578364595  0.1326708266698304  1.0000
  C   C16       1.0  0.8004037942979777  0.3250722965182788  0.8673283942549332  1.0000
  C   C17       1.0  0.4861901751158372  0.8592220700188878  0.7376424364508907  1.0000
  C   C18       1.0  0.5138060314756742  0.14077557154389103  0.2623597463301479  1.0000
  C   C19       1.0  0.4132309136941714  0.004880653547978403  0.7095748865206488  1.0000
  C   C20       1.0  0.5867704929105386  0.9951170159820892  0.2904262152245138  1.0000
  C   C21       1.0  0.3222705913138029  0.07499981433014112  0.7912617356536344  1.0000
  C   C22       1.0  0.6777321766946685  0.9250029989636844  0.20873980526734212  1.0000
  C   C23       1.0  0.24419145785413574  0.21742241184070824  0.762303037721253  1.0000
  C   C24       1.0  0.7558116413293872  0.7825765657220459  0.23769545308253728  1.0000
  O   O1        1.0  0.8457440440375733  0.6612358366704356  0.6829333503494937  1.0000
  O   O2        1.0  0.15425418056238274  0.3387643945517099  0.3170670314202298  1.0000
  O   O3        1.0  0.05989317280128862  0.7140949375285645  0.5929436419522461  1.0000
  O   O4        1.0  0.9401046965264185  0.28590400343837524  0.4070573301596241  1.0000
  O   O5        1.0  0.7439994344737143  0.5855024323659352  0.4225192360665773  1.0000
  O   O6        1.0  0.2560036348671987  0.4144965365682865  0.5774806550094098  1.0000
  O   O7        1.0  0.46771604185431676  0.6102013110892985  0.3745881359994955  1.0000
  O   O8        1.0  0.5322840722077515  0.38979635360608006  0.6254128859365835  1.0000
  O   O9        1.0  0.1477853219928136  0.673279979639702  0.8590995037861405  1.0000
  O   O10       1.0  0.8522138938173427  0.32672410077672964  0.14090260763765627  1.0000
  O   O11       1.0  0.8946075350941599  0.7321305549364185  0.8998827043060658  1.0000
  O   O12       1.0  0.1053821789414968  0.26786705382438925  0.10012047970177211  1.0000
  O   O13       1.0  0.16153098947723524  0.6207968036101121  0.2115314699708719  1.0000
  O   O14       1.0  0.8384666232819525  0.3792059946592163  0.7884690515776783  1.0000
  O   O15       1.0  0.3203598827506653  0.6267893119690555  0.0915497912470755  1.0000
  O   O16       1.0  0.6796383866132132  0.37321093219588164  0.9084484901143457  1.0000
  O   O17       1.0  0.3831328144869985  0.7046340424877472  0.7237977205033418  1.0000
  O   O18       1.0  0.6168667175769185  0.29536619788334656  0.2762020409393671  1.0000
  O   O19       1.0  0.6467151439138094  0.8867363596580661  0.775005018933328  1.0000
  O   O20       1.0  0.3532934508699413  0.11326391887011773  0.22499460103684044  1.0000
  O   O21       1.0  0.09651115767916  0.18126309084811962  0.7090080354882033  1.0000
  O   O22       1.0  0.9034906191191112  0.8187358732514199  0.29099177577870716  1.0000
  O   O23       1.0  0.3300026889425424  0.37677309246561924  0.7915987532501632  1.0000
  O   O24       1.0  0.669995195306477  0.623225852815587  0.20840151872560853  1.0000
  O   O25       1.0  0.48599943179218735  0.6890675824476561  0.9267930871675605  1.0000
  O   O26       1.0  0.5139997599207787  0.31093137198250526  0.0732065644811826  1.0000
  O   O27       1.0  0.8418384589678213  0.3128314166237801  0.5817214475465349  1.0000
  O   O28       1.0  0.15816073274515224  0.6871675378063815  0.41827820410221517  1.0000
