data_image0
_chemical_formula_structural       Cd2H32C48N8O8
_chemical_formula_sum              "Cd2 H32 C48 N8 O8"
_cell_length_a       7.9737410951979335
_cell_length_b       10.850922021790682
_cell_length_c       13.117245608331384
_cell_angle_alpha    76.70284777817949
_cell_angle_beta     80.30370756781348
_cell_angle_gamma    67.2031978935394

_space_group_name_H-M_alt    "P 1"
_space_group_IT_number       1

loop_
  _space_group_symop_operation_xyz
  'x, y, z'

loop_
  _atom_site_type_symbol
  _atom_site_label
  _atom_site_symmetry_multiplicity
  _atom_site_fract_x
  _atom_site_fract_y
  _atom_site_fract_z
  _atom_site_occupancy
  Cd  Cd1       1.0  0.7900948758363667  0.22235445428015774  0.2330793362549386  1.0000
  Cd  Cd2       1.0  0.20990855635231043  0.7776427001177951  0.7669210304593507  1.0000
  H   H1        1.0  0.9845041940949243  0.5999275252153922  0.2535168537552863  1.0000
  H   H2        1.0  0.015482627141899652  0.4000759164159079  0.7464783901725696  1.0000
  H   H3        1.0  0.633323075739625  0.49777880882027153  0.5181707296464708  1.0000
  H   H4        1.0  0.3666660383074073  0.5022246071115221  0.4818289082987804  1.0000
  H   H5        1.0  0.6805113819420183  0.6633744785749516  0.6054352527481017  1.0000
  H   H6        1.0  0.31949114819087737  0.3366247066779878  0.3945640562124099  1.0000
  H   H7        1.0  0.8781696954889852  0.7916849861712053  0.509055186933594  1.0000
  H   H8        1.0  0.12183011895632488  0.20831221413064333  0.4909416532470844  1.0000
  H   H9        1.0  0.1751203669799039  0.2349532179645309  0.24271231833604653  1.0000
  H   H10       1.0  0.8248817907421393  0.765040929640392  0.7572909869149245  1.0000
  H   H11       1.0  0.5086404864277512  0.8803290229437909  0.44172593483525446  1.0000
  H   H12       1.0  0.4913618263795881  0.11966714634367291  0.5582800419168877  1.0000
  H   H13       1.0  0.24766438889931647  0.7954408338720143  0.47665642964634  1.0000
  H   H14       1.0  0.7523366824043903  0.20455837710128585  0.5233460451673366  1.0000
  H   H15       1.0  0.9631446856413745  0.9372489954417205  0.38280457945688806  1.0000
  H   H16       1.0  0.03685699873677348  0.06274616851001721  0.6171985799787549  1.0000
  H   H17       1.0  0.8882733438912209  0.8794163876306699  0.22464256265616475  1.0000
  H   H18       1.0  0.11171932207790276  0.12058495703735876  0.7753563980752746  1.0000
  H   H19       1.0  0.8125972048492044  0.750563898532434  0.11476975933707931  1.0000
  H   H20       1.0  0.1873910129765547  0.24943852309557707  0.8852316580304136  1.0000
  H   H21       1.0  0.6992434706044289  0.8700472239646618  0.9374684726724781  1.0000
  H   H22       1.0  0.3007547394466386  0.12995605789105014  0.06252815737870068  1.0000
  H   H23       1.0  0.6183118558741612  0.08213383259839453  0.8013592887244345  1.0000
  H   H24       1.0  0.38170381088350763  0.9178671833251714  0.19863861363803184  1.0000
  H   H25       1.0  0.6009041241620775  0.3201495332987606  0.7404356831187044  1.0000
  H   H26       1.0  0.39911275707546395  0.6798494388992112  0.25955791413568363  1.0000
  H   H27       1.0  0.6312021080978738  0.5273034228841311  0.7764399060476707  1.0000
  H   H28       1.0  0.3688002435069746  0.47269576972344424  0.22356246740532984  1.0000
  H   H29       1.0  0.7071706650371393  0.6372245819852936  0.8987445369670226  1.0000
  H   H30       1.0  0.29281262546685827  0.36278295810829064  0.10125635404519073  1.0000
  H   H31       1.0  0.7971860528772935  0.5021076944825111  0.08003058896699869  1.0000
  H   H32       1.0  0.20279359060608462  0.49790494571091415  0.9199696743292664  1.0000
  C   C1        1.0  0.9134739572386504  0.6145036707225062  0.33114947757158564  1.0000
  C   C2        1.0  0.08651619276020014  0.38549770883832224  0.6688489197580767  1.0000
  C   C3        1.0  0.8048825488304059  0.5377749257208535  0.3781286470146484  1.0000
  C   C4        1.0  0.19511320155141476  0.46222233887147  0.6218723278636632  1.0000
  C   C5        1.0  0.7185609081626367  0.5554986039425954  0.4785845509201182  1.0000
  C   C6        1.0  0.2814350865685141  0.4445006786549613  0.5214175632131204  1.0000
  C   C7        1.0  0.7452318775706671  0.647144990655015  0.5271107023381562  1.0000
  C   C8        1.0  0.25476980097297286  0.3528531984554846  0.47288961992146744  1.0000
  C   C9        1.0  0.8558126662279616  0.7186316863887967  0.47310713765656237  1.0000
  C   C10       1.0  0.1441869192227826  0.28136854826510677  0.5268906959637222  1.0000
  C   C11       1.0  0.7914263126890335  0.4360602227733282  0.3224860465891127  1.0000
  C   C12       1.0  0.20857203709257974  0.563940028407643  0.6775111222687187  1.0000
  C   C13       1.0  0.19818070462389406  0.13558326300913143  0.2925250025887537  1.0000
  C   C14       1.0  0.8018201727970079  0.8644109029615165  0.7074784040228865  1.0000
  C   C15       1.0  0.36326258538223033  0.061820447318886806  0.33746595565650495  1.0000
  C   C16       1.0  0.6367346954845697  0.9381757917541763  0.6625388942920765  1.0000
  C   C17       1.0  0.38172176667267593  0.9378842889475294  0.4050495415493174  1.0000
  C   C18       1.0  0.6182786585935884  0.06211292056845961  0.5949586891175401  1.0000
  C   C19       1.0  0.23787211686099116  0.8908618182592395  0.4232231094383111  1.0000
  C   C20       1.0  0.7621322832047425  0.10913533064358921  0.576782518777165  1.0000
  C   C21       1.0  0.07932231363685809  0.9692930480636832  0.373068088258549  1.0000
  C   C22       1.0  0.9206791863787273  0.030705148401452196  0.6269352984935779  1.0000
  C   C23       1.0  0.5165884999289074  0.11465264534461994  0.31192318915541517  1.0000
  C   C24       1.0  0.48340963252714864  0.8853445898708828  0.6880806474940473  1.0000
  C   C25       1.0  0.8391633304938746  0.928783654587228  0.14716867240873208  1.0000
  C   C26       1.0  0.16084081355351998  0.0712175266278976  0.8528301421997853  1.0000
  C   C27       1.0  0.7966973390714637  0.8565134683543506  0.08507259514730242  1.0000
  C   C28       1.0  0.20330053736625325  0.14348779917344254  0.9149244278952082  1.0000
  C   C29       1.0  0.7343875137015272  0.9222857249793323  0.9876728678010311  1.0000
  C   C30       1.0  0.2656161123699619  0.07771647442127971  0.012326567115280797  1.0000
  C   C31       1.0  0.7152650536716788  0.0598024286844066  0.9520972972430713  1.0000
  C   C32       1.0  0.28474814174773383  0.9401986202933018  0.047899275594495805  1.0000
  C   C33       1.0  0.654460436020777  0.13367121175351573  0.851473051284167  1.0000
  C   C34       1.0  0.3455549417555587  0.866327788003474  0.1485244779465091  1.0000
  C   C35       1.0  0.6433310458548859  0.26513879542102364  0.8181900032911076  1.0000
  C   C36       1.0  0.3566805356500352  0.7348602575944911  0.18180706389846082  1.0000
  C   C37       1.0  0.6867596261616098  0.3342373704148542  0.8846963876352663  1.0000
  C   C38       1.0  0.31324796887483325  0.6657677935313515  0.11529760765364475  1.0000
  C   C39       1.0  0.6750224965445071  0.47057419049608035  0.8534753835022004  1.0000
  C   C40       1.0  0.3249814419510599  0.529427996033917  0.14651868855225564  1.0000
  C   C41       1.0  0.7167681146331049  0.5320016001198836  0.9218584398522297  1.0000
  C   C42       1.0  0.28322369391224794  0.468001773564474  0.0781386970023163  1.0000
  C   C43       1.0  0.7658715191946328  0.4581065201905687  0.02208211293193327  1.0000
  C   C44       1.0  0.2341201942521848  0.5418998823298722  0.977913718992838  1.0000
  C   C45       1.0  0.7410506583431411  0.26593920814709554  0.9869853904822466  1.0000
  C   C46       1.0  0.25895959822862824  0.7340598650728085  0.013012544191106179  1.0000
  C   C47       1.0  0.7596485540413626  0.12479457702085028  0.020688604769979694  1.0000
  C   C48       1.0  0.24036662401766037  0.875202402892249  0.9793070190826471  1.0000
  N   N1        1.0  0.938962816882487  0.7040145885807404  0.37627197040025356  1.0000
  N   N2        1.0  0.06102937574274132  0.29598777243410973  0.6237268445158578  1.0000
  N   N3        1.0  0.05939903552459917  0.09015422398229593  0.30958293183365276  1.0000
  N   N4        1.0  0.9405974830169652  0.9098410152710201  0.6904213991678037  1.0000
  N   N5        1.0  0.8202056178621007  0.05889489596633272  0.11612486464748879  1.0000
  N   N6        1.0  0.17979951750509532  0.9411042507164924  0.8838734754685548  1.0000
  N   N7        1.0  0.7762927447963359  0.32963173778512106  0.05385678890511511  1.0000
  N   N8        1.0  0.22371328679213315  0.6703684032014792  0.946139771788687  1.0000
  O   O1        1.0  0.8889059119980374  0.4175399104145257  0.23568931970161341  1.0000
  O   O2        1.0  0.11109477522579403  0.582460313228282  0.7643114770504911  1.0000
  O   O3        1.0  0.6865842268602832  0.3707536696599264  0.3647331336645367  1.0000
  O   O4        1.0  0.3134074031570219  0.6292497113790674  0.6352670676824986  1.0000
  O   O5        1.0  0.49030656490229035  0.22539342925129804  0.2445102577987583  1.0000
  O   O6        1.0  0.5096912785724325  0.774601789797629  0.7554932057188993  1.0000
  O   O7        1.0  0.6629881894731751  0.04794556951063101  0.3554990418081518  1.0000
  O   O8        1.0  0.3370095142710027  0.9520526802130294  0.6445038829028604  1.0000
