data_image0
_chemical_formula_structural       In4H12C8O20
_chemical_formula_sum              "In4 H12 C8 O20"
_cell_length_a       6.134999980015539
_cell_length_b       9.382900666270563
_cell_length_c       9.382964821349432
_cell_angle_alpha    83.8708836088519
_cell_angle_beta     70.9278426966504
_cell_angle_gamma    70.92733451666106

_space_group_name_H-M_alt    "P 1"
_space_group_IT_number       1

loop_
  _space_group_symop_operation_xyz
  'x, y, z'

loop_
  _atom_site_type_symbol
  _atom_site_label
  _atom_site_symmetry_multiplicity
  _atom_site_fract_x
  _atom_site_fract_y
  _atom_site_fract_z
  _atom_site_occupancy
  In  In1       1.0  0.23042347450914547  0.8943596476377917  0.3943857050723024  1.0000
  In  In2       1.0  0.5195667386449615  0.10561651351049757  0.6056512750574399  1.0000
  In  In3       1.0  0.8750016638493039  0.6057119384802405  0.8942890431088557  1.0000
  In  In4       1.0  0.37499709979852036  0.39432040448581057  0.1056817863388062  1.0000
  H   H1        1.0  0.7798206977585955  0.9353244978018151  0.1831686411084448  1.0000
  H   H2        1.0  0.8992708670326129  0.06478672933809546  0.8170498356798248  1.0000
  H   H3        1.0  0.28419936285761377  0.8168618053257506  0.9352850826250928  1.0000
  H   H4        1.0  0.03633689143241989  0.18318184209916666  0.0647681138882632  1.0000
  H   H5        1.0  0.9701694478395454  0.31684089116675535  0.564677299260346  1.0000
  H   H6        1.0  0.8507366292477277  0.6829345022824638  0.435204516382008  1.0000
  H   H7        1.0  0.4657956219254448  0.564717315249858  0.6831443613219719  1.0000
  H   H8        1.0  0.7136578513802908  0.4352377143661812  0.31680987048154907  1.0000
  H   H9        1.0  0.3749943852225855  0.13086640650170978  0.36913438554515204  1.0000
  H   H10       1.0  0.874995354793129  0.8690389199454033  0.6309672518731588  1.0000
  H   H11       1.0  0.49417199440382154  0.6309911037445203  0.1308135559762889  1.0000
  H   H12       1.0  0.25581696074761634  0.3691903943367477  0.8690012748183518  1.0000
  C   C1        1.0  0.7478242961235896  0.8454477046153954  0.13332654309723319  1.0000
  C   C2        1.0  0.7275167253809728  0.15459354852557536  0.8667490156897768  1.0000
  C   C3        1.0  0.40601891202131685  0.8667622625769197  0.845420044383566  1.0000
  C   C4        1.0  0.11832121750268244  0.13332589333936076  0.15457195978625288  1.0000
  C   C5        1.0  0.002169706937188373  0.36667410565223696  0.6545527671880436  1.0000
  C   C6        1.0  0.02249134608570814  0.633247744790374  0.3454118050800759  1.0000
  C   C7        1.0  0.34398463776752686  0.654581342137284  0.6332451506047505  1.0000
  C   C8        1.0  0.6316707802490602  0.34542406166472256  0.3666687844124752  1.0000
  O   O1        1.0  0.3750028462812269  0.052349130366153  0.447649864183397  1.0000
  O   O2        1.0  0.8750066184118953  0.9475531256389614  0.5524495189196799  1.0000
  O   O3        1.0  0.5724341259577488  0.5524615573590592  0.05234733452982  1.0000
  O   O4        1.0  0.1775696523462361  0.44764838259069956  0.9475396673086962  1.0000
  O   O5        1.0  0.5514802311511388  0.8134177861983432  0.1904609031980229  1.0000
  O   O6        1.0  0.5564797685474902  0.18640989046361503  0.8094721622627857  1.0000
  O   O7        1.0  0.6343758132772384  0.8095191220635128  0.8134075150840374  1.0000
  O   O8        1.0  0.25774210192632563  0.19036493835999116  0.1865104753146056  1.0000
  O   O9        1.0  0.1985127712005834  0.30953535015720485  0.6865823642605233  1.0000
  O   O10       1.0  0.19354088134729605  0.6905116712486645  0.3135991270362979  1.0000
  O   O11       1.0  0.11564196251230686  0.6865937356242782  0.690482273479553  1.0000
  O   O12       1.0  0.4922477112248843  0.3134831764664127  0.3096331012696325  1.0000
  O   O13       1.0  0.9171676180631964  0.7778255433259671  0.0190099064934302  1.0000
  O   O14       1.0  0.7144203743639894  0.22233820874578913  0.9811493654351154  1.0000
  O   O15       1.0  0.3046828642237358  0.9811511879303507  0.7777368351330622  1.0000
  O   O16       1.0  0.06331615576080205  0.019052950229856  0.2223586551954355  1.0000
  O   O17       1.0  0.8328424489076344  0.48099172454485734  0.7221727006325693  1.0000
  O   O18       1.0  0.03557463137650525  0.5188493298536088  0.27766268651230064  1.0000
  O   O19       1.0  0.4453160540374984  0.7222635296124976  0.5188566185825534  1.0000
  O   O20       1.0  0.686686324427008  0.2776452395498054  0.4809448096850417  1.0000
