data_image0
_chemical_formula_structural       H20Pb4C16O20
_chemical_formula_sum              "H20 Pb4 C16 O20"
_cell_length_a       7.836437894712593
_cell_length_b       7.276762682967769
_cell_length_c       12.020264687876729
_cell_angle_alpha    102.17625679716734
_cell_angle_beta     89.99873948652403
_cell_angle_gamma    90.00842086744467

_space_group_name_H-M_alt    "P 1"
_space_group_IT_number       1

loop_
  _space_group_symop_operation_xyz
  'x, y, z'

loop_
  _atom_site_type_symbol
  _atom_site_label
  _atom_site_symmetry_multiplicity
  _atom_site_fract_x
  _atom_site_fract_y
  _atom_site_fract_z
  _atom_site_occupancy
  H   H1        1.0  0.3084487098144422  0.14518350464602042  0.39336809857670124  1.0000
  H   H2        1.0  0.8083561902964008  0.8547142567290537  0.10658291239221998  1.0000
  H   H3        1.0  0.6916132982239774  0.8548529862735919  0.6066301604311874  1.0000
  H   H4        1.0  0.1916037306761922  0.14527321388774792  0.8934048451458736  1.0000
  H   H5        1.0  0.2070172406748867  0.978513092651326  0.45751651723253417  1.0000
  H   H6        1.0  0.706927625720219  0.021412450065938102  0.0424634326884501  1.0000
  H   H7        1.0  0.7930166932260932  0.0215387633475217  0.5424856507757596  1.0000
  H   H8        1.0  0.2930271939005991  0.9785506488729611  0.9575032828465594  1.0000
  H   H9        1.0  0.41495910521594237  0.036610204356826194  0.6174097441481763  1.0000
  H   H10       1.0  0.9149175035026929  0.963369073169126  0.8825890277767456  1.0000
  H   H11       1.0  0.585060791053408  0.9633924244506886  0.3825860592796388  1.0000
  H   H12       1.0  0.08505135022953429  0.0366002192504808  0.11739440835181371  1.0000
  H   H13       1.0  0.898944098736891  0.27613393733000885  0.858546952675603  1.0000
  H   H14       1.0  0.3989498619321452  0.7238675131645067  0.6414780476364115  1.0000
  H   H15       1.0  0.10106941655228499  0.7239245902748549  0.14146284800133907  1.0000
  H   H16       1.0  0.6011006530261582  0.2760993755603637  0.3585508205889525  1.0000
  H   H17       1.0  0.7750476486365445  0.20811303346180673  0.753564977917101  1.0000
  H   H18       1.0  0.27500921593948396  0.7919295593902831  0.7464581618669044  1.0000
  H   H19       1.0  0.2249416186707904  0.7919504525943283  0.24645803110429654  1.0000
  H   H20       1.0  0.7249302935564971  0.20808201609382593  0.2535023216793917  1.0000
  Pb  Pb1       1.0  0.8960560147206138  0.5102476918275229  0.6734052904643733  1.0000
  Pb  Pb2       1.0  0.3959998386210657  0.4896995200009188  0.8265847845557701  1.0000
  Pb  Pb3       1.0  0.10391283986854923  0.48974566429816946  0.3265783339649602  1.0000
  Pb  Pb4       1.0  0.6039141322178168  0.5103128854848792  0.17346654321565316  1.0000
  C   C1        1.0  0.2811108754334768  0.11012056944223762  0.4764658714453276  1.0000
  C   C2        1.0  0.7810544017583753  0.8898418092484164  0.02350201803012198  1.0000
  C   C3        1.0  0.7189396477092773  0.8899229017958419  0.5235342395701109  1.0000
  C   C4        1.0  0.21891190006248  0.11012335510288557  0.976479149828684  1.0000
  C   C5        1.0  0.44630994697133275  0.079386553638642  0.5374407016836145  1.0000
  C   C6        1.0  0.9462762783968374  0.9205868828810682  0.9625502840068307  1.0000
  C   C7        1.0  0.553731641598347  0.920632545180908  0.46256500169214126  1.0000
  C   C8        1.0  0.0536874708063237  0.0793809597060431  0.03743377220298069  1.0000
  C   C9        1.0  0.5574990133237988  0.2557072765969367  0.5683402345940962  1.0000
  C   C10       1.0  0.0574494423243053  0.7442524898988268  0.9316513121783602  1.0000
  C   C11       1.0  0.44255915881841196  0.744293425352737  0.4316919122634957  1.0000
  C   C12       1.0  0.9425130305063335  0.2557180750258752  0.0683348065737306  1.0000
  C   C13       1.0  0.15954383964222532  0.25554682891684877  0.5415100747806321  1.0000
  C   C14       1.0  0.6594897010985435  0.7444035565251428  0.9584294963768941  1.0000
  C   C15       1.0  0.840513064795836  0.744503888722825  0.45848693423815234  1.0000
  C   C16       1.0  0.3404931895564616  0.2555432989801645  0.04154982845275871  1.0000
  O   O1        1.0  0.599694393000192  0.3110250219753468  0.6744657531001651  1.0000
  O   O2        1.0  0.0996737956230405  0.6889102106306028  0.8255307706094541  1.0000
  O   O3        1.0  0.4002731753949718  0.6889949002285365  0.32557752110893295  1.0000
  O   O4        1.0  0.9002440137101217  0.3110252183884796  0.1744502091968627  1.0000
  O   O5        1.0  0.6135095200635446  0.33642498814005245  0.4932381503749781  1.0000
  O   O6        1.0  0.113414144955577  0.6635315427317892  0.006754710240301206  1.0000
  O   O7        1.0  0.38664308019112786  0.6635371727613021  0.5068000210810197  1.0000
  O   O8        1.0  0.886594267914127  0.33647288485719423  0.9932338644099374  1.0000
  O   O9        1.0  0.1959420264354392  0.34814733847229457  0.6408882067274746  1.0000
  O   O10       1.0  0.6958898956333002  0.6517908447222637  0.8590582558285007  1.0000
  O   O11       1.0  0.804026813890154  0.6517649119920962  0.3591559747683277  1.0000
  O   O12       1.0  0.30405599484766554  0.34822788932800114  0.14090077755064806  1.0000
  O   O13       1.0  0.018191059387298505  0.27835178183684656  0.4926983343317204  1.0000
  O   O14       1.0  0.518128154176786  0.721600398689269  0.007242953265311822  1.0000
  O   O15       1.0  0.9819296623554621  0.7218202738321722  0.507253990771332  1.0000
  O   O16       1.0  0.4818866316577158  0.2782729966854163  0.9927597608403786  1.0000
  O   O17       1.0  0.8954354252150908  0.23755903841929188  0.7722579456215614  1.0000
  O   O18       1.0  0.39538261609302344  0.7624413036326344  0.7277681186248586  1.0000
  O   O19       1.0  0.1045563979799695  0.7625195098978991  0.22774812166657196  1.0000
  O   O20       1.0  0.6045658117069691  0.23752978590314908  0.2722613573469062  1.0000
