data_image0
_chemical_formula_structural       CdH16C18N14O2
_chemical_formula_sum              "Cd1 H16 C18 N14 O2"
_cell_length_a       7.552361702093964
_cell_length_b       7.700276154031943
_cell_length_c       9.52116048120817
_cell_angle_alpha    98.26378506765685
_cell_angle_beta     97.30019170025308
_cell_angle_gamma    111.12589801459376

_space_group_name_H-M_alt    "P 1"
_space_group_IT_number       1

loop_
  _space_group_symop_operation_xyz
  'x, y, z'

loop_
  _atom_site_type_symbol
  _atom_site_label
  _atom_site_symmetry_multiplicity
  _atom_site_fract_x
  _atom_site_fract_y
  _atom_site_fract_z
  _atom_site_occupancy
  Cd  Cd1       1.0  0.4999978722887378  0.49999912743920316  0.4999997790074034  1.0000
  H   H1        1.0  0.2584338277791005  0.11136901660050569  0.5395956141902758  1.0000
  H   H2        1.0  0.7415640496375245  0.8886278389120643  0.4604029481905981  1.0000
  H   H3        1.0  0.18002728884616914  0.25448800914512754  0.6243696462807267  1.0000
  H   H4        1.0  0.8199705885704561  0.7455088463674429  0.3756289161001547  1.0000
  H   H5        1.0  0.3816156527006457  0.03522893623583199  0.2684230603832987  1.0000
  H   H6        1.0  0.6183774317703978  0.9647693232241036  0.7315751673939347  1.0000
  H   H7        1.0  0.45878320799781147  0.5611849903286839  0.15707232908715701  1.0000
  H   H8        1.0  0.5412144137848927  0.43881467769023164  0.8429286489850583  1.0000
  H   H9        1.0  0.09160174993610332  0.06922190779743428  0.812791134481273  1.0000
  H   H10       1.0  0.908396127480522  0.9307749477151361  0.18720742789960812  1.0000
  H   H11       1.0  0.9171243616451292  0.7658337268054538  0.6349633049874727  1.0000
  H   H12       1.0  0.0828696950786068  0.2341602336027719  0.3650376537214655  1.0000
  H   H13       1.0  0.1578367322631564  0.4750330224083825  0.909723291722493  1.0000
  H   H14       1.0  0.842166816538608  0.5249681138197315  0.09027638896488102  1.0000
  H   H15       1.0  0.3350029999521453  0.778872341493809  0.08687076799596843  1.0000
  H   H16       1.0  0.6650078523196045  0.22113030882904644  0.9131246149153257  1.0000
  C   C1        1.0  0.3818810615729974  0.14425839631495313  0.20803584978451542  1.0000
  C   C2        1.0  0.6181152632977102  0.8557413084063936  0.7919618449474726  1.0000
  C   C3        1.0  0.41540303151846564  0.40921578583490975  0.1485598151524314  1.0000
  C   C4        1.0  0.5845943743997781  0.5907867359843377  0.8514404367453849  1.0000
  C   C5        1.0  0.21986178735680548  0.9408746857473816  0.9613130936995092  1.0000
  C   C6        1.0  0.7801390880820449  0.0591264412976003  0.03868630403886903  1.0000
  C   C7        1.0  0.10450735075557556  0.9385389074368646  0.8335366021402848  1.0000
  C   C8        1.0  0.8954929709030212  0.06146079729450089  0.16646256430375675  1.0000
  C   C9        1.0  0.006598686710233988  0.7678187909412487  0.7346919041371011  1.0000
  C   C10       1.0  0.9933986926950313  0.23218370334868146  0.26531044233786366  1.0000
  C   C11       1.0  0.021432251512521743  0.5986526932416749  0.7616283660601582  1.0000
  C   C12       1.0  0.9785723518238073  0.4013512325550153  0.23837596637019237  1.0000
  C   C13       1.0  0.14266378354159304  0.6048683897607956  0.8887199669664624  1.0000
  C   C14       1.0  0.8573397520036893  0.395132732702656  0.11128076100948901  1.0000
  C   C15       1.0  0.24136921745035525  0.7751268621952718  0.988564122005869  1.0000
  C   C16       1.0  0.7586370444837912  0.22487432450994757  0.011432699764760914  1.0000
  C   C17       1.0  0.9080584251866313  0.41809306772215377  0.6609990485231876  1.0000
  C   C18       1.0  0.09194048025158713  0.5819065498296752  0.3390062601778255  1.0000
  N   N1        1.0  0.44671962779491275  0.3298188359071901  0.2636692686355957  1.0000
  N   N2        1.0  0.5532740104563844  0.670180845866369  0.7363291904359812  1.0000
  N   N3        1.0  0.3343294515422813  0.28390609006248  0.02512583400550031  1.0000
  N   N4        1.0  0.6656714371530584  0.7160950507471638  0.9748725164443073  1.0000
  N   N5        1.0  0.3131319930766097  0.11447518815997877  0.0644670298134145  1.0000
  N   N6        1.0  0.6868681127175195  0.8855273703717259  0.9355314104562354  1.0000
  N   N7        1.0  0.7408145841346396  0.3809526714732101  0.5686202674200659  1.0000
  N   N8        1.0  0.25918514397423564  0.6190455696505524  0.4313818095953721  1.0000
  N   N9        1.0  0.6796226673131472  0.19829765756298903  0.5001675155711497  1.0000
  N   N10       1.0  0.3203757506272423  0.801700606498535  0.49983232539264594  1.0000
  N   N11       1.0  0.8043685473998891  0.1276790157253274  0.5483106059795092  1.0000
  N   N12       1.0  0.19562989705347902  0.8723192758655287  0.45168714040713104  1.0000
  N   N13       1.0  0.950189312438667  0.2612727554498235  0.6495015099790606  1.0000
  N   N14       1.0  0.04980910550172979  0.7387255086117078  0.3504983309847276  1.0000
  O   O1        1.0  0.298249047733222  0.24563293884998666  0.5932419990674165  1.0000
  O   O2        1.0  0.7017493702071674  0.7543653252115373  0.406757841896372  1.0000
