data_image0
_chemical_formula_structural       Cd2H28C32N8O8
_chemical_formula_sum              "Cd2 H28 C32 N8 O8"
_cell_length_a       7.454134326728604
_cell_length_b       11.032429040430523
_cell_length_c       11.884533067950258
_cell_angle_alpha    117.84432227857421
_cell_angle_beta     108.5067868734782
_cell_angle_gamma    89.46540784669018

_space_group_name_H-M_alt    "P 1"
_space_group_IT_number       1

loop_
  _space_group_symop_operation_xyz
  'x, y, z'

loop_
  _atom_site_type_symbol
  _atom_site_label
  _atom_site_symmetry_multiplicity
  _atom_site_fract_x
  _atom_site_fract_y
  _atom_site_fract_z
  _atom_site_occupancy
  Cd  Cd1       1.0  0.5507133109835253  0.30100225409237424  0.6019090905154201  1.0000
  Cd  Cd2       1.0  0.4492855522891119  0.6989972646533077  0.39809138021360013  1.0000
  H   H1        1.0  0.9149692297607289  0.11310356756437297  0.467711771440861  1.0000
  H   H2        1.0  0.05326653693728639  0.3548064085740564  0.4681714811622513  1.0000
  H   H3        1.0  0.0850280605888116  0.8869011389308314  0.5322872395161227  1.0000
  H   H4        1.0  0.9467301716494987  0.6451900361664258  0.5318297801341956  1.0000
  H   H5        1.0  0.9888718355168821  0.9690347180338748  0.35720514310314405  1.0000
  H   H6        1.0  0.8689025399412459  0.3878126345886984  0.3572705456106533  1.0000
  H   H7        1.0  0.011126875981268802  0.030969983210745504  0.6427949853538806  1.0000
  H   H8        1.0  0.13109671293083383  0.612182721625871  0.6427290663192338  1.0000
  H   H9        1.0  0.6534333478252492  0.0679053623450798  0.7252621160169072  1.0000
  H   H10       1.0  0.5717872129921632  0.6570557825109588  0.7254786893132702  1.0000
  H   H11       1.0  0.3465722014975157  0.9320982636503318  0.27474225829257654  1.0000
  H   H12       1.0  0.42821306139792625  0.34294372130798223  0.274522051342835  1.0000
  H   H13       1.0  0.1791809491191927  0.3356236548109096  0.011392285227280816  1.0000
  H   H14       1.0  0.33192840196116435  0.6763653428903426  0.012011243670592368  1.0000
  H   H15       1.0  0.8208225215370604  0.6643830899699098  0.9886104887335421  1.0000
  H   H16       1.0  0.6680671233019808  0.3236321270685495  0.9879876990546775  1.0000
  H   H17       1.0  0.9936509661383963  0.4357246373095406  0.8344710155493402  1.0000
  H   H18       1.0  0.3403347364695862  0.3991292596830718  0.835285598974984  1.0000
  H   H19       1.0  0.006346622223062924  0.5642811472104085  0.16553187977429215  1.0000
  H   H20       1.0  0.6596664332633749  0.6008681505688713  0.164714423458605  1.0000
  H   H21       1.0  0.8738851488399817  0.899252461692214  0.7474777416546772  1.0000
  H   H22       1.0  0.3733442971487264  0.8479134836110942  0.7475465948615749  1.0000
  H   H23       1.0  0.12611815551650812  0.1007480032126153  0.2525197950655667  1.0000
  H   H24       1.0  0.6266580157832352  0.152082862717819  0.2524523558513394  1.0000
  H   H25       1.0  0.939079747292318  0.7427736704455724  0.8479165105020599  1.0000
  H   H26       1.0  0.4085622936540362  0.10482034952095631  0.847580477022774  1.0000
  H   H27       1.0  0.0609207649227343  0.25722685334119433  0.1520830290829167  1.0000
  H   H28       1.0  0.5914402571028957  0.8951770167757832  0.15241727261900465  1.0000
  C   C1        1.0  0.21685407777169277  0.1235668230926876  0.5302152358489494  1.0000
  C   C2        1.0  0.8133786305970292  0.40673987730960465  0.5303352340781374  1.0000
  C   C3        1.0  0.7831441179518777  0.8764357995116684  0.46978390445848817  1.0000
  C   C4        1.0  0.1866166167165062  0.5932565339768486  0.4696615194264168  1.0000
  C   C5        1.0  0.017043089823808102  0.03975942106734461  0.4656347145419133  1.0000
  C   C6        1.0  0.9488566209743328  0.42583023015996  0.4658060013923091  1.0000
  C   C7        1.0  0.9829542205880488  0.9602453047801591  0.5343659915609962  1.0000
  C   C8        1.0  0.051139809662849645  0.5741651559080835  0.5341930706834219  1.0000
  C   C9        1.0  0.7703875263239796  0.1542358649927067  0.7770446395111108  1.0000
  C   C10       1.0  0.5063487374966444  0.6227048076615774  0.7773218222707143  1.0000
  C   C11       1.0  0.22961659181901695  0.8457677565771393  0.22295776972536888  1.0000
  C   C12       1.0  0.49364987791985737  0.37729368144012915  0.22267900195647172  1.0000
  C   C13       1.0  0.044530262259080196  0.29656986736910806  0.9263405131572426  1.0000
  C   C14       1.0  0.3813858941959367  0.6301180495589094  0.9268314931612807  1.0000
  C   C15       1.0  0.9554665424093544  0.7034327895142881  0.07366005236903563  1.0000
  C   C16       1.0  0.6186138744507302  0.3698793852959242  0.07316910691819345  1.0000
  C   C17       1.0  0.9520482424949037  0.34485397160931813  0.8393322218339705  1.0000
  C   C18       1.0  0.386735630160736  0.49472455133343374  0.8398959136372639  1.0000
  C   C19       1.0  0.04795166235804518  0.6551497140930422  0.1606710727671938  1.0000
  C   C20       1.0  0.6132672286392875  0.5052739026642072  0.1601065679441334  1.0000
  C   C21       1.0  0.9653280621505403  0.08640125422141412  0.944067520407863  1.0000
  C   C22       1.0  0.47875054294716096  0.8577189838969591  0.9442801548765586  1.0000
  C   C23       1.0  0.03467833235929869  0.913600229826223  0.055931897814296964  1.0000
  C   C24       1.0  0.5212463934334366  0.1422784711351923  0.05571905777578931  1.0000
  C   C25       1.0  0.9274730485552283  0.9425509906209656  0.8579624338516537  1.0000
  C   C26       1.0  0.43036268277178646  0.9152799203645472  0.8579997140323242  1.0000
  C   C27       1.0  0.07253167694987181  0.057449469033279896  0.14203622036863087  1.0000
  C   C28       1.0  0.5696370557813992  0.08471748546182312  0.14199834332826103  1.0000
  C   C29       1.0  0.9628129836517728  0.8551504549879214  0.9144328637363799  1.0000
  C   C30       1.0  0.45145286190660994  0.05911301762768059  0.9142233270179362  1.0000
  C   C31       1.0  0.037193400826915  0.1448510193835659  0.08556570691281709  1.0000
  C   C32       1.0  0.5485466187592891  0.9408833488785573  0.08577423626785212  1.0000
  N   N1        1.0  0.7818843349034168  0.25571383180163565  0.7478392677117327  1.0000
  N   N2        1.0  0.4655138782665987  0.49209924494883955  0.7482765686064781  1.0000
  N   N3        1.0  0.21811748681041374  0.7442919079380986  0.25216443739313393  1.0000
  N   N4        1.0  0.5344873014975208  0.5078981749792536  0.2517243014000742  1.0000
  N   N5        1.0  0.9282333448440312  0.175048243266744  0.885306489999266  1.0000
  N   N6        1.0  0.4568285492411661  0.7103459969992728  0.8856209986060576  1.0000
  N   N7        1.0  0.07177191649796555  0.8249543143800724  0.1146948475165319  1.0000
  N   N8        1.0  0.5431709514870491  0.2896503888592791  0.11437825982565637  1.0000
  O   O1        1.0  0.26501042503375777  0.1677414907991022  0.4582828543638939  1.0000
  O   O2        1.0  0.6938999995696166  0.2904012034278622  0.4586243304762121  1.0000
  O   O3        1.0  0.7349889239199711  0.8322600775583807  0.5417160617958243  1.0000
  O   O4        1.0  0.3060969167486647  0.7095962322519825  0.54137318703021  1.0000
  O   O5        1.0  0.3266556915899912  0.15042480315695173  0.6472428585983322  1.0000
  O   O6        1.0  0.8197138542902209  0.497253279244781  0.6470597867573389  1.0000
  O   O7        1.0  0.6733422663086088  0.8495767994795781  0.35275748278023394  1.0000
  O   O8        1.0  0.1802808973110501  0.5027410727537146  0.352937673743547  1.0000
