data_image0
_chemical_formula_structural       CuHg3H38C34N8Cl2O10
_chemical_formula_sum              "Cu1 Hg3 H38 C34 N8 Cl2 O10"
_cell_length_a       8.14845000685534
_cell_length_b       10.332326998007359
_cell_length_c       12.450496807529564
_cell_angle_alpha    83.15159352047397
_cell_angle_beta     81.7387340189754
_cell_angle_gamma    85.03910299013774

_space_group_name_H-M_alt    "P 1"
_space_group_IT_number       1

loop_
  _space_group_symop_operation_xyz
  'x, y, z'

loop_
  _atom_site_type_symbol
  _atom_site_label
  _atom_site_symmetry_multiplicity
  _atom_site_fract_x
  _atom_site_fract_y
  _atom_site_fract_z
  _atom_site_occupancy
  Cu  Cu1       1.0  1.2450342552074193e-06  0.5000005101223834  0.9999977664255013  1.0000
  Hg  Hg1       1.0  0.7740649804994817  0.12368026049723109  0.4100420346006787  1.0000
  Hg  Hg2       1.0  0.22593843278345827  0.876320216990301  0.5899591338864383  1.0000
  Hg  Hg3       1.0  0.5000047952969737  0.49999389991550924  0.4999993053243585  1.0000
  H   H1        1.0  0.9104340099804842  0.36081822993664053  0.5011213594704813  1.0000
  H   H2        1.0  0.0895686021697131  0.6391783241134306  0.498890714442453  1.0000
  H   H3        1.0  0.5515501067895132  0.08215959337128002  0.645031875672501  1.0000
  H   H4        1.0  0.4484450787697938  0.9178359611870092  0.3549657516534451  1.0000
  H   H5        1.0  0.5305940781209629  0.1854911203365077  0.8168155276376794  1.0000
  H   H6        1.0  0.4693958790120405  0.8144946302009406  0.183186782721151  1.0000
  H   H7        1.0  0.8688203443990901  0.4548544636076954  0.6781454922566966  1.0000
  H   H8        1.0  0.131168727951092  0.5451410489324928  0.32186798863023114  1.0000
  H   H9        1.0  0.5798149259059926  0.08335773486567892  0.2087404225942748  1.0000
  H   H10       1.0  0.4201886598864064  0.916640790894505  0.7912577089632151  1.0000
  H   H11       1.0  0.6498241770135281  0.9602872135396793  0.0463564220565402  1.0000
  H   H12       1.0  0.3501861755340983  0.0397181884369218  0.953639576508685  1.0000
  H   H13       1.0  0.1243900378719829  0.8512281748106576  0.11989400103449549  1.0000
  H   H14       1.0  0.8756166093945126  0.14877720761001004  0.8801047659456883  1.0000
  H   H15       1.0  0.07566730711494071  0.9658130258356721  0.28711537495018286  1.0000
  H   H16       1.0  0.9243382820144105  0.03419039766580311  0.7128820807293649  1.0000
  H   H17       1.0  0.7477354291827183  0.33229846519978423  0.1256183624081402  1.0000
  H   H18       1.0  0.2522668814920479  0.6677000601006214  0.8743734665383087  1.0000
  H   H19       1.0  0.5558852309526898  0.3310888733986702  0.3001289567940546  1.0000
  H   H20       1.0  0.4441174603178125  0.6689057430613943  0.6998632208851703  1.0000
  H   H21       1.0  0.9596993123339033  0.6621686280305853  0.18370211352683438  1.0000
  H   H22       1.0  0.040299206804995415  0.33783085357755743  0.8162940022993793  1.0000
  H   H23       1.0  0.783090903307425  0.6733173164922948  0.3632534477002451  1.0000
  H   H24       1.0  0.21690532704771925  0.3266801990048052  0.6367430824543234  1.0000
  H   H25       1.0  0.3161274016489132  0.4106710309162907  0.18841627202851188  1.0000
  H   H26       1.0  0.6838654203707576  0.5893362416247356  0.8115836403760852  1.0000
  H   H27       1.0  0.48521067729225825  0.4397803952359853  0.08331273808909147  1.0000
  H   H28       1.0  0.5147875875295468  0.560222013289959  0.91668873595556  1.0000
  H   H29       1.0  0.3470379986132528  0.3471584901770087  0.9518697158832623  1.0000
  H   H30       1.0  0.6529616053454036  0.6528429463110828  0.04813252818761527  1.0000
  H   H31       1.0  0.3609163525285837  0.23650652702441025  0.0717647368697314  1.0000
  H   H32       1.0  0.6390820118892648  0.7634949036182448  0.9282376271821206  1.0000
  H   H33       1.0  0.2794260088877323  0.615403798144712  0.12730955847870717  1.0000
  H   H34       1.0  0.7205638512538783  0.38459563985254874  0.8726906085103964  1.0000
  H   H35       1.0  0.07741545429549031  0.3006318224580582  0.13329584340520742  1.0000
  H   H36       1.0  0.9225801278055102  0.6993725308168024  0.8667032877630021  1.0000
  H   H37       1.0  0.0938564119286482  0.24546603681269372  0.01127830527471469  1.0000
  H   H38       1.0  0.906144508931355  0.7545344310035775  0.9887206947023515  1.0000
  C   C1        1.0  0.8239938498542756  0.31806780922793376  0.5684034720173585  1.0000
  C   C2        1.0  0.17600636057481717  0.681927758614009  0.4316057177447234  1.0000
  C   C3        1.0  0.6252787989979253  0.1645195088719049  0.647514695695193  1.0000
  C   C4        1.0  0.37471661688316976  0.8354740852073663  0.35249033141318614  1.0000
  C   C5        1.0  0.6136038105612656  0.2215960797312704  0.7446084363766017  1.0000
  C   C6        1.0  0.3863918640840183  0.7783945867569814  0.2553920353373371  1.0000
  C   C7        1.0  0.8029061640509596  0.37049718678990473  0.6679785579841209  1.0000
  C   C8        1.0  0.19708803452483886  0.6294963980778903  0.33203060322525596  1.0000
  C   C9        1.0  0.8209924262046187  0.0339063994875133  0.26472725417484355  1.0000
  C   C10       1.0  0.17900963904726547  0.9660950513842793  0.7352715386380452  1.0000
  C   C11       1.0  0.7345701595449441  0.21155989430899075  0.5563721218754125  1.0000
  C   C12       1.0  0.2654312548481386  0.7884356847640462  0.44363052531365094  1.0000
  C   C13       1.0  0.7027562167530448  0.03309209094301481  0.1931638346948361  1.0000
  C   C14       1.0  0.2972481550710029  0.9669113233469917  0.8068377550857164  1.0000
  C   C15       1.0  0.7415284788026498  0.9639260805366876  0.10200419710622544  1.0000
  C   C16       1.0  0.2584809970114962  0.036075409446965516  0.8979890588767532  1.0000
  C   C17       1.0  0.004296867029161412  0.9032847415987391  0.1428129666117499  1.0000
  C   C18       1.0  0.9957113692441766  0.09671674253947771  0.8571804093522104  1.0000
  C   C19       1.0  0.9765037745411858  0.9681379647296567  0.23651320782268928  1.0000
  C   C20       1.0  0.02350174167473539  0.031866432615871104  0.7634881747936859  1.0000
  C   C21       1.0  0.7512797036048083  0.40542067030496304  0.18132391781846022  1.0000
  C   C22       1.0  0.2487226248583667  0.5945778523026137  0.818671122424  1.0000
  C   C23       1.0  0.6455662942790782  0.40564574118361935  0.2795696794255136  1.0000
  C   C24       1.0  0.3544375547246119  0.5943498563123484  0.7204246995615478  1.0000
  C   C25       1.0  0.8691316895773511  0.5903866391564492  0.213613444871811  1.0000
  C   C26       1.0  0.1308670243065251  0.409610887358312  0.786383648144799  1.0000
  C   C27       1.0  0.7687800478897203  0.5959794829937979  0.31355875840444714  1.0000
  C   C28       1.0  0.23122370151793342  0.4040170923854589  0.6864347305754137  1.0000
  C   C29       1.0  0.3491769792577415  0.4362450893191579  0.10007452196375508  1.0000
  C   C30       1.0  0.6508187068864045  0.563758285399203  0.8999263020356593  1.0000
  C   C31       1.0  0.3008696537375429  0.3299365223072712  0.03929560913595509  1.0000
  C   C32       1.0  0.6991287062332034  0.6700649090085947  0.9607059520918994  1.0000
  C   C33       1.0  0.6526291448228462  0.5020114381739307  0.348849660317704  1.0000
  C   C34       1.0  0.34737386302418827  0.49798024194344515  0.6511483986791403  1.0000
  N   N1        1.0  0.7016790594792113  0.32203457393124074  0.7557994789920315  1.0000
  N   N2        1.0  0.2983081642550687  0.6779540918331364  0.2442084295472  1.0000
  N   N3        1.0  0.8886028893249717  0.8979260255746908  0.07703201792131859  1.0000
  N   N4        1.0  0.11140613742711741  0.1020803464201379  0.9229656190897018  1.0000
  N   N5        1.0  0.8608150915458239  0.49712827396883363  0.1482344775539417  1.0000
  N   N6        1.0  0.13918838575633427  0.5028712310210538  0.8517611583483456  1.0000
  N   N7        1.0  0.11849787670841748  0.322965234426654  0.0517935380171721  1.0000
  N   N8        1.0  0.8815004743681243  0.6770361982356192  0.9482064175626661  1.0000
  Cl  Cl1       1.0  0.7904637670599685  0.776680688370135  0.6274078916977713  1.0000
  Cl  Cl2       1.0  0.2095374640870062  0.22332955402637825  0.3725941305863785  1.0000
  O   O1        1.0  0.7282789228514375  0.684674666770242  0.5650592893468911  1.0000
  O   O2        1.0  0.271715535250749  0.3153414103327847  0.4349420069189875  1.0000
  O   O3        1.0  0.9218462474079203  0.709059427229434  0.6873196372047445  1.0000
  O   O4        1.0  0.07815790298853639  0.2909459461931831  0.31267615844139135  1.0000
  O   O5        1.0  0.8601998672466991  0.8848425785614754  0.5532390588867244  1.0000
  O   O6        1.0  0.13979879856391622  0.11516862800782948  0.44676472182420207  1.0000
  O   O7        1.0  0.6546156596489254  0.8268466222089756  0.7050179195364024  1.0000
  O   O8        1.0  0.3453932301705153  0.17316169612754356  0.2949891769962747  1.0000
  O   O9        1.0  0.2677206478478098  0.5602019147827947  0.06700573908399576  1.0000
  O   O10       1.0  0.7322787346832627  0.43980148083790754  0.9329907108524509  1.0000
