data_image0
_chemical_formula_structural       Cd2H32C52N14O4
_chemical_formula_sum              "Cd2 H32 C52 N14 O4"
_cell_length_a       10.558287616540937
_cell_length_b       10.74586657063212
_cell_length_c       13.779278436534131
_cell_angle_alpha    77.24498864285597
_cell_angle_beta     68.89517114221259
_cell_angle_gamma    69.70538643260672

_space_group_name_H-M_alt    "P 1"
_space_group_IT_number       1

loop_
  _space_group_symop_operation_xyz
  'x, y, z'

loop_
  _atom_site_type_symbol
  _atom_site_label
  _atom_site_symmetry_multiplicity
  _atom_site_fract_x
  _atom_site_fract_y
  _atom_site_fract_z
  _atom_site_occupancy
  Cd  Cd1       1.0  0.19120604483331494  0.690371873924846  0.16371055511814347  1.0000
  Cd  Cd2       1.0  0.8087937854572897  0.309627851480002  0.8362898076522852  1.0000
  H   H1        1.0  0.8993753827592598  0.5039958148500361  0.6237023595806618  1.0000
  H   H2        1.0  0.10062311073125578  0.49600491901993865  0.3762960252126532  1.0000
  H   H3        1.0  0.5954842999501224  0.12528808094241137  0.9477610072875748  1.0000
  H   H4        1.0  0.4045114887199188  0.8747116315305807  0.05224483440355232  1.0000
  H   H5        1.0  0.005328311387778188  0.11850074954625713  0.1627731911061261  1.0000
  H   H6        1.0  0.9946715119576905  0.881498981861995  0.8372257211031098  1.0000
  H   H7        1.0  0.27732363097315016  0.4163073727879906  0.054953585893180334  1.0000
  H   H8        1.0  0.722675878131355  0.5836933598124006  0.9450445170908494  1.0000
  H   H9        1.0  0.8820781815857186  0.00032403011845620063  0.18628324546551767  1.0000
  H   H10       1.0  0.11792663652089883  0.9996727016401226  0.8137147913404164  1.0000
  H   H11       1.0  0.4493509184843845  0.1927013360422976  0.301188218801073  1.0000
  H   H12       1.0  0.5506469604144612  0.8073013882051686  0.6988114486641948  1.0000
  H   H13       1.0  0.2101730815264418  0.3972033921308054  0.9403547445544546  1.0000
  H   H14       1.0  0.7898254154366384  0.602797338737467  0.05964436551945349  1.0000
  H   H15       1.0  0.22229559310909514  0.8104172285074966  0.4716846864301869  1.0000
  H   H16       1.0  0.7777036156447109  0.1895844932782396  0.5283155084510013  1.0000
  H   H17       1.0  0.8569343065665149  0.051900992371869806  0.3789312912015034  1.0000
  H   H18       1.0  0.14306622856967974  0.9480997299538387  0.6210687058150128  1.0000
  H   H19       1.0  0.16730324394919194  0.057373191371610205  0.2176786364786025  1.0000
  H   H20       1.0  0.832697284241867  0.9426275369574953  0.7823199099767278  1.0000
  H   H21       1.0  0.21256375150152002  0.5253672637002538  0.8078607015311904  1.0000
  H   H22       1.0  0.7874363826123415  0.47463146951755425  0.19213829462266574  1.0000
  H   H23       1.0  0.3145230746984566  0.030185822586403805  0.32876140306772317  1.0000
  H   H24       1.0  0.6854771427242027  0.9698159039331388  0.6712370594429942  1.0000
  H   H25       1.0  0.05650656097795091  0.6551177933441181  0.5411275721463651  1.0000
  H   H26       1.0  0.9434949897722334  0.34488292771200696  0.4588721430608657  1.0000
  H   H27       1.0  0.55847365173139  0.9421183825196594  0.09508411060081551  1.0000
  H   H28       1.0  0.44152447893502966  0.057880329223714014  0.9049212514163544  1.0000
  H   H29       1.0  0.7060199442560274  0.8811215724867337  0.2163144056788084  1.0000
  H   H30       1.0  0.29398254921704847  0.1188761449929601  0.7836877372040547  1.0000
  H   H31       1.0  0.2138990614557912  0.6645111062255111  0.6385541986399231  1.0000
  H   H32       1.0  0.786102796590228  0.33548861964186477  0.36144487523133495  1.0000
  C   C1        1.0  0.11848793089536964  0.25748911212332365  0.06239373828443461  1.0000
  C   C2        1.0  0.8815122032184988  0.7425096210944845  0.9376052578694143  1.0000
  C   C3        1.0  0.970616636570625  0.512427178497127  0.6613840680939801  1.0000
  C   C4        1.0  0.02938318677483661  0.487572552911125  0.33861484411525566  1.0000
  C   C5        1.0  0.6572311364229505  0.0932465588012761  0.0022655798996140653  1.0000
  C   C6        1.0  0.3427649525977897  0.9067521644863703  0.9977381698943546  1.0000
  C   C7        1.0  0.018193196965007992  0.18677042775155428  0.0912215676054799  1.0000
  C   C8        1.0  0.9818066263804605  0.813229303656691  0.9087773446037559  1.0000
  C   C9        1.0  0.04447130927176347  0.3552172957172672  0.9080494846164981  1.0000
  C   C10       1.0  0.9555285106011339  0.6447824386926797  0.09194870231214479  1.0000
  C   C11       1.0  0.9356951089905221  0.20273324253501812  0.02712585590137455  1.0000
  C   C12       1.0  0.06430603726476386  0.7972654924149013  0.9728721331625961  1.0000
  C   C13       1.0  0.04372420840963531  0.9229181116636129  0.4177716094926112  1.0000
  C   C14       1.0  0.9562764100353577  0.0770856039638375  0.5822278538807736  1.0000
  C   C15       1.0  0.4528490187719428  0.4074068398066402  0.1582992032886991  1.0000
  C   C16       1.0  0.5471511986507167  0.5925948867129022  0.8416992592220182  1.0000
  C   C17       1.0  0.2835793631060781  0.3315771175218032  0.11503580906732934  1.0000
  C   C18       1.0  0.7164211685575453  0.6684236078056003  0.8849634626685939  1.0000
  C   C19       1.0  0.3706644740728251  0.31449893303813786  0.17631868899635347  1.0000
  C   C20       1.0  0.6293360541182339  0.6855017952909678  0.8236798574589769  1.0000
  C   C21       1.0  0.8161347236862256  0.027689280410747596  0.13520125474155242  1.0000
  C   C22       1.0  0.18386846421474692  0.9723094429949058  0.8647983465456193  1.0000
  C   C23       1.0  0.05325196181954787  0.4412114469948421  0.8060043296848745  1.0000
  C   C24       1.0  0.9467462278477041  0.5587902790621797  0.19399542172500617  1.0000
  C   C25       1.0  0.20857181799248542  0.2403746005433547  0.12856377927484888  1.0000
  C   C26       1.0  0.7914300435260981  0.7596251223223192  0.8714360198769953  1.0000
  C   C27       1.0  0.3815269112462543  0.20541061723306342  0.25375868260073997  1.0000
  C   C28       1.0  0.618471274948426  0.7945911118256603  0.7462403435285481  1.0000
  C   C29       1.0  0.831238017914977  0.1273259066995323  0.050708459595313095  1.0000
  C   C30       1.0  0.16876344258128026  0.8726718270582482  0.9492903386938708  1.0000
  C   C31       1.0  0.09245863735922198  0.8411099310611406  0.3291253977502606  1.0000
  C   C32       1.0  0.9075418977769657  0.1588907912645681  0.6708745992662557  1.0000
  C   C33       1.0  0.1314371378272625  0.3428179483839743  0.9680856233659441  1.0000
  C   C34       1.0  0.8685623782223785  0.6571827782130129  0.03191393017926445  1.0000
  C   C35       1.0  0.12492230706565975  0.8936708147548345  0.4854934578154584  1.0000
  C   C36       1.0  0.8750789329161246  0.10633090449173475  0.5145061734471598  1.0000
  C   C37       1.0  0.91865320419641  0.0299816296460307  0.4325305966603139  1.0000
  C   C38       1.0  0.08134865732217363  0.9700180932196434  0.5674692024915373  1.0000
  C   C39       1.0  0.22200857586409475  0.1311673923002203  0.20625844570931662  1.0000
  C   C40       1.0  0.7779922735130639  0.8688323288333423  0.7937423605324055  1.0000
  C   C41       1.0  0.14337142225421212  0.5226241155793192  0.7659067889168156  1.0000
  C   C42       1.0  0.8566290295731845  0.4773736134446409  0.23409374174283926  1.0000
  C   C43       1.0  0.306784688716604  0.11484789425643528  0.2684239664328699  1.0000
  C   C44       1.0  0.6932158464195908  0.8851528280692664  0.7315760305836462  1.0000
  C   C45       1.0  0.05721993798421457  0.5959591028866529  0.6162769256713431  1.0000
  C   C46       1.0  0.9427832499167507  0.4040396205190007  0.3837226756158287  1.0000
  C   C47       1.0  0.6362454140848539  0.9930066685751909  0.08442085682251838  1.0000
  C   C48       1.0  0.3637540360188182  0.0069910497115586  0.9155828567687933  1.0000
  C   C49       1.0  0.7180022067151126  0.9599009027098192  0.15150259586206974  1.0000
  C   C50       1.0  0.282001298899388  0.040096816501986196  0.848498539930908  1.0000
  C   C51       1.0  0.14451696202890923  0.600373881704421  0.6703140674905794  1.0000
  C   C52       1.0  0.8554856078078283  0.3996268350804117  0.32968609118795195  1.0000
  N   N1        1.0  0.40575983346741407  0.5411882876504492  0.13571633412467315  1.0000
  N   N2        1.0  0.5942403909003814  0.45881343286569637  0.8642835789472301  1.0000
  N   N3        1.0  0.5142194290158527  0.5887082795788885  0.12200236139730676  1.0000
  N   N4        1.0  0.4857800905063527  0.4112924440163965  0.8779979174285018  1.0000
  N   N5        1.0  0.6227624531101269  0.48645988632079445  0.13482359526117446  1.0000
  N   N6        1.0  0.37723737718047085  0.5135398390840535  0.8651767675092472  1.0000
  N   N7        1.0  0.5879483095259559  0.3713907138219382  0.15862534346268117  1.0000
  N   N8        1.0  0.41205152076464197  0.6286090115829099  0.8413750193077405  1.0000
  N   N9        1.0  0.9491431711474901  0.2869534017970068  0.9387859257740059  1.0000
  N   N10       1.0  0.050855329288154345  0.7130473260695711  0.06121390958050195  1.0000
  N   N11       1.0  0.7529255488698893  0.15726175479443333  0.9854756773112427  1.0000
  N   N12       1.0  0.24707155229227593  0.842736970225332  0.014527065392847715  1.0000
  N   N13       1.0  0.9689584070919111  0.4376494340387609  0.753247780567193  1.0000
  N   N14       1.0  0.03104079818933057  0.5623522907486703  0.2467516890334096  1.0000
  O   O1        1.0  0.17946128171239203  0.7247232041659045  0.33402355073855716  1.0000
  O   O2        1.0  0.8205382378098063  0.27527751942938755  0.6659767280872515  1.0000
  O   O3        1.0  0.04616728933007154  0.8926419061061566  0.2509294066979492  1.0000
  O   O4        1.0  0.9538335531019584  0.10735782103080278  0.749069948982587  1.0000
