data_image0
_chemical_formula_structural       Zn16H32C96S16Br16N16O52
_chemical_formula_sum              "Zn16 H32 C96 S16 Br16 N16 O52"
_cell_length_a       19.72166109528127
_cell_length_b       19.830670115165628
_cell_length_c       33.53133375451307
_cell_angle_alpha    78.26483677095604
_cell_angle_beta     78.57904185395404
_cell_angle_gamma    63.59068282295465

_space_group_name_H-M_alt    "P 1"
_space_group_IT_number       1

loop_
  _space_group_symop_operation_xyz
  'x, y, z'

loop_
  _atom_site_type_symbol
  _atom_site_label
  _atom_site_symmetry_multiplicity
  _atom_site_fract_x
  _atom_site_fract_y
  _atom_site_fract_z
  _atom_site_occupancy
  Zn  Zn1       1.0  0.0553473780290545  0.40141534220504127  0.4783533764355211  1.0000
  Zn  Zn2       1.0  0.9859501247462107  0.4837017370406752  0.559657351878265  1.0000
  Zn  Zn3       1.0  0.05777799034137129  0.5622018245867223  0.48380091282142257  1.0000
  Zn  Zn4       1.0  0.9014784326948944  0.5525907787298219  0.4788056717394583  1.0000
  Zn  Zn5       1.0  0.6941837097386029  0.34849775617343676  0.2718275489190844  1.0000
  Zn  Zn6       1.0  0.6912090510197402  0.18898573200719662  0.26626499498697603  1.0000
  Zn  Zn7       1.0  0.7680722549193603  0.26391905074326877  0.18997665224544852  1.0000
  Zn  Zn8       1.0  0.8468396509422362  0.19835835162077578  0.27235726738658883  1.0000
  Zn  Zn9       1.0  0.2647963402172095  0.765382731313636  0.6905321535984613  1.0000
  Zn  Zn10      1.0  0.34905048525076404  0.6981362507177165  0.7708827254624354  1.0000
  Zn  Zn11      1.0  0.19421093738215237  0.848187681245491  0.7721494191242755  1.0000
  Zn  Zn12      1.0  0.1915430934267377  0.6884792665645421  0.7664634032438472  1.0000
  Zn  Zn13      1.0  0.5579602897819598  0.06194089785620345  0.9839721458213831  1.0000
  Zn  Zn14      1.0  0.4038728513295454  0.052071489560589164  0.9770742171443703  1.0000
  Zn  Zn15      1.0  0.5554625460945317  0.9011516235626186  0.9785108227626083  1.0000
  Zn  Zn16      1.0  0.4829119599769955  0.9849285492440314  0.05999971586583538  1.0000
  H   H1        1.0  0.797481372362441  0.5338746424943182  0.4219786085037853  1.0000
  H   H2        1.0  0.7237970708138732  0.5282373414239956  0.4048622304921423  1.0000
  H   H3        1.0  0.9455054737826672  0.21153391309388053  0.3341230011220233  1.0000
  H   H4        1.0  0.9948760383370185  0.19387795787946518  0.37468832178233663  1.0000
  H   H5        1.0  0.7146111058933684  0.45411068122965753  0.32812649936143157  1.0000
  H   H6        1.0  0.721552417565718  0.5271269409541187  0.34463464396200993  1.0000
  H   H7        1.0  0.04052671703585991  0.30329403990295833  0.4157944434393528  1.0000
  H   H8        1.0  0.05629369813568989  0.25266400614775353  0.37630805915969034  1.0000
  H   H9        1.0  0.1463078061271403  0.635759196765278  0.5216859168845859  1.0000
  H   H10       1.0  0.2154398277067102  0.6563340806686  0.5334161500426903  1.0000
  H   H11       1.0  0.11466548011193109  0.6030187328553326  0.728513209075146  1.0000
  H   H12       1.0  0.0918334074709435  0.5356071063233045  0.7168815522543356  1.0000
  H   H13       1.0  0.22271656586001143  0.7334611929923369  0.6097539366092802  1.0000
  H   H14       1.0  0.18786086540259825  0.7453313844483628  0.5644863354224158  1.0000
  H   H15       1.0  0.0158994256779437  0.5277088209257597  0.640330791015039  1.0000
  H   H16       1.0  0.0025961132595285004  0.5637518447087116  0.6851488118697517  1.0000
  H   H17       1.0  0.7227386374304245  0.23322171954607274  0.1094667072570701  1.0000
  H   H18       1.0  0.6874523649442851  0.24530744680470198  0.06433983974909549  1.0000
  H   H19       1.0  0.5155856240223144  0.02798941697609789  0.1408163259259894  1.0000
  H   H20       1.0  0.5039844175404511  0.06248074874768149  0.1859375990815764  1.0000
  H   H21       1.0  0.6460976444499592  0.13501832020219953  0.021798024501258312  1.0000
  H   H22       1.0  0.7147599454746256  0.15644372002283558  0.033401651090962034  1.0000
  H   H23       1.0  0.6158835105568059  0.10256109711742306  0.22856257876337338  1.0000
  H   H24       1.0  0.5936818138187192  0.03468159698594055  0.21703660764387686  1.0000
  H   H25       1.0  0.21519734703132806  0.9532973114758572  0.8281690299060357  1.0000
  H   H26       1.0  0.22184308149127932  0.026027545078811352  0.8452283927542723  1.0000
  H   H27       1.0  0.5411457905144915  0.8018755887020176  0.915914065476983  1.0000
  H   H28       1.0  0.5573770304630513  0.751727971825346  0.8761412733199877  1.0000
  H   H29       1.0  0.2985701125176732  0.03310352850542127  0.9216936000508229  1.0000
  H   H30       1.0  0.2246512048313107  0.026235879553617295  0.9056274978767364  1.0000
  H   H31       1.0  0.4459514929595372  0.710301063073771  0.83413853964651  1.0000
  H   H32       1.0  0.4958110066999311  0.6928518591680017  0.8745004850056689  1.0000
  C   C1        1.0  0.0612594716039609  0.3168426812753892  0.5619130974549192  1.0000
  C   C2        1.0  0.07041854981748231  0.570179184864152  0.569613702995916  1.0000
  C   C3        1.0  0.18308284210513656  0.44137312957663244  0.43914736101702806  1.0000
  C   C4        1.0  0.935895454399237  0.6835601398901329  0.43882962435348827  1.0000
  C   C5        1.0  0.9305558185489959  0.42967407975878275  0.43035907183570987  1.0000
  C   C6        1.0  0.8179550871671708  0.5603696310553871  0.5621485473166389  1.0000
  C   C7        1.0  0.5664354422238844  0.30911491905962407  0.3113340841416417  1.0000
  C   C8        1.0  0.6812715984944048  0.17863984306639225  0.18037055729182333  1.0000
  C   C9        1.0  0.6895857818509441  0.4315997531367799  0.18778816299791154  1.0000
  C   C10       1.0  0.9347671335068172  0.18772779408694615  0.18965203867760744  1.0000
  C   C11       1.0  0.8185765281155568  0.32204930453749353  0.3195784575143534  1.0000
  C   C12       1.0  0.8127069414035476  0.06737035890293434  0.31168371582009513  1.0000
  C   C13       1.0  0.43260096071365683  0.6908528184378042  0.6876510622300032  1.0000
  C   C14       1.0  0.31951070731116715  0.8213151012280875  0.8192324054347536  1.0000
  C   C15       1.0  0.18708769044167892  0.9322807044244145  0.6883650832686358  1.0000
  C   C16       1.0  0.0664575176859472  0.8087362716469145  0.811404808042731  1.0000
  C   C17       1.0  0.1806427362479539  0.6785377789123641  0.680630049812919  1.0000
  C   C18       1.0  0.3149701930627131  0.5669971635982947  0.8108980738896463  1.0000
  C   C19       1.0  0.43690470683688437  0.18386810209968016  0.9386547238873247  1.0000
  C   C20       1.0  0.4321785894283324  0.9289852497307506  0.9295474052088367  1.0000
  C   C21       1.0  0.6830993283529665  0.9412666493323836  0.9391944985209977  1.0000
  C   C22       1.0  0.5602910872314341  0.8174625177390523  0.06230145089560321  1.0000
  C   C23       1.0  0.5687882196360334  0.0707895929462055  0.06998293410534732  1.0000
  C   C24       1.0  0.3159285990503378  0.060874632383025956  0.05970068204535289  1.0000
  C   C25       1.0  0.9022539878146675  0.40245414803576535  0.4022906843741936  1.0000
  C   C26       1.0  0.8468750075854031  0.34927963146247976  0.3476347077440066  1.0000
  C   C27       1.0  0.8288325548206147  0.447538102562163  0.3887988356502276  1.0000
  C   C28       1.0  0.9194143890869456  0.3032787004228224  0.36198972287779435  1.0000
  C   C29       1.0  0.8023993576248217  0.4221296260842138  0.36108369953176117  1.0000
  C   C30       1.0  0.9474931317223607  0.3303222374081756  0.38807238934659694  1.0000
  C   C31       1.0  0.0979827835743734  0.5979767167213762  0.5976958155183851  1.0000
  C   C32       1.0  0.15237537692809158  0.6514942768651862  0.6525244367043754  1.0000
  C   C33       1.0  0.1421607535925347  0.6405539310428026  0.5820550782440249  1.0000
  C   C34       1.0  0.10930983512873378  0.6077710018336475  0.6681424607704615  1.0000
  C   C35       1.0  0.1674945803594099  0.668450720223106  0.6090576661531202  1.0000
  C   C36       1.0  0.0810257574818891  0.5828425198449235  0.6411298403654158  1.0000
  C   C37       1.0  0.30507505059885187  0.45497943814340397  0.40052101880499436  1.0000
  C   C38       1.0  0.44420952875064046  0.29579363774904266  0.3497391330289048  1.0000
  C   C39       1.0  0.2579460903076837  0.4174671040410586  0.41407966032895166  1.0000
  C   C40       1.0  0.4913134400339984  0.33333573937629507  0.3361682780031217  1.0000
  C   C41       1.0  0.37626406528937645  0.34015902483086086  0.373112790252172  1.0000
  C   C42       1.0  0.3728935797500483  0.41081229698317395  0.37699409824188734  1.0000
  C   C43       1.0  0.7257108789964093  0.5761968779141143  0.6300212030460061  1.0000
  C   C44       1.0  0.5247238623015349  0.6742097595777422  0.6197512177113466  1.0000
  C   C45       1.0  0.7435012265145674  0.5846029332057082  0.587580135793793  1.0000
  C   C46       1.0  0.5070060448110779  0.6657119688442351  0.6622014562004495  1.0000
  C   C47       1.0  0.6044200894491213  0.641172886508862  0.6079906105493506  1.0000
  C   C48       1.0  0.6459950060313207  0.608397079426744  0.6417948812828768  1.0000
  C   C49       1.0  0.07632809685817683  0.2245343465663439  0.6299046133154532  1.0000
  C   C50       1.0  0.1730025363558738  0.02447954115378079  0.6203365669909714  1.0000
  C   C51       1.0  0.08564668685689719  0.2424240134021288  0.5874432898476201  1.0000
  C   C52       1.0  0.1637028157586045  0.006589879177397474  0.6627880355187444  1.0000
  C   C53       1.0  0.14152102079202683  0.10388560848105749  0.6082994703226206  1.0000
  C   C54       1.0  0.1084954761468282  0.14512674805256856  0.6419022452342488  1.0000
  C   C55       1.0  0.8424238378792595  0.8018178290634235  0.3966342374610647  1.0000
  C   C56       1.0  0.9070953748499375  0.9481936271114365  0.3528824438320939  1.0000
  C   C57       1.0  0.9103765957913907  0.7581338354769824  0.4134835722204073  1.0000
  C   C58       1.0  0.8389965376846434  0.9919857894473266  0.33617044171402455  1.0000
  C   C59       1.0  0.9086845724482941  0.8786351961323575  0.3747180977533945  1.0000
  C   C60       1.0  0.841408931459938  0.8708552114331025  0.3743268813002345  1.0000
  C   C61       1.0  0.6527923458088337  0.15135521462369178  0.15244048437760682  1.0000
  C   C62       1.0  0.5974238474381863  0.0979272224293553  0.09792596247041982  1.0000
  C   C63       1.0  0.6674890518468856  0.16819692711600712  0.10895020371816598  1.0000
  C   C64       1.0  0.5811438260017923  0.08267213474960043  0.14140689660384  1.0000
  C   C65       1.0  0.6418689378810143  0.14023660758797246  0.0820994041918297  1.0000
  C   C66       1.0  0.6099255990007607  0.1074622264636672  0.16825631918909784  1.0000
  C   C67       1.0  0.6738401786095807  0.5246069669200322  0.11987072691745482  1.0000
  C   C68       1.0  0.5761666217055392  0.7243907767888801  0.13016013344890348  1.0000
  C   C69       1.0  0.6652502962655973  0.506120725634872  0.16229849650912337  1.0000
  C   C70       1.0  0.5849557306765333  0.7428827964087644  0.0877372774196772  1.0000
  C   C71       1.0  0.6087100811990356  0.6448765497949507  0.14188281867684086  1.0000
  C   C72       1.0  0.6415858143021254  0.6041042237303811  0.10810317729004033  1.0000
  C   C73       1.0  0.08266668075842183  0.12314023111522222  0.17747042718781364  1.0000
  C   C74       1.0  0.16803347133274119  0.12607967999203137  0.07184081184688301  1.0000
  C   C75       1.0  0.0101705203784874  0.16245357724380224  0.16512284999473079  1.0000
  C   C76       1.0  0.2405199609163517  0.08692333218748867  0.08419585474756269  1.0000
  C   C77       1.0  0.11043183930778612  0.13969155325089833  0.10580420664059183  1.0000
  C   C78       1.0  0.14021251966344286  0.11024173845021318  0.1435067661053608  1.0000
  C   C79       1.0  0.34769702347380615  0.848290352494622  0.8474588521726149  1.0000
  C   C80       1.0  0.4033788124995894  0.9014022281050484  0.9019411827402094  1.0000
  C   C81       1.0  0.3031464035458741  0.9210296548354785  0.8610688939616081  1.0000
  C   C82       1.0  0.4483825078926529  0.8291624143106445  0.887871953064483  1.0000
  C   C83       1.0  0.3297431191670341  0.946438655275493  0.888700456827408  1.0000
  C   C84       1.0  0.42020309281333823  0.8021819779990268  0.8618213836049547  1.0000
  C   C85       1.0  0.40857758962446417  0.4484007285164893  0.8529123865098143  1.0000
  C   C86       1.0  0.34321653625902115  0.3026126202948305  0.8969243318898422  1.0000
  C   C87       1.0  0.34078714023014806  0.49209587696842055  0.8359136889005897  1.0000
  C   C88       1.0  0.4112277787475307  0.2587883556708661  0.9137081726183566  1.0000
  C   C89       1.0  0.34233740095942283  0.3716010608840036  0.8746044237283994  1.0000
  C   C90       1.0  0.4096904392158721  0.3792005198406159  0.8750011958804651  1.0000
  C   C91       1.0  0.9441565281174392  0.7955024517446813  0.8497913459530507  1.0000
  C   C92       1.0  0.8050496246991018  0.95484975902842  0.9004794082867134  1.0000
  C   C93       1.0  0.9912768150203914  0.8330123493140603  0.8361796632153186  1.0000
  C   C94       1.0  0.7579339282041248  0.9173250621902438  0.9140925534304715  1.0000
  C   C95       1.0  0.8728387108047003  0.9106322926653688  0.8769519158299841  1.0000
  C   C96       1.0  0.8761951551896273  0.839944591936792  0.8731306473708572  1.0000
  S   S1        1.0  0.29670368164799754  0.32795989448470647  0.397936672623743  1.0000
  S   S2        1.0  0.4522989813873651  0.42313508433694097  0.3519942164681495  1.0000
  S   S3        1.0  0.6625446747762567  0.6318673750453526  0.5620209354866504  1.0000
  S   S4        1.0  0.5878738755647605  0.6173374326305705  0.6877628500825992  1.0000
  S   S5        1.0  0.13380046780968508  0.16198953112456846  0.5622108292353117  1.0000
  S   S6        1.0  0.1165230850413508  0.08707845420462947  0.6880199140411635  1.0000
  S   S7        1.0  0.9731708983608839  0.8015415123191614  0.4019855714028679  1.0000
  S   S8        1.0  0.7769306286103301  0.9478124394709937  0.3470363788936553  1.0000
  S   S9        1.0  0.6176052844822449  0.5862504617654523  0.1878240861629834  1.0000
  S   S10       1.0  0.633129800452437  0.6628021951586048  0.0621800607713894  1.0000
  S   S11       1.0  0.012459718208987204  0.18353578429520212  0.11187107677276491  1.0000
  S   S12       1.0  0.23821710328348905  0.06687666056878062  0.13746138863103136  1.0000
  S   S13       1.0  0.27823934594456295  0.44843587175036226  0.8470227008493367  1.0000
  S   S14       1.0  0.4740700048534451  0.30210303161423  0.9023054372430009  1.0000
  S   S15       1.0  0.95227982902842  0.9228737246493707  0.8519328104683409  1.0000
  S   S16       1.0  0.7966473241254094  0.8277920867241162  0.8980033310448972  1.0000
  Br  Br1       1.0  0.28628178495339546  0.5522445947914318  0.4100908638757872  1.0000
  Br  Br2       1.0  0.4625224352496958  0.1989842017179057  0.33975360921589737  1.0000
  Br  Br3       1.0  0.7941805536439263  0.5283274354833907  0.6694377203705671  1.0000
  Br  Br4       1.0  0.45622028865291503  0.7222129758298834  0.580390141027621  1.0000
  Br  Br5       1.0  0.02846843073344731  0.292344920201458  0.6690824327267535  1.0000
  Br  Br6       1.0  0.22114709005389702  0.956498054846321  0.5811940107480567  1.0000
  Br  Br7       1.0  0.7592023652722304  0.7776156841363713  0.40097758478668766  1.0000
  Br  Br8       1.0  0.9903802544515514  0.972502546495761  0.34833086306279165  1.0000
  Br  Br9       1.0  0.7218895527323498  0.4570982415177479  0.08049089286969752  1.0000
  Br  Br10      1.0  0.5286651227923044  0.7917495850444426  0.16958335555253257  1.0000
  Br  Br11      1.0  0.1073798174111147  0.08892520887146556  0.23141319716839356  1.0000
  Br  Br12      1.0  0.1433847244328277  0.16019865515733758  0.017859395099271997  1.0000
  Br  Br13      1.0  0.4919008422722869  0.47252528913444536  0.84861689887434  1.0000
  Br  Br14      1.0  0.25979615919711563  0.278624256632007  0.9014180253206521  1.0000
  Br  Br15      1.0  0.9625546772861712  0.6985913255524709  0.8399366911086475  1.0000
  Br  Br16      1.0  0.7862453510600531  0.05212960773975076  0.9100044745129952  1.0000
  N   N1        1.0  0.7797347563640642  0.5188580840967204  0.40009030733506284  1.0000
  N   N2        1.0  0.9682937388909847  0.23156318981615717  0.35104112290340345  1.0000
  N   N3        1.0  0.7306460045690528  0.4715237681919503  0.3497222830594424  1.0000
  N   N4        1.0  0.019199804520518206  0.2808824997610272  0.3994244423441629  1.0000
  N   N5        1.0  0.16145536019109838  0.659694009940452  0.5404608914455123  1.0000
  N   N6        1.0  0.08984171041578291  0.5888311153300733  0.7097103335257628  1.0000
  N   N7        1.0  0.209001731432096  0.7100292872753113  0.5900587309233954  1.0000
  N   N8        1.0  0.038835604337400305  0.5418965310688293  0.6601290098907313  1.0000
  N   N9        1.0  0.7088724635307956  0.2098323891450063  0.0898106651223287  1.0000
  N   N10       1.0  0.5393493200015412  0.04143074055528476  0.1605317740934709  1.0000
  N   N11       1.0  0.6609702589010666  0.15932708362957013  0.04048700578616862  1.0000
  N   N12       1.0  0.5910584416065632  0.08814513425301838  0.20986950109443828  1.0000
  N   N13       1.0  0.2312596118900032  0.9703528493158581  0.849901255746893  1.0000
  N   N14       1.0  0.5200463895605907  0.7796789580530898  0.8992781895449511  1.0000
  N   N15       1.0  0.2803970306900112  0.01760945494895337  0.9002041600311657  1.0000
  N   N16       1.0  0.4688481098679631  0.7304222188107942  0.8509292198849677  1.0000
  O   O1        1.0  0.0006527580016424012  0.4994585223034422  0.4996442315519757  1.0000
  O   O2        1.0  0.0804172341967657  0.3156637143173384  0.5231378886569261  1.0000
  O   O3        1.0  0.03802792675287489  0.524969074732212  0.584750742419139  1.0000
  O   O4        1.0  0.15607081105728332  0.50515720144908  0.4525061276530807  1.0000
  O   O5        1.0  0.023520042613270703  0.3752522732778018  0.5803684049658814  1.0000
  O   O6        1.0  0.15212729538513511  0.3947605286802158  0.44523501954418526  1.0000
  O   O7        1.0  0.0792498968547903  0.5914817350224695  0.530646627074148  1.0000
  O   O8        1.0  0.0034555484348218  0.6568810351011861  0.44878675745786717  1.0000
  O   O9        1.0  0.8897390403354919  0.4967225930183543  0.4408837951747558  1.0000
  O   O10       1.0  0.8895840182671578  0.6525163087574058  0.4486572161004077  1.0000
  O   O11       1.0  0.9952905898390156  0.3860338227570493  0.4437901386051238  1.0000
  O   O12       1.0  0.8771853658443053  0.5314080844046241  0.5805981995491507  1.0000
  O   O13       1.0  0.8159149726736034  0.5712381831385757  0.5233030549612961  1.0000
  O   O14       1.0  0.7491525342758578  0.25087552921807077  0.25004843816454786  1.0000
  O   O15       1.0  0.5946260082943197  0.3582141749292305  0.3023014728521289  1.0000
  O   O16       1.0  0.6620237155799558  0.16756622176086478  0.21941633200395932  1.0000
  O   O17       1.0  0.7215366466117603  0.3729024945569604  0.16932954942308948  1.0000
  O   O18       1.0  0.5965679448607732  0.24242566494148568  0.301201876632831  1.0000
  O   O19       1.0  0.6758100985007401  0.43329395527195647  0.22668129848639748  1.0000
  O   O20       1.0  0.7248723552650347  0.2129228836211963  0.16516371588502918  1.0000
  O   O21       1.0  0.8775484397962076  0.22466578504716506  0.16926332274043424  1.0000
  O   O22       1.0  0.8632102612340378  0.2589176617756264  0.3053534554503159  1.0000
  O   O23       1.0  0.9327623266540925  0.17089755045721944  0.22845383596029484  1.0000
  O   O24       1.0  0.7502560896972169  0.3615959135578492  0.3098323951431752  1.0000
  O   O25       1.0  0.7488927537283417  0.0905079473554195  0.29775509054066157  1.0000
  O   O26       1.0  0.8546352415332662  0.10284427455597726  0.3066589840548488  1.0000
  O   O27       1.0  0.24940876723903224  0.750485637047248  0.7505286348509799  1.0000
  O   O28       1.0  0.3734373813679426  0.7282165680085768  0.6692603728543604  1.0000
  O   O29       1.0  0.3641667105979494  0.7584284800140112  0.8047621528387268  1.0000
  O   O30       1.0  0.17486047029868956  0.9337138161792283  0.7272529500506764  1.0000
  O   O31       1.0  0.4346127360948699  0.6725028984185569  0.7264710719790132  1.0000
  O   O32       1.0  0.21680894513745133  0.8737511363674172  0.6698278048908294  1.0000
  O   O33       1.0  0.25114322098371394  0.8610657167823846  0.8095910714379072  1.0000
  O   O34       1.0  0.09468798120699519  0.8578048907189525  0.802520052961171  1.0000
  O   O35       1.0  0.16171741828042496  0.6671368365589174  0.7196981514128781  1.0000
  O   O36       1.0  0.09656616313137079  0.7421261016247767  0.8011640036770942  1.0000
  O   O37       1.0  0.22397555467168934  0.7130638260532505  0.6654383462328824  1.0000
  O   O38       1.0  0.35804664508741985  0.6014779554643679  0.8045414851096312  1.0000
  O   O39       1.0  0.2502787489516649  0.5905462036388799  0.7978427874266883  1.0000
  O   O40       1.0  0.5009851854245184  0.9991246521068644  0.9999300938825256  1.0000
  O   O41       1.0  0.5042333979563337  0.15703050828283693  0.9489404113691079  1.0000
  O   O42       1.0  0.3926936642869662  0.9971927844224735  0.9386223945328354  1.0000
  O   O43       1.0  0.6521331971749477  0.8946467592861964  0.9453265118883892  1.0000
  O   O44       1.0  0.39084014106050086  0.15251449958198998  0.947789604088115  1.0000
  O   O45       1.0  0.6561126570727894  0.005073680061187083  0.9525142407886235  1.0000
  O   O46       1.0  0.4958841319406346  0.8848046568527863  0.9439385670571737  1.0000
  O   O47       1.0  0.5795592725391644  0.8160890679784387  0.023537158703760504  1.0000
  O   O48       1.0  0.5337724315417702  0.027883757668234886  0.08516442942078581  1.0000
  O   O49       1.0  0.5224108185143166  0.8759730218067785  0.08067153384710932  1.0000
  O   O50       1.0  0.579314558864084  0.09065383065787805  0.0309572183593474  1.0000
  O   O51       1.0  0.31781994085405785  0.06937824765056176  0.020889959917127505  1.0000
  O   O52       1.0  0.3732147529000187  0.031375130298108914  0.08015236366544799  1.0000
