data_image0
_chemical_formula_structural       Ag4H36C32S4N8
_chemical_formula_sum              "Ag4 H36 C32 S4 N8"
_cell_length_a       8.038708204000363
_cell_length_b       8.405189956705415
_cell_length_c       13.261370742074028
_cell_angle_alpha    99.96617310952026
_cell_angle_beta     89.99996561729768
_cell_angle_gamma    90.00001064845566

_space_group_name_H-M_alt    "P 1"
_space_group_IT_number       1

loop_
  _space_group_symop_operation_xyz
  'x, y, z'

loop_
  _atom_site_type_symbol
  _atom_site_label
  _atom_site_symmetry_multiplicity
  _atom_site_fract_x
  _atom_site_fract_y
  _atom_site_fract_z
  _atom_site_occupancy
  Ag  Ag1       1.0  0.9428700604605921  0.8277383985776227  0.862045913161651  1.0000
  Ag  Ag2       1.0  0.44286936580426334  0.1722618159651432  0.6379487360144152  1.0000
  Ag  Ag3       1.0  0.05712853235095851  0.1722629019178257  0.13794870288732133  1.0000
  Ag  Ag4       1.0  0.5571329589433988  0.8277448655892101  0.3620607211380359  1.0000
  H   H1        1.0  0.597517254457472  0.7959274606565715  0.9638420093823609  1.0000
  H   H2        1.0  0.0975154240179492  0.2040716426974427  0.5361556765275635  1.0000
  H   H3        1.0  0.4024863142766081  0.20407637099222597  0.03615586354483469  1.0000
  H   H4        1.0  0.9024881447132814  0.7959227018432884  0.4638458235750134  1.0000
  H   H5        1.0  0.5881177984883834  0.7726909893105756  0.8294743220471046  1.0000
  H   H6        1.0  0.08811335166172542  0.22730929215738627  0.6705227245557736  1.0000
  H   H7        1.0  0.41188825820762537  0.22731284233828566  0.17052355087965043  1.0000
  H   H8        1.0  0.9118889730886084  0.7726862600049387  0.3294788899236919  1.0000
  H   H9        1.0  0.43404573629022986  0.6802776668590482  0.8966655385307188  1.0000
  H   H10       1.0  0.934046575985292  0.3197225761635849  0.6033298708189745  1.0000
  H   H11       1.0  0.5659565884640045  0.319726077857247  0.10333006330235855  1.0000
  H   H12       1.0  0.06595699274697611  0.6802704738230575  0.3966692438126031  1.0000
  H   H13       1.0  0.4692652992178026  0.39558033589024433  0.8861589698661161  1.0000
  H   H14       1.0  0.9692649473139597  0.604418904339454  0.613841611785119  1.0000
  H   H15       1.0  0.530733293592114  0.6044247323575292  0.11383977447007956  1.0000
  H   H16       1.0  0.030734889474374003  0.3955754402011777  0.3861598883181258  1.0000
  H   H17       1.0  0.6547602616230322  0.1528163675981133  0.863275565955959  1.0000
  H   H18       1.0  0.154760961109524  0.8471804686285367  0.6367256559724621  1.0000
  H   H19       1.0  0.3452358432247209  0.8471850777847154  0.13672283525069417  1.0000
  H   H20       1.0  0.845235143735529  0.15281390488947721  0.3632766011628944  1.0000
  H   H21       1.0  0.9628309126496221  0.19303612954478672  0.8547288437416964  1.0000
  H   H22       1.0  0.46283159476687535  0.8069654676103327  0.6452704548911539  1.0000
  H   H23       1.0  0.0371639482171631  0.8069653158380062  0.14526955746517695  1.0000
  H   H24       1.0  0.5371657540603464  0.1930360936824869  0.3547309744410682  1.0000
  H   H25       1.0  0.15559057755518066  0.5625884612286143  0.8127053901756509  1.0000
  H   H26       1.0  0.65559260374868  0.437411997909777  0.6872961745868336  1.0000
  H   H27       1.0  0.8444105032148671  0.4374118924426825  0.18729592477923515  1.0000
  H   H28       1.0  0.34440972100233574  0.5625883557615623  0.31270514036783226  1.0000
  H   H29       1.0  0.1667552400225958  0.543929999905572  0.942787555552307  1.0000
  H   H30       1.0  0.6667561556471427  0.45607163850657884  0.5572133625797162  1.0000
  H   H31       1.0  0.8332445967664909  0.45607035376568933  0.057213759402806395  1.0000
  H   H32       1.0  0.33324492512335974  0.5439298938088585  0.4427873097203871  1.0000
  H   H33       1.0  0.19404945497124967  0.3690569642738524  0.8464817040030039  1.0000
  H   H34       1.0  0.6940478255029207  0.6309446756775543  0.6535192044096474  1.0000
  H   H35       1.0  0.805952869779766  0.6309433893974871  0.15351961095166183  1.0000
  H   H36       1.0  0.3059520112862372  0.36905688561532923  0.3464822249221199  1.0000
  C   C1        1.0  0.27528386526957155  0.038045350652886605  0.8429473999709243  1.0000
  C   C2        1.0  0.7752847933016583  0.9619499949744822  0.6570460943463343  1.0000
  C   C3        1.0  0.7247085076310996  0.9619552058605906  0.15705921420563837  1.0000
  C   C4        1.0  0.2247113115485533  0.038048832322665795  0.3429467788868619  1.0000
  C   C5        1.0  0.672863950909104  0.5619811483096343  0.8851385212200709  1.0000
  C   C6        1.0  0.17286209387048504  0.4380191958928634  0.6148600092660529  1.0000
  C   C7        1.0  0.32713712986266336  0.43802271231658824  0.11486010873901616  1.0000
  C   C8        1.0  0.8271377429184454  0.5619787425351461  0.3851410769357314  1.0000
  C   C9        1.0  0.6035667320519025  0.40843755248836544  0.8815211532152599  1.0000
  C   C10       1.0  0.1035673932633472  0.5915628457609897  0.6184789160109287  1.0000
  C   C11       1.0  0.39643186075801407  0.5915675157594081  0.11847759112093567  1.0000
  C   C12       1.0  0.8964324435255052  0.40843388504539757  0.38152205581419435  1.0000
  C   C13       1.0  0.7070211564961966  0.27361773845029097  0.8689790756568808  1.0000
  C   C14       1.0  0.20701934703190264  0.726381458011943  0.6310208423516455  1.0000
  C   C15       1.0  0.29297868029453167  0.7263849145542596  0.13101943992576537  1.0000
  C   C16       1.0  0.7929780017950138  0.2736152727943804  0.36898012947391823  1.0000
  C   C17       1.0  0.8782302621602653  0.29574472177760913  0.8633033247965043  1.0000
  C   C18       1.0  0.37822719819079964  0.7042568995836193  0.636696760995825  1.0000
  C   C19       1.0  0.1217708186110542  0.7042579602044726  0.13669594781736544  1.0000
  C   C20       1.0  0.6217701506366495  0.29574221748845997  0.3633036825516171  1.0000
  C   C21       1.0  0.941788996117687  0.451939855490295  0.8689217728371472  1.0000
  C   C22       1.0  0.44178714724366597  0.5480605908113888  0.6310789329756756  1.0000
  C   C23       1.0  0.05821208465318511  0.5480616478476534  0.13107814243151233  1.0000
  C   C24       1.0  0.5582126895453428  0.4519385552382502  0.3689222676027696  1.0000
  C   C25       1.0  0.5664078034703338  0.7095117731256408  0.8943104739840703  1.0000
  C   C26       1.0  0.06640592299135761  0.29048729949637675  0.6056864659728943  1.0000
  C   C27       1.0  0.4335945212831476  0.2904920295456251  0.10568664191190888  1.0000
  C   C28       1.0  0.9335964017593527  0.7095082236884523  0.39431439147512737  1.0000
  C   C29       1.0  0.125050808931519  0.4824147870806854  0.8671407448681591  1.0000
  C   C30       1.0  0.6250529069238056  0.5175856413578472  0.6328600737384703  1.0000
  C   C31       1.0  0.8749477838765998  0.5175855665905473  0.13286057008717475  1.0000
  C   C32       1.0  0.3749481738466899  0.48241589095759  0.3671405985616331  1.0000
  S   S1        1.0  0.19820561503203754  0.9603372666339922  0.9382183377693136  1.0000
  S   S2        1.0  0.6982064342238347  0.039661755466205796  0.5617770411893941  1.0000
  S   S3        1.0  0.8017867578713265  0.039664294658685206  0.06178309156378957  1.0000
  S   S4        1.0  0.30178469470013175  0.96034089753811  0.4382214743948011  1.0000
  N   N1        1.0  0.8327753336487904  0.9051110666831476  0.7249417107955549  1.0000
  N   N2        1.0  0.33277199768100013  0.0948807462540699  0.7750536910133757  1.0000
  N   N3        1.0  0.1672307230465293  0.09488189637109201  0.27505513274124377  1.0000
  N   N4        1.0  0.6672278391075678  0.905123288237043  0.22494948113461521  1.0000
  N   N5        1.0  0.8394690834269126  0.5817353080456656  0.8781103765847643  1.0000
  N   N6        1.0  0.33946845902388395  0.41826386690885203  0.6218887372257098  1.0000
  N   N7        1.0  0.16053199734463422  0.4182649297156758  0.12188791024433947  1.0000
  N   N8        1.0  0.6605326217457872  0.5817365157399408  0.3781133347606269  1.0000
