data_image0
_chemical_formula_structural       Zn8H36C66N4O28
_chemical_formula_sum              "Zn8 H36 C66 N4 O28"
_cell_length_a       18.045006843206497
_cell_length_b       18.291576526647372
_cell_length_c       18.2716550482463
_cell_angle_alpha    89.99035291748396
_cell_angle_beta     119.65807423927866
_cell_angle_gamma    119.76498209489377

_space_group_name_H-M_alt    "P 1"
_space_group_IT_number       1

loop_
  _space_group_symop_operation_xyz
  'x, y, z'

loop_
  _atom_site_type_symbol
  _atom_site_label
  _atom_site_symmetry_multiplicity
  _atom_site_fract_x
  _atom_site_fract_y
  _atom_site_fract_z
  _atom_site_occupancy
  Zn  Zn1       1.0  0.5846450578174115  0.3818821994943137  0.7911437055032952  1.0000
  Zn  Zn2       1.0  0.4153536701040608  0.6181161070748047  0.20885505706433363  1.0000
  Zn  Zn3       1.0  0.5875904002348236  0.20586116154126444  0.7921050387251612  1.0000
  Zn  Zn4       1.0  0.41240878197431396  0.7941378170404079  0.20789285362219817  1.0000
  Zn  Zn5       1.0  0.413629850024762  0.2057233876434168  0.6184925622310689  1.0000
  Zn  Zn6       1.0  0.5863680343379016  0.794275578144024  0.3815068790359677  1.0000
  Zn  Zn7       1.0  0.4141629529435633  0.20582195425038213  0.796671139851995  1.0000
  Zn  Zn8       1.0  0.5858368453734073  0.7941770127975332  0.20332924569503077  1.0000
  H   H1        1.0  0.3279245492124757  0.4723922352356952  0.9245046242679822  1.0000
  H   H2        1.0  0.3261042332722186  0.9226627522676197  0.46955692848612085  1.0000
  H   H3        1.0  0.625715357454382  0.026868765258470293  0.6566139637111236  1.0000
  H   H4        1.0  0.3742880686663954  0.9731308669373535  0.3433887592453717  1.0000
  H   H5        1.0  0.4529702830643601  0.8567420113517842  0.5258607171849549  1.0000
  H   H6        1.0  0.547032056253215  0.1432569513998061  0.4741420166218901  1.0000
  H   H7        1.0  0.9360107724078475  0.34351689742614167  0.9860042121182607  1.0000
  H   H8        1.0  0.0639895780286964  0.6564847628086313  0.013990973807871449  1.0000
  H   H9        1.0  0.06843190038991055  0.4556395605883026  0.935531339034448  1.0000
  H   H10       1.0  0.9315673687126705  0.5443614331907156  0.06446331313211602  1.0000
  H   H11       1.0  0.3720268139966406  0.3439539172300314  0.972972519147355  1.0000
  H   H12       1.0  0.6720768066030587  0.5276080822344511  0.07549324637867029  1.0000
  H   H13       1.0  0.6279728170309228  0.6560457303757163  0.02702504758965333  1.0000
  H   H14       1.0  0.5467889836438076  0.4732994461948365  0.1429278334888623  1.0000
  H   H15       1.0  0.453211545020615  0.5267015394590687  0.857069082027451  1.0000
  H   H16       1.0  0.44568643798811536  0.5239238174386217  0.5918684022159513  1.0000
  H   H17       1.0  0.5543118897237349  0.47607581438440866  0.40813125805065925  1.0000
  H   H18       1.0  0.6199018622587005  0.6572623451777487  0.5957487528726662  1.0000
  H   H19       1.0  0.38009645998391767  0.34273728365680983  0.4042514520038625  1.0000
  H   H20       1.0  0.9363176047082005  0.8582153189204859  0.5297213845364014  1.0000
  H   H21       1.0  0.06367941421870432  0.14178429413135527  0.4702809138697291  1.0000
  H   H22       1.0  0.055843737058104595  0.028830403679954503  0.6558243511458529  1.0000
  H   H23       1.0  0.6700003341789511  0.07295324187654732  0.142496558799941  1.0000
  H   H24       1.0  0.9441545633075775  0.9711692132006818  0.34417803217034765  1.0000
  H   H25       1.0  0.24483059095602047  0.4104702902865542  0.45800469913867675  1.0000
  H   H26       1.0  0.216404961432744  0.33363515405712724  0.3713639296742316  1.0000
  H   H27       1.0  0.1576656728561403  0.39441665247800733  0.3432916337388435  1.0000
  H   H28       1.0  0.7835916633680784  0.6663638198554341  0.6286332482430625  1.0000
  H   H29       1.0  0.75516602290633  0.5895286776490422  0.5419935679984533  1.0000
  H   H30       1.0  0.8423316440074942  0.6055843191211777  0.6567058864171644  1.0000
  H   H31       1.0  0.3300006104884903  0.9270483948705533  0.8575032987655364  1.0000
  H   H32       1.0  0.5463040002958407  0.141554383600365  0.0750573552120244  1.0000
  H   H33       1.0  0.45369929620586913  0.8584479174543349  0.9249442102429273  1.0000
  H   H34       1.0  0.3693102073612025  0.9703275081016188  0.02817831716178899  1.0000
  H   H35       1.0  0.6306935270204689  0.029675456000198597  0.9718240119026479  1.0000
  H   H36       1.0  0.6738970301806333  0.07733554701669479  0.5304447269512452  1.0000
  C   C1        1.0  0.5049922683748846  0.1112080973890173  0.8917885523572907  1.0000
  C   C2        1.0  0.4969077552016259  0.4445066456960305  0.5497966437388514  1.0000
  C   C3        1.0  0.5672804029830869  0.5874608455904848  0.553934317188798  1.0000
  C   C4        1.0  0.43271576753006974  0.4125374563095151  0.4460637309487583  1.0000
  C   C5        1.0  0.030396847762794693  0.015270932812306598  0.5864076125157498  1.0000
  C   C6        1.0  0.9696042046467711  0.9847280231220097  0.4135955809909435  1.0000
  C   C7        1.0  0.9654096504404422  0.921872428534222  0.5173325889157427  1.0000
  C   C8        1.0  0.03458948254558441  0.0781265231511412  0.48267020492087914  1.0000
  C   C9        1.0  0.894851543472754  0.9454604228498839  0.4439753050439991  1.0000
  C   C10       1.0  0.10515000089481669  0.05454119339802332  0.5560286795508987  1.0000
  C   C11       1.0  0.959628314363634  0.0405182135183608  0.5145657762618756  1.0000
  C   C12       1.0  0.4950103305947807  0.8887922029905653  0.10821321546886518  1.0000
  C   C13       1.0  0.04036876411054653  0.9594833997884322  0.4854360050130497  1.0000
  C   C14       1.0  0.5255669985724579  0.07791757012985559  0.04246857371511221  1.0000
  C   C15       1.0  0.47443586004929045  0.9220840678777266  0.9575322281303473  1.0000
  C   C16       1.0  0.49740187666733243  0.3878082033764443  0.6077660210478303  1.0000
  C   C17       1.0  0.5025955698153695  0.6121900993638789  0.3922326566097213  1.0000
  C   C18       1.0  0.5947043411938038  0.04133949648458209  0.0784652997615893  1.0000
  C   C19       1.0  0.4052983063846656  0.9586627981729947  0.9215370401532046  1.0000
  C   C20       1.0  0.4955408933012749  0.9469343995196199  0.051772880761682086  1.0000
  C   C21       1.0  0.5044623867927384  0.053067892569643504  0.9482303185230241  1.0000
  C   C22       1.0  0.42716637681910896  0.9838786948268207  0.015256707842525039  1.0000
  C   C23       1.0  0.525977358782086  0.4843090001838064  0.07873152476912548  1.0000
  C   C24       1.0  0.5728351298781219  0.0161209331200496  0.984745615443906  1.0000
  C   C25       1.0  0.5700946737622914  0.014513440487320398  0.5867676217847448  1.0000
  C   C26       1.0  0.42990835761809637  0.9854875199509011  0.4132354542608214  1.0000
  C   C27       1.0  0.5968731838868778  0.0437628479332659  0.5177817519168287  1.0000
  C   C28       1.0  0.4031300421290923  0.9562374468895173  0.48222141988915745  1.0000
  C   C29       1.0  0.499734530405135  0.9500220904612887  0.44498273331034016  1.0000
  C   C30       1.0  0.5002678089124402  0.04997687229030131  0.5550200004965051  1.0000
  C   C31       1.0  0.4738607158120729  0.9211211590902764  0.5153252638803496  1.0000
  C   C32       1.0  0.5261418612806493  0.078879129335391  0.4846786823854787  1.0000
  C   C33       1.0  0.9652145605883931  0.41325601247453403  0.9921610909341682  1.0000
  C   C34       1.0  0.4740229321071823  0.5156906597960144  0.9212641782882119  1.0000
  C   C35       1.0  0.034786611530030716  0.5867449765880011  0.007835594732228005  1.0000
  C   C36       1.0  0.03308019002382432  0.49012863109945226  0.08248870893701375  1.0000
  C   C37       1.0  0.9669195060202468  0.5098730197497261  0.9175077960588782  1.0000
  C   C38       1.0  0.10549144139734792  0.5530717641107827  0.052445939779609346  1.0000
  C   C39       1.0  0.8945067244943273  0.4469285512585587  0.9475503570670657  1.0000
  C   C40       1.0  0.7786271533841147  0.3899510670050148  0.8879265143983235  1.0000
  C   C41       1.0  0.22137189920594844  0.6100505804355265  0.1120702204474925  1.0000
  C   C42       1.0  0.037450117358922494  0.4747346324801428  0.9642031183576026  1.0000
  C   C43       1.0  0.9625516708673345  0.5252663450486424  0.03579606050846016  1.0000
  C   C44       1.0  0.22109484635722507  0.1129477450993477  0.6139142042932378  1.0000
  C   C45       1.0  0.46981116371495807  0.5141114756933974  0.550517414681565  1.0000
  C   C46       1.0  0.7789052438129361  0.887054544889118  0.3860874211914906  1.0000
  C   C47       1.0  0.4986791449882091  0.10625001544769219  0.6115932005970353  1.0000
  C   C48       1.0  0.5013272600131415  0.893750275498931  0.38841263422877176  1.0000
  C   C49       1.0  0.49801256259019056  0.38675067112649947  0.8916509006870756  1.0000
  C   C50       1.0  0.5019868142545222  0.6132476418397347  0.10834708742071097  1.0000
  C   C51       1.0  0.42866171223635524  0.4135027129304802  0.9853398913969402  1.0000
  C   C52       1.0  0.5713377405633367  0.586497609256142  0.014655945749886795  1.0000
  C   C53       1.0  0.4042678613040422  0.4839019830658772  0.9574089769217412  1.0000
  C   C54       1.0  0.5957319698283355  0.516097001912911  0.04258814096577625  1.0000
  C   C55       1.0  0.5025159513011059  0.5560607171741765  0.051314822952804234  1.0000
  C   C56       1.0  0.5301875477988177  0.48588682191027743  0.4494829817158179  1.0000
  C   C57       1.0  0.49748413948335474  0.44393960543260397  0.948681328954017  1.0000
  C   C58       1.0  0.06678775491533173  0.47967131176058325  0.1680937373973067  1.0000
  C   C59       1.0  0.9332051343395521  0.5203296778168465  0.8318977671693022  1.0000
  C   C60       1.0  0.22762790991069448  0.39731675885782647  0.3906293931275898  1.0000
  C   C61       1.0  0.7723696125269865  0.6026835531028851  0.6093671335690019  1.0000
  C   C62       1.0  0.9156490345571625  0.08135518528033002  0.5280537898020798  1.0000
  C   C63       1.0  0.08435491572272034  0.9186490925416494  0.47195193016101933  1.0000
  C   C64       1.0  0.403766051282851  0.4812067613579814  0.4453083201283549  1.0000
  C   C65       1.0  0.5962318276105731  0.5187922014409807  0.5546916657485995  1.0000
  C   C66       1.0  0.5030907616765674  0.5554923175230898  0.45020365689810415  1.0000
  N   N1        1.0  0.09160197454252744  0.4697829895723373  0.23765636681604024  1.0000
  N   N2        1.0  0.9083925197914765  0.5302166367412582  0.7623419495005169  1.0000
  N   N3        1.0  0.8795439233983656  0.11499932840944642  0.5388308832535459  1.0000
  N   N4        1.0  0.12045952398505498  0.8850022831219776  0.46117513484117745  1.0000
  O   O1        1.0  0.4997896372711211  0.25057699794760424  0.7497075400953865  1.0000
  O   O2        1.0  0.5580678750631095  0.6961672192460142  0.4306872780845695  1.0000
  O   O3        1.0  0.438001930214952  0.12946041038151182  0.8672048736175387  1.0000
  O   O4        1.0  0.5619998525420657  0.8705405641587945  0.13279484985844203  1.0000
  O   O5        1.0  0.5532974624393816  0.4282987491142478  0.691422271124573  1.0000
  O   O6        1.0  0.4466932849962575  0.5716962115415356  0.3085747420449111  1.0000
  O   O7        1.0  0.735969703102157  0.30647701411913186  0.8630003806030192  1.0000
  O   O8        1.0  0.2640293871582529  0.6935266216224463  0.13699801555127078  1.0000
  O   O9        1.0  0.26433292527836016  0.13884851937021378  0.5726029495472886  1.0000
  O   O10       1.0  0.7356631423476045  0.8611544337127343  0.42739669161703403  1.0000
  O   O11       1.0  0.5632566096833216  0.13093731244403273  0.6959043805681165  1.0000
  O   O12       1.0  0.500210177453546  0.7494219780657473  0.25029121162188533  1.0000
  O   O13       1.0  0.43676097161090144  0.8690730048509252  0.30410095186211106  1.0000
  O   O14       1.0  0.43530709767696874  0.30240355179008566  0.8691117543986737  1.0000
  O   O15       1.0  0.5646922682292727  0.6975947551991909  0.13088732292894908  1.0000
  O   O16       1.0  0.43318629403508163  0.12606050591148227  0.5710220823827188  1.0000
  O   O17       1.0  0.5668124219196643  0.8739330867166262  0.4289865239664225  1.0000
  O   O18       1.0  0.5614274822799672  0.42752805668202853  0.8697122358120029  1.0000
  O   O19       1.0  0.4385725325495145  0.5724702567043638  0.13028606705577075  1.0000
  O   O20       1.0  0.30971293456097737  0.46859095423844377  0.3877810050764837  1.0000
  O   O21       1.0  0.6902851553757259  0.5314073519105094  0.6122174427311438  1.0000
  O   O22       1.0  0.73487588060069  0.43088342092959664  0.8678297616505903  1.0000
  O   O23       1.0  0.26512558337092434  0.5691208910734887  0.1321681639535016  1.0000
  O   O24       1.0  0.2643352289469617  0.1300810439462623  0.6975343609456816  1.0000
  O   O25       1.0  0.7356648071451559  0.86991924877573  0.30246723706032713  1.0000
  O   O26       1.0  0.5714632947073355  0.13816124981634204  0.872710013891322  1.0000
  O   O27       1.0  0.4285350008034143  0.8618363966941374  0.1272874404568968  1.0000
  O   O28       1.0  0.44192913353963087  0.3038304204471842  0.5693106359634896  1.0000
