data_image0
_chemical_formula_structural       Hg2H16C20S4Br4N4
_chemical_formula_sum              "Hg2 H16 C20 S4 Br4 N4"
_cell_length_a       8.278644946561304
_cell_length_b       8.278573884712408
_cell_length_c       11.086374073117112
_cell_angle_alpha    91.82219949403256
_cell_angle_beta     91.82214163168067
_cell_angle_gamma    73.07996157678777

_space_group_name_H-M_alt    "P 1"
_space_group_IT_number       1

loop_
  _space_group_symop_operation_xyz
  'x, y, z'

loop_
  _atom_site_type_symbol
  _atom_site_label
  _atom_site_symmetry_multiplicity
  _atom_site_fract_x
  _atom_site_fract_y
  _atom_site_fract_z
  _atom_site_occupancy
  Hg  Hg1       1.0  0.010906494318867054  0.9890973446872309  0.2500016506005025  1.0000
  Hg  Hg2       1.0  0.9890931373514036  0.0109011441857163  0.7499976112228097  1.0000
  H   H1        1.0  0.39662638988165383  0.9367650999764904  0.36263071022061405  1.0000
  H   H2        1.0  0.06323984619627514  0.6033721538729749  0.13737329689563887  1.0000
  H   H3        1.0  0.6033724525456563  0.06324474893094129  0.6373696006742051  1.0000
  H   H4        1.0  0.9367626879688301  0.3966162692444114  0.8626285717416521  1.0000
  H   H5        1.0  0.2046956823161423  0.5824377642614634  0.6401816710137638  1.0000
  H   H6        1.0  0.4175599720791185  0.7953023663472221  0.8598221981399945  1.0000
  H   H7        1.0  0.7953052968409721  0.41756449518526745  0.3598176619537909  1.0000
  H   H8        1.0  0.5824436007973617  0.20469113960344032  0.1401833641098449  1.0000
  H   H9        1.0  0.019860889903512178  0.7424851957554639  0.4754366472755436  1.0000
  H   H10       1.0  0.25751277286231283  0.9801393094558081  0.024565539091788897  1.0000
  H   H11       1.0  0.9801400522000847  0.2575170266352488  0.5245599782725492  1.0000
  H   H12       1.0  0.7424946918156861  0.019849164164540398  0.9754427136919687  1.0000
  H   H13       1.0  0.600957806759517  0.7811834082879725  0.5190799504534453  1.0000
  H   H14       1.0  0.2188117925029758  0.3990409961816042  0.9809211253285001  1.0000
  H   H15       1.0  0.39904118449214115  0.21883023253553796  0.48092131735018023  1.0000
  H   H16       1.0  0.781177582297552  0.6009549737888732  0.019072546127155494  1.0000
  C   C1        1.0  0.3596014879093446  0.8561742664674057  0.4259229611873891  1.0000
  C   C2        1.0  0.14382611261704875  0.6403973311843173  0.0740791682881152  1.0000
  C   C3        1.0  0.6403973421667927  0.14383557008801517  0.5740764472342761  1.0000
  C   C4        1.0  0.8561720474443676  0.35959361990278177  0.9259208704284487  1.0000
  C   C5        1.0  0.2529951889792486  0.6584553203754383  0.5803069178837532  1.0000
  C   C6        1.0  0.34154335093558086  0.7470043437802187  0.9196960914985226  1.0000
  C   C7        1.0  0.7470051979395435  0.3415532319862534  0.4196915921976652  1.0000
  C   C8        1.0  0.6584565641975431  0.25298916443725256  0.08030761567921729  1.0000
  C   C9        1.0  0.1493588689233718  0.748345429070099  0.4891162346708099  1.0000
  C   C10       1.0  0.2516547970713106  0.8506424306978387  0.010887763682120497  1.0000
  C   C11       1.0  0.8506429383649137  0.25165805953378845  0.5108813226347237  1.0000
  C   C12       1.0  0.7483491586876809  0.14934983710539024  0.989119590938344  1.0000
  C   C13       1.0  0.4184190164627282  0.668529606249983  0.5928647014164311  1.0000
  C   C14       1.0  0.331468339068394  0.5815809030623599  0.9071382543117891  1.0000
  C   C15       1.0  0.5815805176225626  0.3314776922505302  0.40713377938070744  1.0000
  C   C16       1.0  0.6685288458721956  0.41841757908711935  0.09285916914802068  1.0000
  C   C17       1.0  0.4730288733500528  0.7695557655832487  0.5134395191127012  1.0000
  C   C18       1.0  0.230443090597845  0.5269694344094091  0.9865634414944254  1.0000
  C   C19       1.0  0.5269732439381016  0.23045531920480034  0.48656085448359215  1.0000
  C   C20       1.0  0.7695525980315453  0.4730214852502002  0.013432953912335701  1.0000
  S   S1        1.0  0.566655842674841  0.5608206505295286  0.7026957823926878  1.0000
  S   S2        1.0  0.43917506049248783  0.43334131980920887  0.797307925453886  1.0000
  S   S3        1.0  0.43334288798163106  0.43918544351785727  0.2973062790127869  1.0000
  S   S4        1.0  0.5608201600205761  0.566659659977411  0.2026867990292374  1.0000
  Br  Br1       1.0  0.7694172406219337  0.8617808751028733  0.2726601387867333  1.0000
  Br  Br2       1.0  0.1382140533559024  0.23058994220534149  0.22732927403255584  1.0000
  Br  Br3       1.0  0.230582045219343  0.13821888897352608  0.7273400380854156  1.0000
  Br  Br4       1.0  0.8617852077830293  0.7694097971670428  0.7726690978932851  1.0000
  N   N1        1.0  0.2008129683063729  0.8458197173085082  0.4135166642730752  1.0000
  N   N2        1.0  0.15418479726769616  0.7991841794416744  0.08648825260402049  1.0000
  N   N3        1.0  0.7991877767925858  0.1541875722017281  0.5864818332326606  1.0000
  N   N4        1.0  0.8458197136761002  0.20080175839058256  0.9135172174831113  1.0000
