data_image0
_chemical_formula_structural       CuH28C26O8
_chemical_formula_sum              "Cu1 H28 C26 O8"
_cell_length_a       4.893977431559304
_cell_length_b       9.716880720442399
_cell_length_c       14.90166892161667
_cell_angle_alpha    111.74941927543674
_cell_angle_beta     111.90003949986485
_cell_angle_gamma    81.37264421833835

_space_group_name_H-M_alt    "P 1"
_space_group_IT_number       1

loop_
  _space_group_symop_operation_xyz
  'x, y, z'

loop_
  _atom_site_type_symbol
  _atom_site_label
  _atom_site_symmetry_multiplicity
  _atom_site_fract_x
  _atom_site_fract_y
  _atom_site_fract_z
  _atom_site_occupancy
  Cu  Cu1       1.0  3.901448515423436e-06  0.9999960972985705  0.49999949089537676  1.0000
  H   H1        1.0  0.5569335091185507  0.6608823703134662  0.9876474546622589  1.0000
  H   H2        1.0  0.44307028990755287  0.33912137244674767  0.01235467819521571  1.0000
  H   H3        1.0  0.5627772846819922  0.8056335948333597  0.12364653033928623  1.0000
  H   H4        1.0  0.4371964412349669  0.19436887700501174  0.8763475418459452  1.0000
  H   H5        1.0  0.2812253908038187  0.4460936981161793  0.16047132290638902  1.0000
  H   H6        1.0  0.7187862341275352  0.553916414456623  0.8395260874616357  1.0000
  H   H7        1.0  0.013650216971477414  0.46713026880068753  0.2500086304831158  1.0000
  H   H8        1.0  0.9863732214845626  0.5328813950731687  0.7499950052894491  1.0000
  H   H9        1.0  0.8026148646808268  0.5737664222750071  0.388720863368235  1.0000
  H   H10       1.0  0.19737068328961985  0.4262257133340198  0.6112759276927235  1.0000
  H   H11       1.0  0.08508701705864748  0.8884881356402233  0.1072098054099229  1.0000
  H   H12       1.0  0.9148954134371436  0.11151755298686798  0.8927919848781728  1.0000
  H   H13       1.0  0.37180786887834216  0.021532555016577207  0.1638742587713153  1.0000
  H   H14       1.0  0.628181950552431  0.9784638230251375  0.8361302080675587  1.0000
  H   H15       1.0  0.0942086088749363  0.1991741527369655  0.2678714619099267  1.0000
  H   H16       1.0  0.9057954666756417  0.80082773496148  0.7321387233879548  1.0000
  H   H17       1.0  0.8236975695030182  0.0666539559656627  0.2239198444436212  1.0000
  H   H18       1.0  0.1762872703329565  0.9333523073312621  0.7760783245425459  1.0000
  H   H19       1.0  0.9567272601192871  0.20648278537583306  0.08855738704554743  1.0000
  H   H20       1.0  0.04330643099190493  0.7935401781907175  0.9114558503773298  1.0000
  H   H21       1.0  0.6415080468140318  0.2399564008167729  0.12521677484242844  1.0000
  H   H22       1.0  0.3585106201056546  0.7600735628969773  0.8747957426869277  1.0000
  H   H23       1.0  0.6990613296221824  0.06336285864392718  0.0397348250201119  1.0000
  H   H24       1.0  0.3009424233557712  0.9366553317260297  0.9602694532742008  1.0000
  H   H25       1.0  0.2800161454109686  0.793857439991811  0.5475141813459816  1.0000
  H   H26       1.0  0.7199776732200575  0.20613909177914994  0.4524881555660016  1.0000
  H   H27       1.0  0.9446177183577054  0.7947301097152535  0.550878079710536  1.0000
  H   H28       1.0  0.05538967384506314  0.20525039680914153  0.4491208339992028  1.0000
  C   C1        1.0  0.9051308218262901  0.5635582304495089  0.08692783230538481  1.0000
  C   C2        1.0  0.09484365936916113  0.43644956288051884  0.9130665011075864  1.0000
  C   C3        1.0  0.8007858737638146  0.6284038021713769  0.17512269916736767  1.0000
  C   C4        1.0  0.1992224140536154  0.37160647659403184  0.8248776086391775  1.0000
  C   C5        1.0  0.4931849411557609  0.8135408087682521  0.2590747336545506  1.0000
  C   C6        1.0  0.506777409419179  0.18645298863066273  0.7409135321135736  1.0000
  C   C7        1.0  0.7570296409643195  0.5933715449837679  0.9948992694767543  1.0000
  C   C8        1.0  0.2429853918552425  0.40663922500291244  0.005099718901107099  1.0000
  C   C9        1.0  0.6145979600697942  0.7531758047122069  0.18109464407075393  1.0000
  C   C10       1.0  0.38540015670383104  0.24682320368954447  0.8189086336224848  1.0000
  C   C11       1.0  0.1511128638282103  0.4678012580837176  0.08960622917873451  1.0000
  C   C12       1.0  0.8488808337159738  0.5322148414556908  0.9103955309861294  1.0000
  C   C13       1.0  0.5621571251493834  0.7487166270775986  0.33645468851926114  1.0000
  C   C14       1.0  0.43781175078841983  0.2512642747171372  0.6635301560315626  1.0000
  C   C15       1.0  0.8718948954019227  0.5652006782747918  0.25234579443365135  1.0000
  C   C16       1.0  0.1281287240781666  0.43479303571456285  0.7476547974457475  1.0000
  C   C17       1.0  0.753380224533224  0.6248661104674654  0.330367001515512  1.0000
  C   C18       1.0  0.24660822236848653  0.3751329820873508  0.669626473119493  1.0000
  C   C19       1.0  0.19410536606562817  0.9821953877965439  0.17678499846496015  1.0000
  C   C20       1.0  0.8058969931777825  0.017798535586841576  0.8232210873853988  1.0000
  C   C21       1.0  0.9759754040820923  0.10622374210987573  0.20039776526287062  1.0000
  C   C22       1.0  0.024029958121801243  0.8937813455116271  0.7996125939662876  1.0000
  C   C23       1.0  0.433193767158123  0.8007895026091203  0.4203352911927282  1.0000
  C   C24       1.0  0.5668063753499766  0.19919086846071116  0.5796582942455046  1.0000
  C   C25       1.0  0.8100980358986405  0.1565726046450493  0.10852275154017832  1.0000
  C   C26       1.0  0.18992749284560526  0.8434442262867065  0.8914907765720133  1.0000
  O   O1        1.0  0.3109344522303772  0.9331020249344845  0.26355771968691505  1.0000
  O   O2        1.0  0.689043150704137  0.06688627161228326  0.7364298612345196  1.0000
  O   O3        1.0  0.2234635643245042  0.8972681320276122  0.412149029959906  1.0000
  O   O4        1.0  0.7765309473395304  0.10272101009811509  0.5878455862026328  1.0000
  O   O5        1.0  0.5343537254617702  0.7475874565491553  0.4931127287465032  1.0000
  O   O6        1.0  0.4656715704978964  0.252405688581689  0.5068789988709881  1.0000
  O   O7        1.0  0.12220311971424987  0.854314394529716  0.5750377210370416  1.0000
  O   O8        1.0  0.8777894807294901  0.14566866767174252  0.42495731477456644  1.0000
