data_image0
_chemical_formula_structural       La4H28C32N4O32
_chemical_formula_sum              "La4 H28 C32 N4 O32"
_cell_length_a       7.733032314282206
_cell_length_b       9.979563486017662
_cell_length_c       15.109334265634898
_cell_angle_alpha    90.0000299331261
_cell_angle_beta     98.3542148022116
_cell_angle_gamma    89.99978401192011

_space_group_name_H-M_alt    "P 1"
_space_group_IT_number       1

loop_
  _space_group_symop_operation_xyz
  'x, y, z'

loop_
  _atom_site_type_symbol
  _atom_site_label
  _atom_site_symmetry_multiplicity
  _atom_site_fract_x
  _atom_site_fract_y
  _atom_site_fract_z
  _atom_site_occupancy
  La  La1       1.0  0.13917027893042186  0.4583957373855654  0.356078479251913  1.0000
  La  La2       1.0  0.36082413387649837  0.958395155113216  0.1439206580229496  1.0000
  La  La3       1.0  0.8608347626041419  0.5416048468008795  0.6439213571895268  1.0000
  La  La4       1.0  0.6391678318142126  0.04160442704466049  0.8560795154634991  1.0000
  H   H1        1.0  0.7390537021682205  0.4531581320759129  0.2909420325564939  1.0000
  H   H2        1.0  0.7609446506989171  0.9531588952890785  0.20905992305250728  1.0000
  H   H3        1.0  0.2609474154926942  0.5468384439250755  0.7090581696508809  1.0000
  H   H4        1.0  0.2390486107093608  0.04684369301148909  0.7909429955796486  1.0000
  H   H5        1.0  0.7748344894335587  0.5566295699561863  0.36898821909264273  1.0000
  H   H6        1.0  0.7251618807784864  0.05663172795878071  0.13101079960523526  1.0000
  H   H7        1.0  0.22516271846273378  0.44336700604936397  0.6310090407256015  1.0000
  H   H8        1.0  0.27483268765210056  0.9433698582920798  0.8689922176486251  1.0000
  H   H9        1.0  0.9169912935094685  0.3602038616054982  0.17731018948251182  1.0000
  H   H10       1.0  0.5830075195863457  0.8602032306588968  0.32268978251763514  1.0000
  H   H11       1.0  0.08300721575189127  0.6397957205422173  0.8226884922194275  1.0000
  H   H12       1.0  0.41698966854124103  0.1397943473963394  0.6773121087176437  1.0000
  H   H13       1.0  0.025036865475947002  0.22445675378482116  0.2015940368969354  1.0000
  H   H14       1.0  0.4749638982263276  0.7244559588087469  0.2984088062516151  1.0000
  H   H15       1.0  0.9749642493539169  0.7755428283599386  0.7984068269414241  1.0000
  H   H16       1.0  0.5250345884498839  0.2755416192454091  0.7015951684983863  1.0000
  H   H17       1.0  0.20953458116852625  0.8852771451941877  0.646450781649577  1.0000
  H   H18       1.0  0.290470262053951  0.38527728273439976  0.853549844617078  1.0000
  H   H19       1.0  0.7904730687582883  0.1147234389890457  0.3535505752972768  1.0000
  H   H20       1.0  0.7095308556094009  0.6147182912187504  0.14645035759030384  1.0000
  H   H21       1.0  0.3924578462079252  0.21519541563479552  0.5214122226793452  1.0000
  H   H22       1.0  0.10754259835092479  0.7151948353032649  0.9785873498191653  1.0000
  H   H23       1.0  0.6075432742621274  0.784807172652947  0.4785873178969738  1.0000
  H   H24       1.0  0.8924572235778142  0.284804746842056  0.021410107242459713  1.0000
  H   H25       1.0  0.17086092326143637  0.8859725100036043  0.35868885515935756  1.0000
  H   H26       1.0  0.32913906678390253  0.3859683595352408  0.14131133923385875  1.0000
  H   H27       1.0  0.8291375831639981  0.11403208238355939  0.6413104881735452  1.0000
  H   H28       1.0  0.6708594396512736  0.6140322246605764  0.8586880040990795  1.0000
  C   C1        1.0  0.3102472335008173  0.1406912070143065  0.3477670576302857  1.0000
  C   C2        1.0  0.18975003600596813  0.6406901298518833  0.15223085939333467  1.0000
  C   C3        1.0  0.6897499687382266  0.8593093771831233  0.652231525449942  1.0000
  C   C4        1.0  0.810248478900455  0.35931045434313796  0.8477664990465856  1.0000
  C   C5        1.0  0.09014727448597878  0.7354370404932667  0.4981850510610288  1.0000
  C   C6        1.0  0.4098534527967459  0.23543555043490016  0.0018138221497992052  1.0000
  C   C7        1.0  0.9098603923809135  0.2645645457362135  0.5018123360997822  1.0000
  C   C8        1.0  0.5901424283158433  0.7645600235265348  0.9981879704637966  1.0000
  C   C9        1.0  0.17710696613277582  0.8703245779840856  0.5016677540823766  1.0000
  C   C10       1.0  0.32289403435370895  0.3703217281745523  0.9983312532637503  1.0000
  C   C11       1.0  0.8228980782157933  0.12968001439344332  0.498331420728029  1.0000
  C   C12       1.0  0.6771031622378344  0.6296788560234035  0.0016686530784895096  1.0000
  C   C13       1.0  0.22946248501787642  0.9337802149757405  0.5839541361530041  1.0000
  C   C14       1.0  0.27054082110412025  0.43378246400260423  0.9160450675598502  1.0000
  C   C15       1.0  0.7705438663651805  0.0662183651129027  0.41604513727914155  1.0000
  C   C16       1.0  0.7294589951771184  0.5662171181432357  0.0839537127637868  1.0000
  C   C17       1.0  0.33113923624252095  0.11696375112153848  0.5143372242054698  1.0000
  C   C18       1.0  0.16886560677590265  0.616963998945259  0.9856626455152058  1.0000
  C   C19       1.0  0.6688644926197894  0.883038837162985  0.48566383687627035  1.0000
  C   C20       1.0  0.8311355221727152  0.38303558319817904  0.01433491016812379  1.0000
  C   C21       1.0  0.28232294314572204  0.062236946571879094  0.4292926080937749  1.0000
  C   C22       1.0  0.21768123144792637  0.5622367257170778  0.07070844964621163  1.0000
  C   C23       1.0  0.7176820899175809  0.9377636376153613  0.570709213240683  1.0000
  C   C24       1.0  0.7823211960444426  0.4377648605209501  0.9292911895518191  1.0000
  C   C25       1.0  0.20741050931128063  0.934678019022989  0.4232814952880944  1.0000
  C   C26       1.0  0.292589246848415  0.43467492684209214  0.07671803680124613  1.0000
  C   C27       1.0  0.7925932280198538  0.06532557130857697  0.5767175809006206  1.0000
  C   C28       1.0  0.7074079469169446  0.5653266594039579  0.9232825311719923  1.0000
  C   C29       1.0  0.5427838099771376  0.532946545282158  0.46171945926088415  1.0000
  C   C30       1.0  0.9572165822712932  0.0329499554943666  0.0382831637842997  1.0000
  C   C31       1.0  0.4572198934835824  0.46705103276556065  0.5382875564999454  1.0000
  C   C32       1.0  0.04278585086370869  0.9670536348388126  0.9617151521517048  1.0000
  N   N1        1.0  0.3077223580417438  0.0542316124085573  0.5901840760018829  1.0000
  N   N2        1.0  0.1922801758153482  0.5542307301057433  0.9098155973420323  1.0000
  N   N3        1.0  0.6922839933315714  0.9457709758714259  0.4098151974302341  1.0000
  N   N4        1.0  0.8077183334508858  0.44576684794630234  0.09018308435991433  1.0000
  O   O1        1.0  0.07798266594292609  0.6705945142011202  0.42535382463517396  1.0000
  O   O2        1.0  0.4220209905067093  0.1705950498233619  0.07464524671483733  1.0000
  O   O3        1.0  0.92203154730862  0.3294110802092831  0.5746414091100862  1.0000
  O   O4        1.0  0.5779748877723845  0.8294045323296828  0.9253572075297358  1.0000
  O   O5        1.0  0.034213777704899  0.6960035614859021  0.5686371176187992  1.0000
  O   O6        1.0  0.4657854615811914  0.19600124298168708  0.9313603716301418  1.0000
  O   O7        1.0  0.9657899822405936  0.3039900083651901  0.43135666552193214  1.0000
  O   O8        1.0  0.5342143377818829  0.8039883186873737  0.06864237847960203  1.0000
  O   O9        1.0  0.30328380100901586  0.07774354543365551  0.27458702296800663  1.0000
  O   O10       1.0  0.19671637433448544  0.5777455114955216  0.2254144003236434  1.0000
  O   O11       1.0  0.6967094717015739  0.9222560367223452  0.7254132491401467  1.0000
  O   O12       1.0  0.8032939009270875  0.4222550726829013  0.7745845073425885  1.0000
  O   O13       1.0  0.3371067153695222  0.2661385418015882  0.3564095659276064  1.0000
  O   O14       1.0  0.16289255286276472  0.7661365344039338  0.14358986986838576  1.0000
  O   O15       1.0  0.6628944050981004  0.7338650485339925  0.6435899746487054  1.0000
  O   O16       1.0  0.8371020381627118  0.23386304774913919  0.8564078543374409  1.0000
  O   O17       1.0  0.4444203606912537  0.5604879456711062  0.3895836214217925  1.0000
  O   O18       1.0  0.055578594323314696  0.060487577628237  0.11041704185554835  1.0000
  O   O19       1.0  0.5555846526106619  0.43951063442230515  0.6104228313297215  1.0000
  O   O20       1.0  0.9444160051636742  0.9395160127153941  0.889578697457232  1.0000
  O   O21       1.0  0.7059567177097107  0.5551957827843096  0.4772423449337283  1.0000
  O   O22       1.0  0.7940370426052396  0.05519865627453409  0.022757138171549222  1.0000
  O   O23       1.0  0.29404699986976357  0.44480179526208  0.5227613626720641  1.0000
  O   O24       1.0  0.20595492873054866  0.9448019279306551  0.9772417120528802  1.0000
  O   O25       1.0  0.8139076773881582  0.5287094314032216  0.31164250189033293  1.0000
  O   O26       1.0  0.6860914397351294  0.028709744677605897  0.18835737606767827  1.0000
  O   O27       1.0  0.18609082905188504  0.4712891486969183  0.6883568414426124  1.0000
  O   O28       1.0  0.31390182449933957  0.9712918415748603  0.8116448809334788  1.0000
  O   O29       1.0  0.9926999438423251  0.3096554672157055  0.2269705768176778  1.0000
  O   O30       1.0  0.5072912614995103  0.8096560208876301  0.27303145067460133  1.0000
  O   O31       1.0  0.007294633064390197  0.6903441149386823  0.7730304555431788  1.0000
  O   O32       1.0  0.4926941549681914  0.19034556537661015  0.7269715378583614  1.0000
