data_image0
_chemical_formula_structural       CoH18C16S2N6O6
_chemical_formula_sum              "Co1 H18 C16 S2 N6 O6"
_cell_length_a       7.105278227878001
_cell_length_b       8.322524105735534
_cell_length_c       10.298398154518717
_cell_angle_alpha    112.51203194356509
_cell_angle_beta     100.35533303179706
_cell_angle_gamma    87.43848251936662

_space_group_name_H-M_alt    "P 1"
_space_group_IT_number       1

loop_
  _space_group_symop_operation_xyz
  'x, y, z'

loop_
  _atom_site_type_symbol
  _atom_site_label
  _atom_site_symmetry_multiplicity
  _atom_site_fract_x
  _atom_site_fract_y
  _atom_site_fract_z
  _atom_site_occupancy
  Co  Co1       1.0  0.5000026789331927  0.9999992989739757  2.4439515301690343e-06  1.0000
  H   H1        1.0  0.4259424521295897  0.18771542152033052  0.35824030885883207  1.0000
  H   H2        1.0  0.5740670376650172  0.8122776909730478  0.6417551460105315  1.0000
  H   H3        1.0  0.3548391070794422  0.05432937136114193  0.5264126999673023  1.0000
  H   H4        1.0  0.6451721077890368  0.9456663107572542  0.4735846157929089  1.0000
  H   H5        1.0  0.9371557297993149  0.7164428949353054  0.17953790797042765  1.0000
  H   H6        1.0  0.0628319406981319  0.28357148500405327  0.8204711710747998  1.0000
  H   H7        1.0  0.013297032678984504  0.8707076961982665  0.030254100440721753  1.0000
  H   H8        1.0  0.9866885514679138  0.1293014180579206  0.9697503791322928  1.0000
  H   H9        1.0  0.786793175229164  0.5438653764549104  0.49218711046397345  1.0000
  H   H10       1.0  0.2132008514639097  0.45612390403615416  0.5077921700573709  1.0000
  H   H11       1.0  0.9758824636734927  0.6641178714990662  0.6304797775295583  1.0000
  H   H12       1.0  0.024106054759499805  0.3358682714930837  0.3695068462174333  1.0000
  H   H13       1.0  0.8592394037104325  0.6687607036195617  0.34785876673861077  1.0000
  H   H14       1.0  0.14076479814357867  0.3312402511761974  0.6521335265075405  1.0000
  H   H15       1.0  0.27995295126837755  0.7991356466998027  0.7431800817332003  1.0000
  H   H16       1.0  0.7200450984036877  0.20086888685464296  0.25682430125664985  1.0000
  H   H17       1.0  0.3480845586634728  0.6861476278008355  0.8374435805988297  1.0000
  H   H18       1.0  0.6519115241909219  0.313852937992543  0.16255657966753026  1.0000
  C   C1        1.0  0.3173928365969658  0.08607307514655821  0.3279187759588353  1.0000
  C   C2        1.0  0.6826129815101891  0.9139243605194952  0.6720814347701989  1.0000
  C   C3        1.0  0.27860480008175154  0.008337008926957901  0.4168361960922268  1.0000
  C   C4        1.0  0.7214009569199503  0.991660376632126  0.583163022094844  1.0000
  C   C5        1.0  0.1440217500552308  0.8710124606951624  0.3668647656898472  1.0000
  C   C6        1.0  0.855980154620667  0.12898790000752314  0.6331378390662081  1.0000
  C   C7        1.0  0.0452876125683446  0.8210056621153043  0.22625266484740084  1.0000
  C   C8        1.0  0.954705274052081  0.1790056162473164  0.7737521499383389  1.0000
  C   C9        1.0  0.0859755487900244  0.9024595028452113  0.13966537463447543  1.0000
  C   C10       1.0  0.9140184041344098  0.09754780542494502  0.8603384247565342  1.0000
  C   C11       1.0  0.12252461459808471  0.7830081672514029  0.4651137033632793  1.0000
  C   C12       1.0  0.8774759182465103  0.21699591300887996  0.534884954077725  1.0000
  C   C13       1.0  0.9390797326957736  0.581454081114167  0.5164962161729888  1.0000
  C   C14       1.0  0.06091347479317479  0.41853817218909484  0.4834896582460998  1.0000
  C   C15       1.0  0.5521811600556462  0.7342753957445965  0.1545844478374506  1.0000
  C   C16       1.0  0.4478266832965971  0.26572725549765164  0.8454193698218403  1.0000
  S   S1        1.0  0.5425669257811165  0.6026611755654802  0.2369701039673515  1.0000
  S   S2        1.0  0.4574394980245628  0.397339156586611  0.7630368155108654  1.0000
  N   N1        1.0  0.22305545377695782  0.03155124594615441  0.19047239267350585  1.0000
  N   N2        1.0  0.7769462091551416  0.9684477166204888  0.809527850249907  1.0000
  N   N3        1.0  0.9687532676825654  0.677189456047394  0.4305940097067804  1.0000
  N   N4        1.0  0.031247847978434592  0.322807857848332  0.5693989086742162  1.0000
  N   N5        1.0  0.5570054431789372  0.8344539621849947  0.09882993051034106  1.0000
  N   N6        1.0  0.44300335230050786  0.165541025626375  0.9011757116758614  1.0000
  O   O1        1.0  0.2701437723940927  0.10313728491497902  0.10567466737138177  1.0000
  O   O2        1.0  0.7298548016669528  0.8968592344597754  0.8943245923516938  1.0000
  O   O3        1.0  0.24659535220835235  0.8084199198235211  0.5749431947514054  1.0000
  O   O4        1.0  0.7534010334953081  0.19158209421288322  0.42506031988954607  1.0000
  O   O5        1.0  0.3023323889603731  0.8013191622510477  0.8420445660552147  1.0000
  O   O6        1.0  0.6976666659102406  0.19868135110395715  0.15795780899794917  1.0000
