data_image0
_chemical_formula_structural       Cu2H48C40S4Cl2O6
_chemical_formula_sum              "Cu2 H48 C40 S4 Cl2 O6"
_cell_length_a       9.449067891204974
_cell_length_b       10.076067377960204
_cell_length_c       12.491898399719695
_cell_angle_alpha    105.61849007223628
_cell_angle_beta     99.08285089867064
_cell_angle_gamma    93.96265275344028

_space_group_name_H-M_alt    "P 1"
_space_group_IT_number       1

loop_
  _space_group_symop_operation_xyz
  'x, y, z'

loop_
  _atom_site_type_symbol
  _atom_site_label
  _atom_site_symmetry_multiplicity
  _atom_site_fract_x
  _atom_site_fract_y
  _atom_site_fract_z
  _atom_site_occupancy
  Cu  Cu1       1.0  0.40072431506126793  0.44881919792121755  0.3816482519635471  1.0000
  Cu  Cu2       1.0  0.5992803980267566  0.5511824769051401  0.6183582571691275  1.0000
  H   H1        1.0  0.1879128422427101  0.7978711591357524  0.9361673120006697  1.0000
  H   H2        1.0  0.8120915673211329  0.20211895626588475  0.06382715043015708  1.0000
  H   H3        1.0  0.0762983129895929  0.9355411950422408  0.9504188161603009  1.0000
  H   H4        1.0  0.9237039440090624  0.064448951277349  0.04957698714985529  1.0000
  H   H5        1.0  0.021284017359185718  0.8792250166466005  0.13033170365756766  1.0000
  H   H6        1.0  0.9787271911770714  0.12076823733020352  0.8696674557526477  1.0000
  H   H7        1.0  0.93865602591827  0.7633927161558987  0.9956988794178229  1.0000
  H   H8        1.0  0.061346476949474  0.2365995409200892  0.0042997947322688905  1.0000
  H   H9        1.0  0.8474168379943733  0.7271660167506652  0.14503015600350713  1.0000
  H   H10       1.0  0.15259485227032601  0.27283148244599437  0.8549763499438254  1.0000
  H   H11       1.0  0.7327907592975224  0.5862723163501685  0.24979055107824163  1.0000
  H   H12       1.0  0.2672141919361479  0.4137397262070692  0.7502173414070795  1.0000
  H   H13       1.0  0.8559811487775804  0.3991079969527007  0.3053130911956288  1.0000
  H   H14       1.0  0.14401053849694992  0.6008927783693351  0.6946980217214572  1.0000
  H   H15       1.0  0.0909240924371346  0.3447937838062529  0.24581711160990943  1.0000
  H   H16       1.0  0.9090640397273688  0.6552037710030946  0.7541848857229212  1.0000
  H   H17       1.0  0.2616586782460714  0.5103810686155583  0.0574214727562961  1.0000
  H   H18       1.0  0.7383438046021948  0.4896112358745626  0.9425804111083023  1.0000
  H   H19       1.0  0.2535082687266623  0.3617542015486208  0.10780127164321839  1.0000
  H   H20       1.0  0.7464949767532262  0.6382443759430103  0.8922052125980499  1.0000
  H   H21       1.0  0.5123187186727165  0.7716196933260304  0.30977260448370453  1.0000
  H   H22       1.0  0.48767679700861777  0.22837676308671462  0.6902276777089823  1.0000
  H   H23       1.0  0.36919893125210723  0.7533845365665641  0.19403053511001642  1.0000
  H   H24       1.0  0.6308015494922969  0.24660878902527367  0.80596971169642  1.0000
  H   H25       1.0  0.19163832299739877  0.7753341530597309  0.3202110505349651  1.0000
  H   H26       1.0  0.8083558905517306  0.22466016064146296  0.6797838215429335  1.0000
  H   H27       1.0  0.32073264267994966  0.7509691792130508  0.432060600640959  1.0000
  H   H28       1.0  0.6792632643269344  0.2490303899933863  0.5679403768827952  1.0000
  H   H29       1.0  0.2801106626979504  0.0160409349590793  0.5380193439055388  1.0000
  H   H30       1.0  0.7198892935604773  0.9839564853621212  0.46197768587689586  1.0000
  H   H31       1.0  0.15974782377632119  0.007167658320348399  0.4092526073650333  1.0000
  H   H32       1.0  0.8402504966794524  0.9928339551639312  0.5907474928334437  1.0000
  H   H33       1.0  0.4507437949287761  0.19393409088974073  0.49684133307575  1.0000
  H   H34       1.0  0.5492545205221261  0.8060675344480759  0.5031595695513644  1.0000
  H   H35       1.0  0.2810620785140472  0.2529783318102544  0.516206732676693  1.0000
  H   H36       1.0  0.7189339739492979  0.7470222394334769  0.48379206933820734  1.0000
  H   H37       1.0  0.5569921625654359  0.18593106676771498  0.3113878855281057  1.0000
  H   H38       1.0  0.44300685285712404  0.814067394756826  0.6886092440423823  1.0000
  H   H39       1.0  0.43642188944175325  0.026033030866678096  0.2591640291223243  1.0000
  H   H40       1.0  0.5635755101976231  0.9739695764068089  0.7408329611497065  1.0000
  H   H41       1.0  0.6044243180036658  0.32095534661214487  0.18758951441881064  1.0000
  H   H42       1.0  0.39556873374780105  0.6790556624464728  0.8124142871249801  1.0000
  H   H43       1.0  0.5769184852969432  0.351188273037792  0.9942061041018488  1.0000
  H   H44       1.0  0.4230691823229762  0.648831058436663  0.005798759724342514  1.0000
  H   H45       1.0  0.39432598551965015  0.1905484930171326  0.8379816238581625  1.0000
  H   H46       1.0  0.6056676230333053  0.8094665834583453  0.1620174877933351  1.0000
  H   H47       1.0  0.24373175727866675  0.003989203705891999  0.8743929621064693  1.0000
  H   H48       1.0  0.7562773059835664  0.9960123026027574  0.12560364340990302  1.0000
  C   C1        1.0  0.14048175462063736  0.8745806461550669  0.9969093140717076  1.0000
  C   C2        1.0  0.8595297298139285  0.1254146474569282  0.003087901606676301  1.0000
  C   C3        1.0  0.042163495334314384  0.80367290479424  0.05389424131931967  1.0000
  C   C4        1.0  0.9578485286008416  0.1963182585277963  0.9461037840971827  1.0000
  C   C5        1.0  0.036029119079962896  0.6164241735417946  0.1379140500305169  1.0000
  C   C6        1.0  0.9639647912602172  0.3835599265244412  0.8620898702668995  1.0000
  C   C7        1.0  0.902033496842911  0.6444041381817912  0.1677276958168434  1.0000
  C   C8        1.0  0.09797434925285842  0.355612848083382  0.8322655709589738  1.0000
  C   C9        1.0  0.8373968707297336  0.5648225381482844  0.2268668348123271  1.0000
  C   C10       1.0  0.16260113378876884  0.4351771305290626  0.7731416285470161  1.0000
  C   C11       1.0  0.9051448586685638  0.45766498467074973  0.2561501066777295  1.0000
  C   C12       1.0  0.09486055395883145  0.5423500047307145  0.7438472471378788  1.0000
  C   C13       1.0  0.03711156364519747  0.42882962093703  0.22389704138219457  1.0000
  C   C14       1.0  0.9628802995472935  0.5711556069127184  0.7761124637147034  1.0000
  C   C15       1.0  0.10445375356005121  0.5062683421424907  0.16453656417910884  1.0000
  C   C16       1.0  0.8955521058787425  0.4937331512754283  0.835458040513103  1.0000
  C   C17       1.0  0.24576846916961154  0.4738516398375765  0.13025877089769716  1.0000
  C   C18       1.0  0.7542281054934179  0.5261366034093626  0.8697463404857472  1.0000
  C   C19       1.0  0.39963398483936885  0.7273501125899101  0.27377997082874117  1.0000
  C   C20       1.0  0.600368653475094  0.2726431702304382  0.7262181326697429  1.0000
  C   C21       1.0  0.307204379001881  0.7930352250577216  0.358438733360309  1.0000
  C   C22       1.0  0.6927918139130539  0.2069663600768479  0.6415586955743606  1.0000
  C   C23       1.0  0.2742629384320097  0.0289965937381567  0.45201303146427557  1.0000
  C   C24       1.0  0.7257347598437321  0.9709997606354364  0.547981095277315  1.0000
  C   C25       1.0  0.33494339573918813  0.17590313348066638  0.46128528845463984  1.0000
  C   C26       1.0  0.6650542875219401  0.8240932564535299  0.5387112455728342  1.0000
  C   C27       1.0  0.4527238999033614  0.1346185247519358  0.2593463373047484  1.0000
  C   C28       1.0  0.5472775189583458  0.8653820047575211  0.7406515197977228  1.0000
  C   C29       1.0  0.4375916246469416  0.15005711482078957  0.1425050765046123  1.0000
  C   C30       1.0  0.5623996309478514  0.8499392967460652  0.8574906655890615  1.0000
  C   C31       1.0  0.5245082266426522  0.25250819592550033  0.11873125524213178  1.0000
  C   C32       1.0  0.47548794353421897  0.7475016817441542  0.8812670934911395  1.0000
  C   C33       1.0  0.5092076591472079  0.26918094969160933  0.010157077622835688  1.0000
  C   C34       1.0  0.4907798153708924  0.7308279073701698  0.9898391809930513  1.0000
  C   C35       1.0  0.4067706002195024  0.18024338541005855  0.9234475259390604  1.0000
  C   C36       1.0  0.5932340874118864  0.8197748270723438  0.07655761307630374  1.0000
  C   C37       1.0  0.31966754455049806  0.07531530075277  0.9440968272259622  1.0000
  C   C38       1.0  0.6803302841670912  0.92468209121872  0.05589753129265065  1.0000
  C   C39       1.0  0.3336686908486469  0.0610988645727986  0.05360781340379359  1.0000
  C   C40       1.0  0.6663381898191787  0.9389027437750032  0.946394947563668  1.0000
  S   S1        1.0  0.406618619663341  0.5419119254660174  0.24056873126372116  1.0000
  S   S2        1.0  0.5933814219931149  0.4580866391348835  0.7594357521533864  1.0000
  S   S3        1.0  0.3117569366903794  0.22108599551116004  0.32851072288988087  1.0000
  S   S4        1.0  0.6882435363305817  0.7789155870551668  0.6714880364292809  1.0000
  Cl  Cl1       1.0  0.3389800386732773  0.5578201407848482  0.552484689095934  1.0000
  Cl  Cl2       1.0  0.661024004472317  0.44218462673357106  0.4475207785215928  1.0000
  O   O1        1.0  0.2511851097582252  0.964075312302697  0.08268696402901554  1.0000
  O   O2        1.0  0.7488210583266763  0.035919904508254795  0.9173031722755097  1.0000
  O   O3        1.0  0.1094671411594277  0.6926410200639382  0.0835246473958833  1.0000
  O   O4        1.0  0.8905319170206667  0.3073491015113845  0.9164683526614892  1.0000
  O   O5        1.0  0.3591343624134566  0.9373850656786473  0.38972875083513253  1.0000
  O   O6        1.0  0.6408540806834535  0.06261444579116218  0.6102656857654692  1.0000
