data_image0
_chemical_formula_structural       Al6H46C96N2O34
_chemical_formula_sum              "Al6 H46 C96 N2 O34"
_cell_length_a       12.6761098923858
_cell_length_b       12.159293634891743
_cell_length_c       27.855320529408733
_cell_angle_alpha    89.37798871133197
_cell_angle_beta     90.48475554945365
_cell_angle_gamma    59.91694146471113

_space_group_name_H-M_alt    "P 1"
_space_group_IT_number       1

loop_
  _space_group_symop_operation_xyz
  'x, y, z'

loop_
  _atom_site_type_symbol
  _atom_site_label
  _atom_site_symmetry_multiplicity
  _atom_site_fract_x
  _atom_site_fract_y
  _atom_site_fract_z
  _atom_site_occupancy
  Al  Al1       1.0  0.5967557067592894  0.8010971228684339  0.5010624267910444  1.0000
  Al  Al2       1.0  0.3464267291102984  0.06734806325938791  0.5014834387197951  1.0000
  Al  Al3       1.0  0.5803928617148487  0.07206943692526119  0.5014724253060123  1.0000
  Al  Al4       1.0  0.0913809403421979  0.8414219116420374  0.015662867119885997  1.0000
  Al  Al5       1.0  0.0879556995142323  0.5798355014918783  0.016394467318299598  1.0000
  Al  Al6       1.0  0.3313114161143814  0.5651790712180613  0.018754364520823696  1.0000
  H   H1        1.0  0.135160739508045  0.3468314748133493  0.7812110006048271  1.0000
  H   H2        1.0  0.7206041512279242  0.7308953108501514  0.7904495585370057  1.0000
  H   H3        1.0  0.5047124568412542  0.5949727966293067  0.7804197836520288  1.0000
  H   H4        1.0  0.29707969984909244  0.6831232642362365  0.7180081035504742  1.0000
  H   H5        1.0  0.5570248009411571  0.7733993072331485  0.7363828329466031  1.0000
  H   H6        1.0  0.41219960797239  0.9551102112856499  0.8060305544596176  1.0000
  H   H7        1.0  0.2049370152771246  0.04208538116834149  0.7437633418956365  1.0000
  H   H8        1.0  0.15340124754570184  0.8619048791824822  0.7874830410911713  1.0000
  H   H9        1.0  0.15545869780953583  0.5070634221578344  0.7127419323209524  1.0000
  H   H10       1.0  0.1926405393893944  0.276613640672025  0.38348960388671577  1.0000
  H   H11       1.0  0.029590269642596916  0.3770654375155757  0.2222917332880101  1.0000
  H   H12       1.0  0.4641529418888339  0.3663936031673176  0.1360712841641032  1.0000
  H   H13       1.0  0.5927263986367421  0.3183179578286611  0.21017382610151  1.0000
  H   H14       1.0  0.6155412316469722  0.2871714550458578  0.2980988194728766  1.0000
  H   H15       1.0  0.5408784420402029  0.2532175203298834  0.3751439195315385  1.0000
  H   H16       1.0  0.9296433417382772  0.9558777213441231  0.1391172761400128  1.0000
  H   H17       1.0  0.8868189826914091  0.08431145370121121  0.2133663415615104  1.0000
  H   H18       1.0  0.3339282943306898  0.1329707339039601  0.7383131789542291  1.0000
  H   H19       1.0  0.835948073024575  0.11615083999909372  0.29788098066752866  1.0000
  H   H20       1.0  0.8978046228805778  0.6209677675188416  0.1405441250246682  1.0000
  H   H21       1.0  0.8236057580613051  0.560915706070631  0.2140683697626429  1.0000
  H   H22       1.0  0.7684673682264105  0.5940777906860787  0.2996404074181953  1.0000
  H   H23       1.0  0.7365390148467627  0.7161134850845985  0.37430977057238124  1.0000
  H   H24       1.0  0.4885768511614473  0.5898052435773239  0.1461823108164779  1.0000
  H   H25       1.0  0.5240709944867633  0.6890724553741664  0.38708373954624886  1.0000
  H   H26       1.0  0.15950799227549342  0.9485211058708529  0.1353139493931295  1.0000
  H   H27       1.0  0.07856413850795721  0.08660418485833786  0.2062646411339344  1.0000
  H   H28       1.0  0.0901545453468486  0.12161689917256521  0.2934785228153984  1.0000
  H   H29       1.0  0.1956445217577922  0.04719960684202822  0.37203241298083606  1.0000
  H   H30       1.0  0.5184924524064769  0.32158774033563037  0.7316978540505872  1.0000
  H   H31       1.0  0.3191799850039558  0.5335654096073981  0.7749017001311529  1.0000
  H   H32       1.0  0.7538817513567081  0.04221666376220416  0.7957376090451902  1.0000
  H   H33       1.0  0.9442400194843189  0.9349723506830329  0.7287166207119711  1.0000
  H   H34       1.0  0.6165651691152263  0.9606989506446837  0.7358992236661237  1.0000
  H   H35       1.0  0.8916270471281251  0.6093816163200501  0.6859847717548889  1.0000
  H   H36       1.0  0.08518586176416679  0.6465570583546383  0.81361005639571  1.0000
  H   H37       1.0  0.059189182882604996  0.3496507272467396  0.1588821169843015  1.0000
  H   H38       1.0  0.027167509603060604  0.3779299086948598  0.3491949490903679  1.0000
  H   H39       1.0  0.9481924783196476  0.3953810138485706  0.29846596003272907  1.0000
  H   H40       1.0  0.7648826736128314  0.07011082721535195  0.416179611388209  1.0000
  H   H41       1.0  0.8250471945765838  0.10853194260732126  0.3667757447198596  1.0000
  H   H42       1.0  0.6240303206153328  0.510499263892676  0.1878311080549935  1.0000
  H   H43       1.0  0.6195854955751657  0.5462165808150627  0.3517779160573085  1.0000
  H   H44       1.0  0.5800144577034771  0.08721380584091785  0.7901061351894683  1.0000
  H   H45       1.0  0.6977482805716236  0.5903143157680049  0.5297579133361054  1.0000
  H   H46       1.0  0.0119014736247678  0.04956925465163661  0.985610567802766  1.0000
  C   C1        1.0  0.39457450893095813  0.8828493269605318  0.571776240724148  1.0000
  C   C2        1.0  0.36517070018548026  0.2658295392144723  0.6156748984652509  1.0000
  C   C3        1.0  0.3233801259467413  0.444268697970962  0.7661906131957822  1.0000
  C   C4        1.0  0.3109345490037967  0.35546751549434674  0.8053255653594533  1.0000
  C   C5        1.0  0.4335610600666584  0.3270881340979415  0.7430540380463881  1.0000
  C   C6        1.0  0.3426285390856734  0.31169998346303623  0.7082780833369923  1.0000
  C   C7        1.0  0.42145610067824896  0.23746661023935897  0.7809820626991238  1.0000
  C   C8        1.0  0.3299538833952766  0.22241119927794276  0.7469203341596466  1.0000
  C   C9        1.0  0.2998003777575207  0.37719590586321766  0.855235631327851  1.0000
  C   C10       1.0  0.3554292622624046  0.2880713633841552  0.6585191230309917  1.0000
  C   C11       1.0  0.894463744691599  0.8900271261701176  0.7426848731448173  1.0000
  C   C12       1.0  0.38841452343991284  0.2146069225366105  0.5683636550387874  1.0000
  C   C13       1.0  0.7871547395351541  0.9499576659903256  0.7789090011272037  1.0000
  C   C14       1.0  0.8967663808999405  0.7860141213193755  0.9006619256718124  1.0000
  C   C15       1.0  0.7787221706633363  0.8694019521198727  0.61695769997403  1.0000
  C   C16       1.0  0.952781207009835  0.7613614436223131  0.7712632526392653  1.0000
  C   C17       1.0  0.8433253236512926  0.8208706049925636  0.8084639526939057  1.0000
  C   C18       1.0  0.8777078735134509  0.7155692277501943  0.7394462243126014  1.0000
  C   C19       1.0  0.8199022240519652  0.846346995592036  0.7102500265229921  1.0000
  C   C20       1.0  0.769702957194454  0.776176437500638  0.7760749500917825  1.0000
  C   C21       1.0  0.7122581721158099  0.9049829058022496  0.7474686994675751  1.0000
  C   C22       1.0  0.8659599947522595  0.8034340322885284  0.8584366545375772  1.0000
  C   C23       1.0  0.7274045414951688  0.892739003389323  0.569017215271586  1.0000
  C   C24       1.0  0.8012179929659878  0.8593146278248086  0.659966232930998  1.0000
  C   C25       1.0  0.3233398405205747  0.7423135111954411  0.7382883889957982  1.0000
  C   C26       1.0  0.43816788444325977  0.6942781315810721  0.7718813579043696  1.0000
  C   C27       1.0  0.3429561775426606  0.7611714453992988  0.903124455548017  1.0000
  C   C28       1.0  0.36598140891177877  0.8674484145269618  0.620304166276199  1.0000
  C   C29       1.0  0.2424274412382985  0.8439786298666548  0.7755671661755343  1.0000
  C   C30       1.0  0.3572027156797049  0.7953670484235074  0.8105284510506934  1.0000
  C   C31       1.0  0.2717681461245505  0.9427439335915012  0.7522157579254198  1.0000
  C   C32       1.0  0.3529775339504937  0.8416037752827845  0.7135781597573397  1.0000
  C   C33       1.0  0.3866088970253757  0.8950223013712277  0.7858943058291246  1.0000
  C   C34       1.0  0.3795173857274463  0.8927350529627632  0.43373854282623375  1.0000
  C   C35       1.0  0.46748610725089895  0.793131340359828  0.7485118671532547  1.0000
  C   C36       1.0  0.35392403045865006  0.7752741935241759  0.8604248681215907  1.0000
  C   C37       1.0  0.3560031326884925  0.8587346715637025  0.6634782801379941  1.0000
  C   C38       1.0  0.2582356162758828  0.2865095566548774  0.36157327490401053  1.0000
  C   C39       1.0  0.2385258301399844  0.31358802015185466  0.31221342730948004  1.0000
  C   C40       1.0  0.2122607921099657  0.3489960777539379  0.21031917602519462  1.0000
  C   C41       1.0  0.1169975416978204  0.354087814208789  0.23879920558182727  1.0000
  C   C42       1.0  0.1262839180623416  0.34030075884696487  0.2880909655355238  1.0000
  C   C43       1.0  0.2018190932314994  0.3639820017916477  0.15948834131727807  1.0000
  C   C44       1.0  0.2914331110086437  0.3748683579174141  0.1330800945073278  1.0000
  C   C45       1.0  0.39288362242557173  0.21887630741616707  0.4344255602433975  1.0000
  C   C46       1.0  0.4563904883798601  0.27209028833799914  0.35738500966815673  1.0000
  C   C47       1.0  0.4414430869893664  0.29607436516805297  0.3077646464646193  1.0000
  C   C48       1.0  0.332456110452199  0.31464263064145837  0.2843684788730982  1.0000
  C   C49       1.0  0.5341895228680329  0.2991562967431989  0.279658187959356  1.0000
  C   C50       1.0  0.5212103154548373  0.31682156983207227  0.2310977339199454  1.0000
  C   C51       1.0  0.4139390927012486  0.3347218080697942  0.2065691714634426  1.0000
  C   C52       1.0  0.31956763475425737  0.3328502281508108  0.2336817079737585  1.0000
  C   C53       1.0  0.3963954593484046  0.35818231059408134  0.15716258415460524  1.0000
  C   C54       1.0  0.3667825914394172  0.2646854501109175  0.3838842036829249  1.0000
  C   C55       1.0  0.7845077196471093  0.966304832259184  0.3567374056206845  1.0000
  C   C56       1.0  0.7114539898015977  0.8955498128117227  0.4302182529878706  1.0000
  C   C57       1.0  0.8156348710592454  0.9484359022838336  0.30696303155396987  1.0000
  C   C58       1.0  0.8763430060074028  0.9123643577744927  0.20748989096966847  1.0000
  C   C59       1.0  0.8691373854214675  0.017204229200785837  0.23290432679494444  1.0000
  C   C60       1.0  0.8408906478452636  0.03384879255507658  0.2804992794410097  1.0000
  C   C61       1.0  0.9086577262986778  0.8916836219025159  0.15900186474804198  1.0000
  C   C62       1.0  0.9169781054293865  0.7866827531880743  0.1355768395314243  1.0000
  C   C63       1.0  0.7596465654827966  0.7792305736357364  0.35485310250373914  1.0000
  C   C64       1.0  0.7918639503347223  0.7581860040125792  0.306755002136498  1.0000
  C   C65       1.0  0.8197088578314433  0.8444729488980302  0.2822756138770757  1.0000
  C   C66       1.0  0.7945612822356124  0.6557625945953378  0.2808179829126942  1.0000
  C   C67       1.0  0.23186790612133024  0.4302602527900277  0.7325878476986035  1.0000
  C   C68       1.0  0.8250239499811088  0.6375478352641436  0.2335574608329409  1.0000
  C   C69       1.0  0.8555623485287782  0.7206647205091345  0.2079722069549845  1.0000
  C   C70       1.0  0.8505670162392673  0.8258066089878612  0.23275723998209227  1.0000
  C   C71       1.0  0.8899132832847768  0.702366233575674  0.1597273580280358  1.0000
  C   C72       1.0  0.7543141869498556  0.880917680254633  0.3802442593572763  1.0000
  C   C73       1.0  0.450011593689915  0.7543341263338875  0.36293512669494277  1.0000
  C   C74       1.0  0.4456463591317359  0.7315844968635119  0.3139906219106193  1.0000
  C   C75       1.0  0.43648835868688013  0.6959286841524703  0.2132229841256859  1.0000
  C   C76       1.0  0.5375055779952193  0.6053591555909037  0.2425224590237036  1.0000
  C   C77       1.0  0.5386742824572579  0.6192784583226113  0.29151079796465496  1.0000
  C   C78       1.0  0.22043102723899471  0.3405255671167211  0.770059777315069  1.0000
  C   C79       1.0  0.4243449205643656  0.6768229645015896  0.16434992640115806  1.0000
  C   C80       1.0  0.32406908756451  0.7670823266215833  0.1371347270513397  1.0000
  C   C81       1.0  0.2634266956005575  0.9593856492364097  0.3555502897157652  1.0000
  C   C82       1.0  0.2555517819301798  0.9405793210088548  0.30637228098407115  1.0000
  C   C83       1.0  0.34782281628421435  0.826708639492665  0.2849867414609406  1.0000
  C   C84       1.0  0.15839581227791646  0.034287081610280316  0.2767149480183093  1.0000
  C   C85       1.0  0.1527231529781901  0.015419836437366986  0.22883262702054447  1.0000
  C   C86       1.0  0.2433498934076397  0.9019895785301628  0.2064770235264106  1.0000
  C   C87       1.0  0.3427007324930216  0.8082845254408895  0.2350771053845051  1.0000
  C   C88       1.0  0.23577800057599066  0.8799757566535362  0.15768978194645203  1.0000
  C   C89       1.0  0.2921760330720673  0.3961351629332981  0.8983261292274137  1.0000
  C   C90       1.0  0.360622496267574  0.8675102973821043  0.3833077035308392  1.0000
  C   C91       1.0  0.9509541970991505  0.7625287030626141  0.9480657974599822  1.0000
  C   C92       1.0  0.2724485424961856  0.43833704317027167  0.9471289750432418  1.0000
  C   C93       1.0  0.3071718089551397  0.7445656684512941  0.9502919832766279  1.0000
  C   C94       1.0  0.9633155988017703  0.7616127032835752  0.08564978448801949  1.0000
  C   C95       1.0  0.27306587565256274  0.4190760525484338  0.082333580262322  1.0000
  C   C96       1.0  0.3023147316047811  0.7405678639037633  0.0870575441349857  1.0000
  N   N1        1.0  0.0312874974208768  0.3475109238019628  0.3150733317895131  1.0000
  N   N2        1.0  0.7810085694789705  0.06561385082759591  0.3803731630293683  1.0000
  O   O1        1.0  0.7100047261050194  0.8087292918991831  0.5506954496613261  1.0000
  O   O2        1.0  0.3156288227505044  0.1982863581564089  0.4561358022707012  1.0000
  O   O3        1.0  0.49562187320317  0.1945865665493329  0.4530833407642234  1.0000
  O   O4        1.0  0.7002526524605629  0.9913807673068572  0.455025459908839  1.0000
  O   O5        1.0  0.5072666527735237  0.9818298334548743  0.5021958149980605  1.0000
  O   O6        1.0  0.2018905343577515  0.8279141818963182  0.9631692759028496  1.0000
  O   O7        1.0  0.9852587395763307  0.8377385225042532  0.962323696953085  1.0000
  O   O8        1.0  0.9642469823022919  0.6630830849421799  0.9706805538446232  1.0000
  O   O9        1.0  0.17025711516117073  0.46481680604127  0.9652782519082592  1.0000
  O   O10       1.0  0.3556679937103624  0.452165068713228  0.9676680087094809  1.0000
  O   O11       1.0  0.38268020811607784  0.644046109323014  0.9745502771791054  1.0000
  O   O12       1.0  0.5006327298694799  0.8047153129337659  0.5576926076075566  1.0000
  O   O13       1.0  0.20821430956418402  0.8251193509050267  0.0653667648676048  1.0000
  O   O14       1.0  0.9891815055213299  0.8396103429224696  0.0663844114532779  1.0000
  O   O15       1.0  0.9785322255766927  0.6592479395369896  0.0659114851998552  1.0000
  O   O16       1.0  0.1732279594895658  0.44700469716917024  0.06055250104977009  1.0000
  O   O17       1.0  0.3560306390453505  0.43620252096834394  0.0633372364117477  1.0000
  O   O18       1.0  0.378042705929694  0.6304882877300246  0.0699797711683985  1.0000
  O   O19       1.0  0.17116612725206443  0.6604212600533401  0.0163351584494862  1.0000
  O   O20       1.0  0.3113375189139802  0.9779563774227427  0.5472295232620823  1.0000
  O   O21       1.0  0.3117277225449016  0.18587353693067143  0.5507460895405742  1.0000
  O   O22       1.0  0.486513949575631  0.19530962996333287  0.5482922098747025  1.0000
  O   O23       1.0  0.6981291482703824  0.0020476753941878075  0.5501377385199078  1.0000
  O   O24       1.0  0.6841029210721743  0.8159826600651318  0.4468227201757387  1.0000
  O   O25       1.0  0.47519859063977776  0.8106576228699751  0.4555038943423781  1.0000
  O   O26       1.0  0.29987722008019085  0.0003269933408063349  0.4515439633830312  1.0000
  O   O27       1.0  0.9265358265120156  0.598174694518036  0.7183087790173914  1.0000
  O   O28       1.0  0.0744523905445078  0.6965599501699131  0.7843584444748473  1.0000
  O   O29       1.0  0.1049038800387407  0.36980892074787164  0.1359055370431648  1.0000
  O   O30       1.0  0.6348139484149797  0.5017992000879162  0.2226250348619701  1.0000
  O   O31       1.0  0.633942902568208  0.5250779786434377  0.3178875104914667  1.0000
  O   O32       1.0  0.5120357994937663  0.14516348654320416  0.8099754365346143  1.0000
  O   O33       1.0  0.680869496267114  0.6344046171903983  0.4991099434369772  1.0000
  O   O34       1.0  0.015354927263274497  0.008023318308993102  0.0158314634954309  1.0000
