data_image0
_chemical_formula_structural       Zn4H38C50N8O16
_chemical_formula_sum              "Zn4 H38 C50 N8 O16"
_cell_length_a       12.758604106988217
_cell_length_b       12.673688548489638
_cell_length_c       13.055628045738212
_cell_angle_alpha    68.36731129815719
_cell_angle_beta     66.09657004632633
_cell_angle_gamma    75.06070357630678

_space_group_name_H-M_alt    "P 1"
_space_group_IT_number       1

loop_
  _space_group_symop_operation_xyz
  'x, y, z'

loop_
  _atom_site_type_symbol
  _atom_site_label
  _atom_site_symmetry_multiplicity
  _atom_site_fract_x
  _atom_site_fract_y
  _atom_site_fract_z
  _atom_site_occupancy
  Zn  Zn1       1.0  0.22918187498325437  0.2903494226271022  0.40490015303470983  1.0000
  Zn  Zn2       1.0  0.7708202184505878  0.7096523090432567  0.5951004249290079  1.0000
  Zn  Zn3       1.0  0.7810202066367392  0.8225896411159325  0.043398127704392955  1.0000
  Zn  Zn4       1.0  0.21897880786823254  0.17740949080933893  0.9566015441432183  1.0000
  H   H1        1.0  0.5884870429255996  0.9921909106470822  0.390651454287756  1.0000
  H   H2        1.0  0.4115091771965566  0.0078099292194906  0.6093486926595517  1.0000
  H   H3        1.0  0.7400371163805702  0.8763069611343254  0.2662056254139386  1.0000
  H   H4        1.0  0.2599604760183709  0.12369646228422937  0.7337945721535062  1.0000
  H   H5        1.0  0.5865148123928348  0.9996496271249955  0.011896575729977547  1.0000
  H   H6        1.0  0.4134845403167161  0.000346930555274098  0.9881031360176208  1.0000
  H   H7        1.0  0.4295919779366598  0.124516025508818  0.1238657578874367  1.0000
  H   H8        1.0  0.5704093889466505  0.875484814734193  0.8761316007168245  1.0000
  H   H9        1.0  0.06843533840837782  0.46587925259447616  0.06754013249879158  1.0000
  H   H10       1.0  0.9315660169871263  0.5341216083069115  0.9324595210330316  1.0000
  H   H11       1.0  0.18697786254197263  0.3249903794689644  0.185059646498253  1.0000
  H   H12       1.0  0.8130234966827956  0.6750104745462976  0.8149392420577185  1.0000
  H   H13       1.0  0.08872871873396085  0.5164432591084207  0.41477720419196373  1.0000
  H   H14       1.0  0.9112728557491465  0.48355589710651264  0.5852237508996152  1.0000
  H   H15       1.0  0.9659332959626354  0.6647133366588847  0.3084816206018388  1.0000
  H   H16       1.0  0.03406741753589418  0.3352858252317432  0.6915204366934588  1.0000
  H   H17       1.0  0.03842647926631317  0.14544762760053942  0.7895402247455081  1.0000
  H   H18       1.0  0.9615737267692878  0.8545489381762862  0.21045991475008194  1.0000
  H   H19       1.0  0.9152011863528455  0.017870381262888195  0.9744686396220317  1.0000
  H   H20       1.0  0.08479645970462  0.9821261602242755  0.025530216629583394  1.0000
  H   H21       1.0  0.8461997118076069  0.8546960889286696  0.7900506912374892  1.0000
  H   H22       1.0  0.15379772282079068  0.14530214347269776  0.20994533350266661  1.0000
  H   H23       1.0  0.963700650536815  0.9751688343752462  0.5980195282536297  1.0000
  H   H24       1.0  0.036299340240446995  0.024829429201908195  0.4019785447063455  1.0000
  H   H25       1.0  0.24043152082219876  0.31259814521737894  0.6199000142000202  1.0000
  H   H26       1.0  0.7595713528206999  0.6873975959489442  0.38010244180734537  1.0000
  H   H27       1.0  0.36387626118744276  0.39123965756132867  0.6705164453210981  1.0000
  H   H28       1.0  0.636123495233903  0.6087535527211754  0.32949275432870445  1.0000
  H   H29       1.0  0.5329171745058899  0.545044386562303  0.2956456196699974  1.0000
  H   H30       1.0  0.46708122526786855  0.45495912758633494  0.7043641853556933  1.0000
  H   H31       1.0  0.40185477220597926  0.45703796145793524  0.2629041810721232  1.0000
  H   H32       1.0  0.5981436083726662  0.5429723726469505  0.7371000804866907  1.0000
  H   H33       1.0  0.5655511431267185  0.5507821020705633  0.07043503725815736  1.0000
  H   H34       1.0  0.434445826521589  0.4492195879065974  0.9295637391934832  1.0000
  H   H35       1.0  0.5839530797513957  0.6632342268245495  0.9327102401386114  1.0000
  H   H36       1.0  0.41604668045045656  0.33676576209744263  0.06728882618917714  1.0000
  H   H37       1.0  0.4705489113625631  0.6810090366278487  0.06322237782114126  1.0000
  H   H38       1.0  0.5294507450393907  0.3189917943081824  0.9367748902629882  1.0000
  C   C1        1.0  0.4053799061222278  0.13927228909600586  0.33717526723633284  1.0000
  C   C2        1.0  0.5946159911124269  0.8607310974710671  0.6628217799075599  1.0000
  C   C3        1.0  0.49857215115608966  0.06860668298757128  0.265112474686255  1.0000
  C   C4        1.0  0.5014249299506517  0.9313941512033066  0.7348865700573273  1.0000
  C   C5        1.0  0.5863590912585861  0.9980830801255466  0.30603132419684437  1.0000
  C   C6        1.0  0.4136398117879522  0.0019169075860148007  0.693968079358811  1.0000
  C   C7        1.0  0.6698316185883896  0.932438225480368  0.23812430319009073  1.0000
  C   C8        1.0  0.3301677919210774  0.0675643583450025  0.7618770181652792  1.0000
  C   C9        1.0  0.5835935797254947  0.0018248588619584995  0.09579763463726466  1.0000
  C   C10       1.0  0.4164079947576126  0.9981742973529747  0.9042033204543145  1.0000
  C   C11       1.0  0.49755321609627845  0.07084559931919901  0.1575162444120862  1.0000
  C   C12       1.0  0.5024455793210832  0.9291552372925269  0.8424821258757689  1.0000
  C   C13       1.0  0.9359700607038517  0.6630048055466914  0.11008839889251487  1.0000
  C   C14       1.0  0.06403267462696499  0.3369986251344272  0.8899097753077284  1.0000
  C   C15       1.0  0.00867182907400378  0.5772064857633694  0.17822382827882421  1.0000
  C   C16       1.0  0.9913295301507715  0.4227943682518925  0.8217750602771474  1.0000
  C   C17       1.0  0.07153480690237755  0.4806012138537882  0.14339625556665675  1.0000
  C   C18       1.0  0.9284665484931264  0.5193996470475993  0.8566033979651662  1.0000
  C   C19       1.0  0.13614730950290974  0.4013016898896281  0.20911651255053704  1.0000
  C   C20       1.0  0.8638549068771793  0.5986991653360575  0.7908820387775676  1.0000
  C   C21       1.0  0.08104985575167939  0.5084936157157003  0.3377428266759139  1.0000
  C   C22       1.0  0.9189501197085048  0.49150467540596304  0.6622583061874889  1.0000
  C   C23       1.0  0.013838702575753774  0.5912269596251178  0.2775017757633904  1.0000
  C   C24       1.0  0.98616276044892  0.40877305237610523  0.7224989110362329  1.0000
  C   C25       1.0  0.08190523038756937  0.1458071660044027  0.56276983389791  1.0000
  C   C26       1.0  0.9180992805709421  0.8541893713939221  0.43722479457907315  1.0000
  C   C27       1.0  0.010538594488807002  0.0710540183985842  0.6780600421198812  1.0000
  C   C28       1.0  0.9894650516558484  0.928942531561567  0.3219364535366794  1.0000
  C   C29       1.0  0.9969693897660787  0.08240579988354568  0.7857008403111434  1.0000
  C   C30       1.0  0.0030326611849317907  0.9175898780972034  0.2142950681413893  1.0000
  C   C31       1.0  0.929486187579549  0.011125737920103499  0.888704295175394  1.0000
  C   C32       1.0  0.07051391848542465  0.9888716629846357  0.11129328110067858  1.0000
  C   C33       1.0  0.8906992548175054  0.919728116820636  0.7857234978609281  1.0000
  C   C34       1.0  0.1093008627352674  0.0802692634257198  0.21427178348758244  1.0000
  C   C35       1.0  0.9562492610348342  0.9878927009553065  0.6788479123563673  1.0000
  C   C36       1.0  0.0437526707992006  0.0121038465839902  0.32114925775592695  1.0000
  C   C37       1.0  0.30625054788855255  0.3647946614304942  0.5509974319878949  1.0000
  C   C38       1.0  0.6937502732391464  0.6352036515599764  0.44900565857520275  1.0000
  C   C39       1.0  0.37632359003440996  0.4099120111528478  0.5782733112785576  1.0000
  C   C40       1.0  0.6236746404809992  0.5900863326369716  0.42173461584741984  1.0000
  C   C41       1.0  0.4611716350756366  0.47588726063094816  0.48738559128769776  1.0000
  C   C42       1.0  0.5388262457473871  0.524113678062257  0.5126245908658544  1.0000
  C   C43       1.0  0.4698224398432698  0.4941047446190369  0.37138320541662023  1.0000
  C   C44       1.0  0.5301764941983009  0.505901317440518  0.6286231625777956  1.0000
  C   C45       1.0  0.396345917733143  0.4457510200163881  0.35191010325490873  1.0000
  C   C46       1.0  0.6036539925807104  0.5542541736950498  0.648094665851886  1.0000
  C   C47       1.0  0.5606697185764346  0.6435035569379721  0.027754622602117324  1.0000
  C   C48       1.0  0.43932844260248777  0.356495566890743  0.9722446214975022  1.0000
  C   C49       1.0  0.6369655537117679  0.6939852569982748  0.056804590551138304  1.0000
  C   C50       1.0  0.36303528656227246  0.3060130215615615  0.9431946751326875  1.0000
  N   N1        1.0  0.6682358373031931  0.9334237694912274  0.13507771192502818  1.0000
  N   N2        1.0  0.33176466476626126  0.0665770833136108  0.8649215138588033  1.0000
  N   N3        1.0  0.14046547696824518  0.4146981848271381  0.30509339344829556  1.0000
  N   N4        1.0  0.8595359860564284  0.5853018271740851  0.6949072933513348  1.0000
  N   N5        1.0  0.8773128566401454  0.9309480822346361  0.889199965045499  1.0000
  N   N6        1.0  0.12268553511419358  0.0690493162492416  0.11079828568630748  1.0000
  N   N7        1.0  0.3158489721064511  0.38175010585138835  0.4396489732958597  1.0000
  N   N8        1.0  0.6841495697598959  0.6182524974219347  0.5603549802149387  1.0000
  O   O1        1.0  0.3466426854264811  0.22320390301818085  0.28115539252827654  1.0000
  O   O2        1.0  0.6533588736907916  0.7768020662668746  0.7188392541205674  1.0000
  O   O3        1.0  0.38821898517840486  0.11554301817421479  0.4439386657456266  1.0000
  O   O4        1.0  0.6117734796057233  0.8844603704372815  0.5560604952855855  1.0000
  O   O5        1.0  0.9361231781266708  0.6514912504501353  0.018942568921900837  1.0000
  O   O6        1.0  0.06388086785175061  0.3485087445239898  0.9810548112665599  1.0000
  O   O7        1.0  0.8741601593467009  0.7465563967635803  0.15189143002778835  1.0000
  O   O8        1.0  0.12584269510109888  0.2534461643589978  0.8481054825126932  1.0000
  O   O9        1.0  0.09740567136819318  0.12990485498092139  0.4685539549383578  1.0000
  O   O10       1.0  0.9025985745514831  0.8700934697373767  0.5314485516891382  1.0000
  O   O11       1.0  0.1246483278305917  0.22480381963168128  0.5693368662067685  1.0000
  O   O12       1.0  0.8753498371776017  0.7751952973109081  0.4306616129169924  1.0000
  O   O13       1.0  0.6456845372134052  0.6571754945749078  0.15658556692850573  1.0000
  O   O14       1.0  0.35431749842052795  0.3428202109503502  0.8434134014274477  1.0000
  O   O15       1.0  0.6902333130262688  0.7780941109759212  0.9744162659665317  1.0000
  O   O16       1.0  0.30976473286495576  0.22190587552522348  0.025583474816990324  1.0000
