data_image0
_chemical_formula_structural       AlH9C27Cl6O6
_chemical_formula_sum              "Al1 H9 C27 Cl6 O6"
_cell_length_a       4.013755401786295
_cell_length_b       16.116140243829065
_cell_length_c       16.11621522599898
_cell_angle_alpha    120.1553649608292
_cell_angle_beta     89.65785098562621
_cell_angle_gamma    89.65815961066541

_space_group_name_H-M_alt    "P 1"
_space_group_IT_number       1

loop_
  _space_group_symop_operation_xyz
  'x, y, z'

loop_
  _atom_site_type_symbol
  _atom_site_label
  _atom_site_symmetry_multiplicity
  _atom_site_fract_x
  _atom_site_fract_y
  _atom_site_fract_z
  _atom_site_occupancy
  Al  Al1       1.0  0.9999838058135777  0.5000184096994217  0.4998895128564128  1.0000
  H   H1        1.0  0.5001054590034641  0.9218672216445897  0.07800631501267925  1.0000
  H   H2        1.0  0.4667324908555769  0.6554603801438147  0.07790858060013756  1.0000
  H   H3        1.0  0.5331801957334789  0.9220290092596458  0.34444094606835307  1.0000
  H   H4        1.0  0.7409415601405697  0.055118859723798194  0.1566928608620017  1.0000
  H   H5        1.0  0.26697850883765983  0.05595505553031191  0.3990984310849228  1.0000
  H   H6        1.0  0.25915482853760347  0.8431868468370921  0.9447888087618708  1.0000
  H   H7        1.0  0.732857675597323  0.6007456093590092  0.9439389083565644  1.0000
  H   H8        1.0  0.7444885263104907  0.6020658322413369  0.15728982277078526  1.0000
  H   H9        1.0  0.2554838968862043  0.8426451352148374  0.397853551523667  1.0000
  C   C1        1.0  0.4968060550939057  0.5730696503198728  0.6473303998252079  1.0000
  C   C2        1.0  0.49997786288209056  0.5735854770830359  0.42635695121896333  1.0000
  C   C3        1.0  0.5031616641891788  0.35258102025939314  0.4268212489603016  1.0000
  C   C4        1.0  0.49495669603945897  0.7823104493058038  0.06533387417326238  1.0000
  C   C5        1.0  0.5000889408915299  0.8828959764226029  0.11699913580449811  1.0000
  C   C6        1.0  0.5051438960999944  0.9345669825946742  0.21756798821596837  1.0000
  C   C7        1.0  0.5108828201522327  0.88323165051861  0.266582790738255  1.0000
  C   C8        1.0  0.499991309987486  0.7827179616007953  0.21719087736965284  1.0000
  C   C9        1.0  0.48913114781532835  0.7333288630751014  0.11669810401686212  1.0000
  C   C10       1.0  0.62505918427545  0.1919924121486716  0.27853354757545656  1.0000
  C   C11       1.0  0.6313637344681665  0.0920533035654287  0.2284288411462114  1.0000
  C   C12       1.0  0.5059170300787414  0.04083087981140918  0.2707624735570846  1.0000
  C   C13       1.0  0.3778739414482429  0.09264774586125671  0.3647122982622549  1.0000
  C   C14       1.0  0.3820798003580634  0.19263639598973004  0.4151043667207546  1.0000
  C   C15       1.0  0.5036905229896859  0.24455181486955266  0.373092653545207  1.0000
  C   C16       1.0  0.36866668461379964  0.7714374836639523  0.9078515352704387  1.0000
  C   C17       1.0  0.3749185837203227  0.7213444347303051  0.8079169052902982  1.0000
  C   C18       1.0  0.49624458251287246  0.6267740801741297  0.7553469773483742  1.0000
  C   C19       1.0  0.6178162192340936  0.5847575626890914  0.8072616499776543  1.0000
  C   C20       1.0  0.6220225739246317  0.63513815074554  0.9072510312535442  1.0000
  C   C21       1.0  0.49408147618495235  0.7291067534595966  0.9590719488918609  1.0000
  C   C22       1.0  0.6325233950339565  0.6367186891229436  0.22870113369319967  1.0000
  C   C23       1.0  0.6322095435414069  0.5866970997378973  0.27841536356333313  1.0000
  C   C24       1.0  0.4999945860662294  0.6271755594450211  0.37275561134195095  1.0000
  C   C25       1.0  0.36775971291403653  0.7215257283581948  0.4132341512813866  1.0000
  C   C26       1.0  0.36748240318289754  0.7712191112924386  0.3631983814535856  1.0000
  C   C27       1.0  0.4999742884434183  0.729803887805346  0.2701338524273992  1.0000
  Cl  Cl1       1.0  0.22978007554056745  0.25315863843972153  0.5314480941427959  1.0000
  Cl  Cl2       1.0  0.7750280167672657  0.2518936031490711  0.222651630331633  1.0000
  Cl  Cl3       1.0  0.22500233382417176  0.7772263567241423  0.7480110165149155  1.0000
  Cl  Cl4       1.0  0.7701182181849261  0.46841094956879914  0.746739732586768  1.0000
  Cl  Cl5       1.0  0.7926993070426107  0.47131423504821873  0.21581858686907648  1.0000
  Cl  Cl6       1.0  0.20729777299516877  0.7841303307616767  0.5286180133797415  1.0000
  O   O1        1.0  0.2663979225717624  0.39392813248701936  0.4093515979336431  1.0000
  O   O2        1.0  0.2612570279721709  0.5148732454744619  0.6059834522143676  1.0000
  O   O3        1.0  0.2617300721896711  0.5898075961275141  0.4851156529263748  1.0000
  O   O4        1.0  0.7386560405250363  0.39390386679471595  0.4850042366700293  1.0000
  O   O5        1.0  0.7382538264561161  0.5148020895755819  0.4101202296773749  1.0000
  O   O6        1.0  0.7335493110500194  0.5905423706840054  0.605983858229962  1.0000
