data_image0
_chemical_formula_structural       FeH20PtC32N8O2
_chemical_formula_sum              "Fe1 H20 Pt1 C32 N8 O2"
_cell_length_a       7.507690965353068
_cell_length_b       8.698977742587124
_cell_length_c       11.987312564542325
_cell_angle_alpha    105.91993902328444
_cell_angle_beta     100.28696550857103
_cell_angle_gamma    103.90421883060235

_space_group_name_H-M_alt    "P 1"
_space_group_IT_number       1

loop_
  _space_group_symop_operation_xyz
  'x, y, z'

loop_
  _atom_site_type_symbol
  _atom_site_label
  _atom_site_symmetry_multiplicity
  _atom_site_fract_x
  _atom_site_fract_y
  _atom_site_fract_z
  _atom_site_occupancy
  Fe  Fe1       1.0  0.500001092832342  0.5000027031776071  0.999998526259524  1.0000
  H   H1        1.0  0.867654249350707  0.5303786891046582  0.9314227938575708  1.0000
  H   H2        1.0  0.13234751960531804  0.4696230800382322  0.06857602080780364  1.0000
  H   H3        1.0  0.0288543445994875  0.3515710508022778  0.8175346808464636  1.0000
  H   H4        1.0  0.9711456677695126  0.6484294808631716  0.18246282973327496  1.0000
  H   H5        1.0  0.5315789020278386  0.9278487934693656  0.747875580979709  1.0000
  H   H6        1.0  0.4684209683243878  0.07215162954189218  0.25212606204427596  1.0000
  H   H7        1.0  0.3886203318931507  0.12456825498180278  0.8591584880819735  1.0000
  H   H8        1.0  0.6113799969523369  0.8754334450941741  0.1408426408278273  1.0000
  H   H9        1.0  0.529886114825942  0.9003914639637215  0.5405172134367359  1.0000
  H   H10       1.0  0.4701228949497178  0.09960779602699428  0.45948279430085376  1.0000
  H   H11       1.0  0.7090696812330677  0.7525912487936492  0.41556169226205936  1.0000
  H   H12       1.0  0.29092254546619495  0.24739427630900215  0.5844292599109193  1.0000
  H   H13       1.0  0.2467590487917377  0.3217953646366921  0.26145976440926677  1.0000
  H   H14       1.0  0.7532280023273472  0.6781988810949927  0.7385340360313603  1.0000
  H   H15       1.0  0.04488231110957486  0.45030889048088335  0.3761410407547031  1.0000
  H   H16       1.0  0.9551135307686421  0.5496877370491118  0.6238601611899096  1.0000
  H   H17       1.0  0.2833303998213309  0.5964210970839259  0.8490489770670632  1.0000
  H   H18       1.0  0.7166689679862016  0.40358563830958616  0.15095224440830882  1.0000
  H   H19       1.0  0.400417064746307  0.4954625962049163  0.7759889894853482  1.0000
  H   H20       1.0  0.5995748182198852  0.5045379122141181  0.22400752976168536  1.0000
  Pt  Pt1       1.0  0.9999979860911735  6.988386694202465e-06  0.9999991784320978  1.0000
  C   C1        1.0  0.7968867737397431  0.3966187041464905  0.8890912553573213  1.0000
  C   C2        1.0  0.20311326703261298  0.6033818492497928  0.11090542873356664  1.0000
  C   C3        1.0  0.8865527226330129  0.2962819314086005  0.8247099986510943  1.0000
  C   C4        1.0  0.11344942743023971  0.7037172440175963  0.1752916624424613  1.0000
  C   C5        1.0  0.7939031949068963  0.12255583674328108  0.7701520575375792  1.0000
  C   C6        1.0  0.2061027033812763  0.8774421818955886  0.22984648089226298  1.0000
  C   C7        1.0  0.6109082635552031  0.0609927058786681  0.784734706351706  1.0000
  C   C8        1.0  0.389093420190754  0.9390089980717132  0.21526658778021343  1.0000
  C   C9        1.0  0.5300307531099051  0.17133559863086834  0.8486957842830233  1.0000
  C   C10       1.0  0.4699722571331648  0.8286660874630769  0.15130650155986555  1.0000
  C   C11       1.0  0.8857245698076851  0.020502141759450893  0.7047077282271558  1.0000
  C   C12       1.0  0.11428219648433911  0.9794945819582775  0.29529231602783995  1.0000
  C   C13       1.0  0.9753507097872781  0.9415641966514696  0.6484160747969338  1.0000
  C   C14       1.0  0.024644166121746004  0.0584260276985233  0.35158868942957594  1.0000
  C   C15       1.0  0.07356104830786588  0.854252654504158  0.5876122389709121  1.0000
  C   C16       1.0  0.9264434382731325  0.14574531679863867  0.4123877872145129  1.0000
  C   C17       1.0  0.16232870926963014  0.7733635480525222  0.5321184803593508  1.0000
  C   C18       1.0  0.837679205275336  0.22663683301264825  0.4678866334638909  1.0000
  C   C19       1.0  0.27058261960370794  0.688294148709076  0.46873220787157494  1.0000
  C   C20       1.0  0.7294159888821599  0.31170253003140397  0.5312676715395737  1.0000
  C   C21       1.0  0.4623201913017354  0.7719769659170621  0.4800527452327257  1.0000
  C   C22       1.0  0.5376819871648736  0.22802223123996157  0.5199480893719792  1.0000
  C   C23       1.0  0.562152502847738  0.6892810716011011  0.41082940052955735  1.0000
  C   C24       1.0  0.4378407428429584  0.31071563510343475  0.5891681650154224  1.0000
  C   C25       1.0  0.3052751823662589  0.4492869525089559  0.32533681096875694  1.0000
  C   C26       1.0  0.6947186716585209  0.5507073343255797  0.6746569890936055  1.0000
  C   C27       1.0  0.19241064287869847  0.5210982523557274  0.3900201184727193  1.0000
  C   C28       1.0  0.8075861238100829  0.4788971237147947  0.6099809363193527  1.0000
  C   C29       1.0  0.20352096431970068  0.19683509299597546  0.007648913666855561  1.0000
  C   C30       1.0  0.7964724529379056  0.8031779175513307  0.9923520518602867  1.0000
  C   C31       1.0  0.875550932536946  0.15046940067452397  0.08957244159118716  1.0000
  C   C32       1.0  0.12445644323592826  0.8495410766309559  0.9104321960964651  1.0000
  N   N1        1.0  0.6197225738465519  0.33864691330994384  0.9019657962049759  1.0000
  N   N2        1.0  0.38027953998930997  0.6613560459743082  0.09803581030160996  1.0000
  N   N3        1.0  0.3186775251199093  0.3144358503216011  0.006740414187959169  1.0000
  N   N4        1.0  0.6813254772991187  0.6855696413612405  0.9932609905791022  1.0000
  N   N5        1.0  0.8026675005927402  0.24089750004198854  0.14220353674533462  1.0000
  N   N6        1.0  0.1973290800278206  0.7591053568213081  0.8578007148281865  1.0000
  N   N7        1.0  0.4859887871535875  0.5313836173097498  0.3334746488198304  1.0000
  N   N8        1.0  0.5140075700246031  0.4686143307466323  0.666524386032897  1.0000
  O   O1        1.0  0.32209549567363643  0.4908750628099696  0.8367064274855307  1.0000
  O   O2        1.0  0.6779052270343583  0.5091316764579472  0.16329495921196005  1.0000
