data_image0
_chemical_formula_structural       Zn4H80C132N8O16F24
_chemical_formula_sum              "Zn4 H80 C132 N8 O16 F24"
_cell_length_a       7.1476763091572835
_cell_length_b       21.99578743566733
_cell_length_c       23.61826743948346
_cell_angle_alpha    90.00062077182449
_cell_angle_beta     90.00038991149097
_cell_angle_gamma    90.00064708135697

_space_group_name_H-M_alt    "P 1"
_space_group_IT_number       1

loop_
  _space_group_symop_operation_xyz
  'x, y, z'

loop_
  _atom_site_type_symbol
  _atom_site_label
  _atom_site_symmetry_multiplicity
  _atom_site_fract_x
  _atom_site_fract_y
  _atom_site_fract_z
  _atom_site_occupancy
  Zn  Zn1       1.0  0.5191913933562232  0.29406478593553226  0.8221707075973369  1.0000
  Zn  Zn2       1.0  0.5191717077091909  0.705937623039162  0.1778333923645263  1.0000
  Zn  Zn3       1.0  0.48081936282660814  0.2059340163471788  0.32217292213441334  1.0000
  Zn  Zn4       1.0  0.4808292960957487  0.7940641592128728  0.6778294048085484  1.0000
  H   H1        1.0  0.73656305171734  0.6496144198974034  0.5518692372940706  1.0000
  H   H2        1.0  0.7365679186079034  0.3503819727030617  0.4481319253784903  1.0000
  H   H3        1.0  0.26345611953519915  0.850379528874036  0.0518707625843007  1.0000
  H   H4        1.0  0.26343026615370485  0.1496151157706365  0.9481315377981189  1.0000
  H   H5        1.0  0.4902352996248282  0.5725459145495504  0.5327414505084889  1.0000
  H   H6        1.0  0.49024465400350437  0.42744911332744806  0.4672536980890952  1.0000
  H   H7        1.0  0.5097848427690366  0.927447356601085  0.0327484955761363  1.0000
  H   H8        1.0  0.509749761468491  0.0725468342293922  0.967259395468126  1.0000
  H   H9        1.0  0.45136311818114194  0.4841947537498826  0.5968980847541872  1.0000
  H   H10       1.0  0.4513698899766537  0.5157978573500088  0.403097830171582  1.0000
  H   H11       1.0  0.5486593863524546  0.0157991488086395  0.09690106588828938  1.0000
  H   H12       1.0  0.5486165671042186  0.9841997319165897  0.9031001312182809  1.0000
  H   H13       1.0  0.9000637133917662  0.5511112776500298  0.7014281452171075  1.0000
  H   H14       1.0  0.9000658364800315  0.4488857190047212  0.2985733558756181  1.0000
  H   H15       1.0  0.09995040983854858  0.9488921436205755  0.20142270262030587  1.0000
  H   H16       1.0  0.0999331991646173  0.0511109895455704  0.7985678275541443  1.0000
  H   H17       1.0  0.8336833132656382  0.7288087221077503  0.6071701518447625  1.0000
  H   H18       1.0  0.8336968003476741  0.2711812098577013  0.39283502243719676  1.0000
  H   H19       1.0  0.16631750849407465  0.7711858714053716  0.10716983198140177  1.0000
  H   H20       1.0  0.16631693578689516  0.22881341535146038  0.8928305737849769  1.0000
  H   H21       1.0  0.09497055060625569  0.8000320140520997  0.625928530826954  1.0000
  H   H22       1.0  0.09499375083018438  0.1999683730422673  0.37407003368855374  1.0000
  H   H23       1.0  0.9050306909761402  0.6999664352664039  0.1259332569485281  1.0000
  H   H24       1.0  0.9050461476818299  0.3000337621912194  0.8740682544549544  1.0000
  H   H25       1.0  0.42620388488458627  0.6640824444490646  0.6938252102579058  1.0000
  H   H26       1.0  0.42620787437957824  0.3359205302539649  0.30617276964702705  1.0000
  H   H27       1.0  0.573805871159088  0.8359240706127053  0.1938229983230002  1.0000
  H   H28       1.0  0.5737885334055334  0.16408308643949  0.8061765572964319  1.0000
  H   H29       1.0  0.18473640683169631  0.5846880447119317  0.6741042318774362  1.0000
  H   H30       1.0  0.18473238576274298  0.415304490573071  0.32589155456362556  1.0000
  H   H31       1.0  0.8152785040684591  0.9153127848135153  0.17409908503407934  1.0000
  H   H32       1.0  0.8152574678082087  0.0846898087591583  0.825898853362503  1.0000
  H   H33       1.0  0.34467994195907187  0.4556650374039749  0.6807968722290098  1.0000
  H   H34       1.0  0.34467183100466775  0.5443280888155755  0.3192034792789115  1.0000
  H   H35       1.0  0.6553290501678575  0.04433393503381919  0.1807973976155068  1.0000
  H   H36       1.0  0.6553337348127356  0.9556667037791797  0.819205290541305  1.0000
  H   H37       1.0  0.3017379613802618  0.36877325497173524  0.7476183960222967  1.0000
  H   H38       1.0  0.30172575879237234  0.6312183486944318  0.2523822899918429  1.0000
  H   H39       1.0  0.6982809200926495  0.13122195027685277  0.2476198850921421  1.0000
  H   H40       1.0  0.6982727156891924  0.86877430087209  0.752382468531593  1.0000
  H   H41       1.0  0.8697536662385446  0.3643550361238609  0.7844095518918478  1.0000
  H   H42       1.0  0.8697337978399557  0.6356445762839582  0.215588499245726  1.0000
  H   H43       1.0  0.13026603847914228  0.13564059813410978  0.2844175309651433  1.0000
  H   H44       1.0  0.13025545914816658  0.8643535544728848  0.7155861873529759  1.0000
  H   H45       1.0  0.9359703329935486  0.4495092661203586  0.7193057816309433  1.0000
  H   H46       1.0  0.9359531787093259  0.5504924094476635  0.2806898661711372  1.0000
  H   H47       1.0  0.06405071317777809  0.050489246076125496  0.219306838731363  1.0000
  H   H48       1.0  0.06404313118772359  0.9495101174544586  0.7806903915448161  1.0000
  H   H49       1.0  0.7167423384910875  0.16287403872028247  0.652039652084035  1.0000
  H   H50       1.0  0.7167253918970217  0.8371163704111311  0.3479652801198937  1.0000
  H   H51       1.0  0.28325481781705963  0.3371282354510824  0.1520389679184575  1.0000
  H   H52       1.0  0.28325983152630835  0.662878757458074  0.8479604097305966  1.0000
  H   H53       1.0  0.8617006071572105  0.246976186100234  0.7071484167573557  1.0000
  H   H54       1.0  0.8617061062665812  0.7530170317692251  0.29285342831548883  1.0000
  H   H55       1.0  0.13827959453444547  0.25303127692142613  0.2071495496441003  1.0000
  H   H56       1.0  0.1382876775717889  0.7469801813592409  0.7928537619661356  1.0000
  H   H57       1.0  0.35999749795108466  0.14098053821327738  0.727777158306445  1.0000
  H   H58       1.0  0.3599922043439533  0.8590231011751256  0.2722274589730134  1.0000
  H   H59       1.0  0.6399817661269934  0.35902443750224927  0.22777277554764905  1.0000
  H   H60       1.0  0.6399983200119976  0.6409802363167217  0.7722286106721086  1.0000
  H   H61       1.0  0.21924900202213848  0.056491971224460286  0.6744259339380746  1.0000
  H   H62       1.0  0.2192226356696452  0.9435079656647501  0.3255728877602023  1.0000
  H   H63       1.0  0.7807486551038137  0.443510563933124  0.1744201527202165  1.0000
  H   H64       1.0  0.7807480962957526  0.5564905381784085  0.8255726334058479  1.0000
  H   H65       1.0  0.5035817668389697  0.0260388329355337  0.5784308878770331  1.0000
  H   H66       1.0  0.5035488060056392  0.9739539709999078  0.4215625946862644  1.0000
  H   H67       1.0  0.49642073789695473  0.47396212841236  0.0784383735641185  1.0000
  H   H68       1.0  0.49643946329443617  0.5260461067189652  0.9215639857309127  1.0000
  H   H69       1.0  0.36327865779204427  0.07179547205625877  0.492715540866115  1.0000
  H   H70       1.0  0.36324603525604715  0.9282013598744496  0.5072818853238559  1.0000
  H   H71       1.0  0.6367373133242679  0.42820577338778776  0.9927238115398253  1.0000
  H   H72       1.0  0.6367469555374752  0.5718029801415127  0.0072805317854048  1.0000
  H   H73       1.0  0.8528379822498664  0.18145495941283935  0.46840279237392923  1.0000
  H   H74       1.0  0.8528133108116974  0.8185559563500672  0.531603268423403  1.0000
  H   H75       1.0  0.14717604582831004  0.31855509511701996  0.9683966671200038  1.0000
  H   H76       1.0  0.14716903167394688  0.6814468486942289  0.031602005429022  1.0000
  H   H77       1.0  0.9922961363840981  0.13902078227479106  0.555692360459993  1.0000
  H   H78       1.0  0.9922835682243232  0.860984738504001  0.4443110251709967  1.0000
  H   H79       1.0  0.007703061342510899  0.36098218701350493  0.0556837248784987  1.0000
  H   H80       1.0  0.007712205325702801  0.6390156044620525  0.9443116951722103  1.0000
  C   C1        1.0  0.8382730938050855  0.6045332326059307  0.627157872707258  1.0000
  C   C2        1.0  0.8382764334180377  0.39546399038346175  0.37284138348584855  1.0000
  C   C3        1.0  0.1617267761870238  0.8954684134218879  0.1271541371472154  1.0000
  C   C4        1.0  0.16171167246024248  0.10453312948038022  0.8728411783004191  1.0000
  C   C5        1.0  0.7185680458429217  0.6110617161844586  0.5803745024782713  1.0000
  C   C6        1.0  0.7185722067965301  0.3889346099216057  0.4196249293421346  1.0000
  C   C7        1.0  0.28144896506536543  0.8889325649354801  0.08037475955128309  1.0000
  C   C8        1.0  0.28141554680757247  0.11106396469556049  0.9196267312729135  1.0000
  C   C9        1.0  0.5802886755260417  0.5678499429667809  0.5697700617357953  1.0000
  C   C10       1.0  0.5802847719990679  0.43214223516869765  0.43022612003183974  1.0000
  C   C11       1.0  0.41973509340986936  0.9321428506436359  0.0697735804782837  1.0000
  C   C12       1.0  0.41970042063091745  0.0678528259933415  0.9302286199713661  1.0000
  C   C13       1.0  0.5577704191666655  0.5183670012201276  0.606006570983169  1.0000
  C   C14       1.0  0.5577646150169072  0.48162463908725783  0.3939899875717146  1.0000
  C   C15       1.0  0.44224716523039825  0.981627124127911  0.1060068239097518  1.0000
  C   C16       1.0  0.44222396401756464  0.018369999577267  0.893991612545662  1.0000
  C   C17       1.0  0.6738351258200906  0.511402068996716  0.6536968603663382  1.0000
  C   C18       1.0  0.6738438848116458  0.4885931825903071  0.34630332566566585  1.0000
  C   C19       1.0  0.3261821265583719  0.9885917031465608  0.1536990601825536  1.0000
  C   C20       1.0  0.32616881028612704  0.011404082512605397  0.8463004062437136  1.0000
  C   C21       1.0  0.814095550725888  0.5546565763485346  0.6634468799897135  1.0000
  C   C22       1.0  0.8140998002201271  0.44533919341770195  0.3365519027523263  1.0000
  C   C23       1.0  0.18591212641606344  0.9453409464894874  0.1634441200099062  1.0000
  C   C24       1.0  0.1859000852134827  0.05465659408942971  0.8365529390848535  1.0000
  C   C25       1.0  0.9869740684299513  0.6494753593688145  0.6382716844479006  1.0000
  C   C26       1.0  0.9869868004156928  0.35052332230898026  0.36173211356010176  1.0000
  C   C27       1.0  0.013030247342037202  0.8505236884527676  0.1382676120251034  1.0000
  C   C28       1.0  0.013020643681962  0.1494754865721077  0.8617286658417528  1.0000
  C   C29       1.0  0.9640612383098455  0.7110988550303858  0.6245664779015883  1.0000
  C   C30       1.0  0.9640735485530881  0.2888997419572945  0.3754309216634582  1.0000
  C   C31       1.0  0.035938573644934  0.7888973052119964  0.1245660664832187  1.0000
  C   C32       1.0  0.035938399254874305  0.21109740816311265  0.8754340693972082  1.0000
  C   C33       1.0  0.10696394490918239  0.7519469804894783  0.6363443912140098  1.0000
  C   C34       1.0  0.10696618712239567  0.24804935918859167  0.363655044885995  1.0000
  C   C35       1.0  0.8930431259033326  0.7480511356349382  0.13634618941740229  1.0000
  C   C36       1.0  0.8930524924641502  0.251948562885481  0.8636544503627803  1.0000
  C   C37       1.0  0.29275909236243086  0.6753928850871559  0.6740967556507369  1.0000
  C   C38       1.0  0.2927533392760536  0.3246027770909804  0.3259005245970386  1.0000
  C   C39       1.0  0.7072460250329656  0.8246088536185637  0.1740951294259929  1.0000
  C   C40       1.0  0.7072477069595207  0.175394704773403  0.8259042789934979  1.0000
  C   C41       1.0  0.15711973416264158  0.6319769850916118  0.6632077910854832  1.0000
  C   C42       1.0  0.15712411787158226  0.36801817600027675  0.3367925956273509  1.0000
  C   C43       1.0  0.8428823414039428  0.8680228080896271  0.1632013784879049  1.0000
  C   C44       1.0  0.8428771719972941  0.13197806894105918  0.8367923830411215  1.0000
  C   C45       1.0  0.6452743564529513  0.4603083729191297  0.6933307255376491  1.0000
  C   C46       1.0  0.6452727999795796  0.539683590677754  0.306665167340114  1.0000
  C   C47       1.0  0.35473771420126354  0.03968619936959779  0.19333650959026016  1.0000
  C   C48       1.0  0.35472828816001106  0.9603128742437474  0.806666403170702  1.0000
  C   C49       1.0  0.46583110722043836  0.436290311866358  0.7021087935669357  1.0000
  C   C50       1.0  0.46582738552281455  0.56370598975883  0.29789265552702904  1.0000
  C   C51       1.0  0.5341769627056295  0.0637089090676781  0.2021109568555701  1.0000
  C   C52       1.0  0.5341707082720859  0.9362940099241471  0.797892327338296  1.0000
  C   C53       1.0  0.4394375146240676  0.3887554713229305  0.7397289833477457  1.0000
  C   C54       1.0  0.4394192026239523  0.6112420966656416  0.2602732579091835  1.0000
  C   C55       1.0  0.5605853875616089  0.11124282437784666  0.23973125644775448  1.0000
  C   C56       1.0  0.5605836456966033  0.8887574644015928  0.7602733526019705  1.0000
  C   C57       1.0  0.7564316386097187  0.38611567638474736  0.7611868415816687  1.0000
  C   C58       1.0  0.7564101394888993  0.6138812441948858  0.23881266858669647  1.0000
  C   C59       1.0  0.24358894549784788  0.1138774139252234  0.26119144891092105  1.0000
  C   C60       1.0  0.2435894304795028  0.8861148842055397  0.738810810365102  1.0000
  C   C61       1.0  0.7923290291094032  0.43383921046271445  0.7241649283159289  1.0000
  C   C62       1.0  0.792315105026617  0.5661537510379303  0.275830422131321  1.0000
  C   C63       1.0  0.2076879285243365  0.0661511750241033  0.2241706744593301  1.0000
  C   C64       1.0  0.20768389416225827  0.9338437182482975  0.7758302403125229  1.0000
  C   C65       1.0  0.8590815073445268  0.052873538440323394  0.6254826829666696  1.0000
  C   C66       1.0  0.8590857410579532  0.947123761405969  0.37451280568807016  1.0000
  C   C67       1.0  0.14090945855782883  0.44712842608080905  0.1254828116370987  1.0000
  C   C68       1.0  0.14092386041127722  0.5528766770133229  0.8745103437650955  1.0000
  C   C69       1.0  0.9570460640839471  0.10352497799965478  0.6591510466030924  1.0000
  C   C70       1.0  0.9570477959741195  0.8964726838029193  0.34084930223359317  1.0000
  C   C71       1.0  0.0429442560266793  0.3964764698032325  0.15914919234761976  1.0000
  C   C72       1.0  0.042951258890582295  0.6035255435707327  0.8408479942700424  1.0000
  C   C73       1.0  0.8575308498623712  0.15759429590968208  0.6690317034532071  1.0000
  C   C74       1.0  0.8575207007171243  0.8424025435880722  0.3309705563920318  1.0000
  C   C75       1.0  0.1424540951359177  0.34240817636560184  0.1690320512251517  1.0000
  C   C76       1.0  0.1424697387371481  0.6575932954219113  0.8309687285766856  1.0000
  C   C77       1.0  0.9380658724541461  0.20489004219295742  0.6995198666287337  1.0000
  C   C78       1.0  0.938057605610332  0.7951066402253131  0.30048425351648683  1.0000
  C   C79       1.0  0.061926750037578394  0.29511505875224486  0.19952253537081077  1.0000
  C   C80       1.0  0.06193494987851979  0.7048897526023552  0.8004835819756052  1.0000
  C   C81       1.0  0.11980288110306958  0.19917983467868078  0.7208639098191014  1.0000
  C   C82       1.0  0.1197789440909744  0.8008124606923913  0.279135552807972  1.0000
  C   C83       1.0  0.8801790264676794  0.3008268789803664  0.2208619787034678  1.0000
  C   C84       1.0  0.8802047393617229  0.6991814100387828  0.7791348239005202  1.0000
  C   C85       1.0  0.21842830204054306  0.14526736525555614  0.7113118120776888  1.0000
  C   C86       1.0  0.21841623336865007  0.8547284769403233  0.2886878547182192  1.0000
  C   C87       1.0  0.7815659833180317  0.35474196482508796  0.21130598561849465  1.0000
  C   C88       1.0  0.7815676638902432  0.6452695968653116  0.7886880724575319  1.0000
  C   C89       1.0  0.1381618946547647  0.09767610914069279  0.6809612530444012  1.0000
  C   C90       1.0  0.13815354704445326  0.902319436517267  0.3190386710164502  1.0000
  C   C91       1.0  0.8618387068989788  0.4023301392974118  0.18095818885939963  1.0000
  C   C92       1.0  0.8618366255195368  0.5976789911813398  0.8190394225607207  1.0000
  C   C93       1.0  0.20666033267880124  0.2503022493129378  0.7539001265152693  1.0000
  C   C94       1.0  0.20663808891552543  0.7496940040243842  0.2461003627165468  1.0000
  C   C95       1.0  0.7933111216348505  0.24970666804666308  0.2538983477309102  1.0000
  C   C96       1.0  0.7933630431861545  0.7503035732466897  0.7460982751074922  1.0000
  C   C97       1.0  0.7577015950351224  0.07988458587080768  0.5738332861689415  1.0000
  C   C98       1.0  0.7576892632968112  0.9201155218452187  0.4261662266535635  1.0000
  C   C99       1.0  0.24229940771943595  0.42011586720965244  0.07383631654794699  1.0000
  C   C100      1.0  0.24230610428771374  0.5798868827061411  0.9261642465136503  1.0000
  C   C101      1.0  0.5806519174449392  0.060960984134226175  0.5556830734745829  1.0000
  C   C102      1.0  0.5806294525539569  0.9390384694142923  0.4443105686558226  1.0000
  C   C103      1.0  0.41935007836689653  0.4390428944020357  0.05568920126164299  1.0000
  C   C104      1.0  0.4193663210382751  0.5609659652295206  0.9443096113014845  1.0000
  C   C105      1.0  0.5010581113630364  0.0862199364621716  0.5071791370455969  1.0000
  C   C106      1.0  0.5010358597510559  0.9137801323067195  0.49281730414937636  1.0000
  C   C107      1.0  0.49895119353560347  0.41378292191578214  0.007184751878242  1.0000
  C   C108      1.0  0.4989568019606451  0.5862239586377171  0.9928167658318614  1.0000
  C   C109      1.0  0.5980732523269053  0.12966188549090418  0.4754760298768516  1.0000
  C   C110      1.0  0.5980558066721997  0.8703430880503759  0.5245227291588748  1.0000
  C   C111      1.0  0.40194233307609295  0.37034188672070206  0.9754806915819856  1.0000
  C   C112      1.0  0.40194456517632904  0.6296614530133977  0.024523589121699295  1.0000
  C   C113      1.0  0.7755888110219116  0.1483931778856942  0.4935144641995208  1.0000
  C   C114      1.0  0.7755605217052802  0.8516083597907809  0.5064863558405648  1.0000
  C   C115      1.0  0.22442857691771684  0.3516067129345472  0.9935151826668687  1.0000
  C   C116      1.0  0.224431052213248  0.6483932431662963  0.006487460391980398  1.0000
  C   C117      1.0  0.8540172217702705  0.12403530650880155  0.542271174404604  1.0000
  C   C118      1.0  0.8540012739513825  0.875965157054601  0.45773065477915503  1.0000
  C   C119      1.0  0.14598447384685898  0.3759675063331329  0.0422684801247897  1.0000
  C   C120      1.0  0.14599200172870036  0.6240348877401091  0.9577310367773606  1.0000
  C   C121      1.0  0.5157092316743783  0.15355554003168237  0.4216118260039323  1.0000
  C   C122      1.0  0.515689368332815  0.8464545848179911  0.5783901497836581  1.0000
  C   C123      1.0  0.4843149419824613  0.34644987731810767  0.9216155708477557  1.0000
  C   C124      1.0  0.4843122087693316  0.6535519482129003  0.0783901505444149  1.0000
  C   C125      1.0  0.998205337324407  0.004189790187759  0.6018457930488808  1.0000
  C   C126      1.0  0.9982075834987327  0.9958075690798367  0.3981601451939341  1.0000
  C   C127      1.0  0.0017809025164225996  0.4958109894518755  0.10184400687744238  1.0000
  C   C128      1.0  0.0017955516644718999  0.5041885987015248  0.8981543647376709  1.0000
  C   C129      1.0  0.7252687066824349  0.0206332743141715  0.6679101344591345  1.0000
  C   C130      1.0  0.7252856957496616  0.9793671682763402  0.33209142826996896  1.0000
  C   C131      1.0  0.2747092179391685  0.4793696394984365  0.167909594477031  1.0000
  C   C132      1.0  0.27471036513627206  0.5206382310768092  0.8320863782757685  1.0000
  N   N1        1.0  0.5825972223019491  0.36378521529196917  0.7688894851613455  1.0000
  N   N2        1.0  0.5825735235456547  0.636208335243353  0.23110839497535807  1.0000
  N   N3        1.0  0.41742773138518163  0.1362111472716876  0.2688955239415591  1.0000
  N   N4        1.0  0.41742167689663023  0.8637867940733339  0.7311096355808145  1.0000
  N   N5        1.0  0.26835903081731516  0.7345904626206518  0.6610228263674074  1.0000
  N   N6        1.0  0.2683571229485011  0.26540829186740916  0.33897821400547196  1.0000
  N   N7        1.0  0.7316499912517428  0.7654106690396102  0.16102404186710118  1.0000
  N   N8        1.0  0.731648413066402  0.23459297951758623  0.8389771106660645  1.0000
  O   O1        1.0  0.11984282076682719  0.29927922966874115  0.7599570356962744  1.0000
  O   O2        1.0  0.11979916376493797  0.7007085194908524  0.24004285037126039  1.0000
  O   O3        1.0  0.8801133795955777  0.2007379416720453  0.2599557903476181  1.0000
  O   O4        1.0  0.8801962366056484  0.7992867140124884  0.7400465164760917  1.0000
  O   O5        1.0  0.3711361779395829  0.23806123582877342  0.7740702158816859  1.0000
  O   O6        1.0  0.3711041119195214  0.76192562323498  0.2259301903300396  1.0000
  O   O7        1.0  0.6288343287508836  0.26195610009052217  0.2740686433414438  1.0000
  O   O8        1.0  0.6288937707453498  0.7380703549513324  0.7259272157448748  1.0000
  O   O9        1.0  0.6234606222007314  0.18944152892736102  0.3920206165098037  1.0000
  O   O10       1.0  0.6234359849776752  0.810570812549905  0.6079841227184772  1.0000
  O   O11       1.0  0.37655869221277527  0.3105671804214012  0.8920191196323158  1.0000
  O   O12       1.0  0.37656485520773236  0.689436974789345  0.1079825681330107  1.0000
  O   O13       1.0  0.3545501291745977  0.1384545334849676  0.40615659688759104  1.0000
  O   O14       1.0  0.3545157432494291  0.8615531773821983  0.5938420814919211  1.0000
  O   O15       1.0  0.6454862902070885  0.3615484305531638  0.906165484750879  1.0000
  O   O16       1.0  0.6454763861317828  0.6384489894828533  0.0938443808201015  1.0000
  F   F1        1.0  0.5785896624821874  0.05725873680370339  0.6823176590617521  1.0000
  F   F2        1.0  0.5786078628229274  0.9427407092033205  0.3176764022432508  1.0000
  F   F3        1.0  0.42139138263264897  0.44274525427015726  0.1823179007545619  1.0000
  F   F4        1.0  0.4214060632330429  0.5572590665504293  0.817676681998442  1.0000
  F   F5        1.0  0.8151849637685442  0.007056130428864498  0.717630148284968  1.0000
  F   F6        1.0  0.8152111025175515  0.9929455536376253  0.2823707537698255  1.0000
  F   F7        1.0  0.1847912752276741  0.49294872700301784  0.21763125249507445  1.0000
  F   F8        1.0  0.18479084116350455  0.5070588113616097  0.7823641107377171  1.0000
  F   F9        1.0  0.6521673657875198  0.9677080073979096  0.6482910329139527  1.0000
  F   F10       1.0  0.6521856762030681  0.0322903465819522  0.3517091082947843  1.0000
  F   F11       1.0  0.3478161883797952  0.5322925211243188  0.1482903771853401  1.0000
  F   F12       1.0  0.34780615406442905  0.467711073199183  0.8517053234529042  1.0000
  F   F13       1.0  0.0764529568635623  0.9690558088276403  0.6431922714465657  1.0000
  F   F14       1.0  0.07645174814888378  0.03094632836734229  0.3568113355370528  1.0000
  F   F15       1.0  0.9235248870088598  0.5309442056113696  0.1431932171770072  1.0000
  F   F16       1.0  0.9235415954091407  0.46905878797358713  0.8568087559229267  1.0000
  F   F17       1.0  0.9129014927372693  0.966053141607574  0.5650794328801254  1.0000
  F   F18       1.0  0.9129049334151063  0.03394253861383589  0.4349275989935392  1.0000
  F   F19       1.0  0.08707460349777557  0.5339491445014274  0.06508206474569529  1.0000
  F   F20       1.0  0.08709575387297258  0.4660507588020479  0.9349194472294968  1.0000
  F   F21       1.0  0.14157044299572868  0.031288685091198004  0.5732942611201962  1.0000
  F   F22       1.0  0.14155840190610283  0.9687091463426397  0.4267103274153854  1.0000
  F   F23       1.0  0.8584165570644088  0.4687113070119365  0.07329143480873059  1.0000
  F   F24       1.0  0.8584509684046535  0.5312914460605427  0.9267104035445826  1.0000
