data_image0
_chemical_formula_structural       Zn2H18C39I6N2O17
_chemical_formula_sum              "Zn2 H18 C39 I6 N2 O17"
_cell_length_a       10.918590813964169
_cell_length_b       12.015979636817885
_cell_length_c       13.016910990207336
_cell_angle_alpha    86.03534344627441
_cell_angle_beta     86.37260613160171
_cell_angle_gamma    82.16097243066493

_space_group_name_H-M_alt    "P 1"
_space_group_IT_number       1

loop_
  _space_group_symop_operation_xyz
  'x, y, z'

loop_
  _atom_site_type_symbol
  _atom_site_label
  _atom_site_symmetry_multiplicity
  _atom_site_fract_x
  _atom_site_fract_y
  _atom_site_fract_z
  _atom_site_occupancy
  Zn  Zn1       1.0  0.4838509638525891  0.6236043716788445  0.5065550816887878  1.0000
  Zn  Zn2       1.0  0.5038859225188118  0.3803999635280563  0.5020698574075056  1.0000
  H   H1        1.0  0.5388735985967655  0.3486417988221149  0.1793487989403603  1.0000
  H   H2        1.0  0.9725427140190277  0.40201153449300625  0.274908089981281  1.0000
  H   H3        1.0  0.647050681311036  0.15401205842761803  0.9703466996149431  1.0000
  H   H4        1.0  0.41264833788008554  0.7493323269917982  0.9108414551480735  1.0000
  H   H5        1.0  0.6932041802365417  0.24427728510440969  0.7477997665173037  1.0000
  H   H6        1.0  0.3076912731564078  0.8194627151955346  0.7672519594195394  1.0000
  H   H7        1.0  0.7141497029668571  0.07502727078755811  0.2682174587449211  1.0000
  H   H8        1.0  0.18193858136677216  0.7330732639097519  0.36558075341714164  1.0000
  H   H9        1.0  0.13243151950089066  0.2985606345818894  0.3214431763111206  1.0000
  H   H10       1.0  0.8305820984252816  0.26735825897746684  0.5337839755821535  1.0000
  H   H11       1.0  0.4788525390148023  0.7093858484815383  0.1795186055426115  1.0000
  H   H12       1.0  0.5808786786566387  0.8160052870492931  0.4014266538910292  1.0000
  H   H13       1.0  0.09810232250174518  0.5159985258787855  0.6399973817599545  1.0000
  H   H14       1.0  0.34983215480135493  0.9865113178286719  0.7013620948160764  1.0000
  H   H15       1.0  0.6325972142462958  0.21515011637449533  0.3741810634088978  1.0000
  H   H16       1.0  0.846166927948829  0.6041089184566886  0.5975544509421413  1.0000
  H   H17       1.0  0.8796950034576835  0.67120845264175  0.42502865202259704  1.0000
  H   H18       1.0  0.12235321981457044  0.3527614508533786  0.5400590198587666  1.0000
  C   C1        1.0  0.5473727504387396  0.4585067277482792  0.6970034112445163  1.0000
  C   C2        1.0  0.5449757162740169  0.5439636492229026  0.9737996566253246  1.0000
  C   C3        1.0  0.5516527833821954  0.4348095359297163  0.02831209187800001  1.0000
  C   C4        1.0  0.25751637229969043  0.5295065660464289  0.4915746273713851  1.0000
  C   C5        1.0  0.535173590814658  0.4300912315259637  0.13726740208238652  1.0000
  C   C6        1.0  0.5033910300657636  0.6334836960957517  0.13744181663350472  1.0000
  C   C7        1.0  0.5132447266669117  0.6427446579165804  0.030819328266446202  1.0000
  C   C8        1.0  0.5906875719809648  0.045455485911325894  0.4040227331377367  1.0000
  C   C9        1.0  0.5816635963115218  0.15810123932098458  0.423828147699382  1.0000
  C   C10       1.0  0.4433936993956137  0.14350202708456547  0.5662000210037093  1.0000
  C   C11       1.0  0.4552520058595633  0.023843419478069398  0.5594345847046968  1.0000
  C   C12       1.0  0.8815778884332273  0.4944274439576688  0.4721731932310505  1.0000
  C   C13       1.0  0.5263107125609705  0.9744352099188803  0.47459279168696616  1.0000
  C   C14       1.0  0.5288088405341539  0.8562425646832635  0.4662584709953421  1.0000
  C   C15       1.0  0.4069289373955129  0.8391351199722975  0.6185657095027468  1.0000
  C   C16       1.0  0.5019295490346136  0.5186219115781158  0.30623960725203153  1.0000
  C   C17       1.0  0.399510903335667  0.9523567757257608  0.6327693460619201  1.0000
  C   C18       1.0  0.7381726981260923  0.500373043886576  0.4783214697142243  1.0000
  C   C19       1.0  0.04707819963761747  0.557792890671749  0.575370074012426  1.0000
  C   C20       1.0  0.9139664203655684  0.5323512494743524  0.5773714228586044  1.0000
  C   C21       1.0  0.059871481153450576  0.5957298027432358  0.3826669814872758  1.0000
  C   C22       1.0  0.09854659816894437  0.39463238671591233  0.4646398779138323  1.0000
  C   C23       1.0  0.9194984582182781  0.5905234339449876  0.39401798010109707  1.0000
  C   C24       1.0  0.11955150371897362  0.5216507991660321  0.4729295262547524  1.0000
  C   C25       1.0  0.9354923472823841  0.34900263835517353  0.3396347314741277  1.0000
  C   C26       1.0  0.6127601813816951  0.22080992182880974  0.023601616766129  1.0000
  C   C27       1.0  0.4626538434076293  0.7543742013813745  0.9821517897661138  1.0000
  C   C28       1.0  0.6097013979536142  0.24228976175395905  0.801210138324379  1.0000
  C   C29       1.0  0.34097279441176187  0.7712698483537962  0.6982735747135608  1.0000
  C   C30       1.0  0.6663415111814428  0.008181619232210805  0.3103337339201886  1.0000
  C   C31       1.0  0.08394104073853727  0.7201577084901062  0.362828378749022  1.0000
  C   C32       1.0  0.1810065659237736  0.3192441357799751  0.3892143184640346  1.0000
  C   C33       1.0  0.9297694303357598  0.2735316510239302  0.5161700378245372  1.0000
  C   C34       1.0  0.9602491446731134  0.3799844100121988  0.44972830838126765  1.0000
  C   C35       1.0  0.5155928784129457  0.5269379794212057  0.19085650598788112  1.0000
  C   C36       1.0  0.5693846500253485  0.452597031686416  0.809931954340378  1.0000
  C   C37       1.0  0.5787444145930533  0.3345155828762003  0.972052175516119  1.0000
  C   C38       1.0  0.5801565336596396  0.3447614930881071  0.8641990278800906  1.0000
  C   C39       1.0  0.5703274010871197  0.5479602783833144  0.8650730821883175  1.0000
  I   I1        1.0  0.034437120546954185  0.7361944007994196  0.608573224890421  1.0000
  I   I2        1.0  0.1649544508375128  0.5382209739035632  0.2385705415112511  1.0000
  I   I3        1.0  0.822878947227835  0.6103472028394704  0.25129443004071567  1.0000
  I   I4        1.0  0.6415810983621455  0.6918884826502562  0.7949271549747012  1.0000
  I   I5        1.0  0.3114124467341384  0.2156609387343096  0.6734288807816216  1.0000
  I   I6        1.0  0.8841016740731431  0.4138797493304409  0.7096816771112273  1.0000
  N   N1        1.0  0.469637731887566  0.7921643995544018  0.5341392106631774  1.0000
  N   N2        1.0  0.5085188618415444  0.20653172820315294  0.5019672753531239  1.0000
  O   O1        1.0  0.5283219241263097  0.553837155937181  0.6497195220260252  1.0000
  O   O2        1.0  0.607989057463861  0.1971188497177394  0.11701082328013973  1.0000
  O   O3        1.0  0.4617036349532879  0.8442292392873086  0.021119400793196498  1.0000
  O   O4        1.0  0.5561047386248034  0.1588379980351888  0.8130004960463993  1.0000
  O   O5        1.0  0.31955597759915827  0.6753050528519681  0.6912454665073327  1.0000
  O   O6        1.0  0.6752503394908655  0.9132248601879382  0.2797317990718611  1.0000
  O   O7        1.0  0.0011987762561603047  0.7948030741803291  0.3398824427045  1.0000
  O   O8        1.0  0.28436951473594957  0.27143265528601296  0.4038095035070627  1.0000
  O   O9        1.0  0.011640756470832491  0.19680314186248893  0.536688575366398  1.0000
  O   O10       1.0  0.5414432709070454  0.3649983665756907  0.6576534509482459  1.0000
  O   O11       1.0  0.2959880853068881  0.6240519594957165  0.4761986582505173  1.0000
  O   O12       1.0  0.3190596573212188  0.44098350290156674  0.5297952484225803  1.0000
  O   O13       1.0  0.5015090882393592  0.6094207998970305  0.3507240214776531  1.0000
  O   O14       1.0  0.4917086560579732  0.42164039401684056  0.3495741544650741  1.0000
  O   O15       1.0  0.6818657485286221  0.5982523555830994  0.48993641910772834  1.0000
  O   O16       1.0  0.6915228068791063  0.40970894102708405  0.47599671683011746  1.0000
  O   O17       1.0  0.8759397796093111  0.27343408396716734  0.3239748664691646  1.0000
