data_image0
_chemical_formula_structural       CuH18C24N6O12
_chemical_formula_sum              "Cu1 H18 C24 N6 O12"
_cell_length_a       7.04339338012181
_cell_length_b       8.0426626967758
_cell_length_c       12.150169822900265
_cell_angle_alpha    106.33122086482342
_cell_angle_beta     97.76135781475826
_cell_angle_gamma    97.46368101579084

_space_group_name_H-M_alt    "P 1"
_space_group_IT_number       1

loop_
  _space_group_symop_operation_xyz
  'x, y, z'

loop_
  _atom_site_type_symbol
  _atom_site_label
  _atom_site_symmetry_multiplicity
  _atom_site_fract_x
  _atom_site_fract_y
  _atom_site_fract_z
  _atom_site_occupancy
  Cu  Cu1       1.0  4.553127368500001e-06  1.3314556496999997e-06  6.066469567e-07  1.0000
  H   H1        1.0  0.03603263827404388  0.11895921277219657  0.43922810964487974  1.0000
  H   H2        1.0  0.9639672913384415  0.8810419170874721  0.5607711940671009  1.0000
  H   H3        1.0  0.026170588647389102  0.10941102266371422  0.7036414217933923  1.0000
  H   H4        1.0  0.9738345776071426  0.8905875025547447  0.296354514056361  1.0000
  H   H5        1.0  0.31754628312288696  0.6378871414552945  0.6531693321005533  1.0000
  H   H6        1.0  0.6824477284227299  0.36212053303664493  0.3468356688057383  1.0000
  H   H7        1.0  0.2582421615718076  0.4992240664126867  0.27906216649979126  1.0000
  H   H8        1.0  0.7417637498151352  0.5007783902153236  0.7209419703805294  1.0000
  H   H9        1.0  0.4897679428947583  0.9319328891985351  0.4021230977571619  1.0000
  H   H10       1.0  0.5102284323248581  0.068072160820364  0.5978824210725051  1.0000
  H   H11       1.0  0.34103812460406857  0.090523030737117  0.8282194780334038  1.0000
  H   H12       1.0  0.658968398230563  0.9094676028166614  0.1717767346835614  1.0000
  H   H13       1.0  0.8141030145783007  0.34808720256210524  0.10367088658662028  1.0000
  H   H14       1.0  0.18589354635612654  0.6519112884731368  0.8963260129687071  1.0000
  H   H15       1.0  0.4502886965426639  0.4492988199404379  0.10748317794729446  1.0000
  H   H16       1.0  0.5497116650722517  0.550697057511229  0.8925118853443266  1.0000
  H   H17       1.0  0.2983175847333328  0.38025588440060437  0.9663891538060908  1.0000
  H   H18       1.0  0.7016890164378253  0.619742647813119  0.0336060730336953  1.0000
  C   C1        1.0  0.0699715969479371  0.16136599335140292  0.2279769341919931  1.0000
  C   C2        1.0  0.9300300190934293  0.8386364598146657  0.7720219264212034  1.0000
  C   C3        1.0  0.14244380087497177  0.29301497052136927  0.34579034883694243  1.0000
  C   C4        1.0  0.8575535114614115  0.7069874636059977  0.6542098162176017  1.0000
  C   C5        1.0  0.111787536294166  0.24882050416915283  0.4459961335632769  1.0000
  C   C6        1.0  0.8882109615364582  0.7511806245365377  0.5540014113930025  1.0000
  C   C7        1.0  0.1764363471404877  0.37106981209308987  0.5568611590703512  1.0000
  C   C8        1.0  0.8235618939532684  0.6289299905659858  0.44314023291753557  1.0000
  C   C9        1.0  0.14679081079621173  0.31899015508245293  0.6629737488697315  1.0000
  C   C10       1.0  0.8531968275084338  0.6809991101636397  0.33701496329445746  1.0000
  C   C11       1.0  0.2677656577170069  0.5408150602753707  0.5675719835829938  1.0000
  C   C12       1.0  0.7322276024266473  0.45918867112443706  0.43242975182408117  1.0000
  C   C13       1.0  0.29522053700199546  0.5869116074943008  0.4671642472365177  1.0000
  C   C14       1.0  0.7047789543385081  0.41309476309078963  0.5328442324271876  1.0000
  C   C15       1.0  0.3849140541964218  0.7702580652672282  0.4807599962586194  1.0000
  C   C16       1.0  0.6150757683369648  0.22973514617206794  0.5192329175719337  1.0000
  C   C17       1.0  0.23558151919892376  0.4630532608249638  0.35673506508975805  1.0000
  C   C18       1.0  0.7644200947525875  0.5369491884469182  0.6432654407005599  1.0000
  C   C19       1.0  0.48188004210274465  0.1186528884430373  0.8848482023801053  1.0000
  C   C20       1.0  0.5181226810963224  0.8813403606414099  0.11514902401200536  1.0000
  C   C21       1.0  0.7238782764102324  0.2514564695163485  0.027366571238992783  1.0000
  C   C22       1.0  0.27612301082727697  0.7485367706257406  0.9726321867516389  1.0000
  C   C23       1.0  0.4490033358937637  0.41971885465360964  0.013581834309803777  1.0000
  C   C24       1.0  0.5509998934645638  0.5802770328944008  0.9864134561389974  1.0000
  N   N1        1.0  0.7615958460637132  0.096679072750355  0.9697624730311957  1.0000
  N   N2        1.0  0.23841049941550096  0.9033181353638469  0.030235778251643777  1.0000
  N   N3        1.0  0.6089834263385824  0.011592611265349698  0.8795468430448067  1.0000
  N   N4        1.0  0.3910221656488274  0.9884006498625337  0.12044978791593046  1.0000
  N   N5        1.0  0.5474913894239889  0.2700251087124029  0.9761891407757375  1.0000
  N   N6        1.0  0.4525101503706922  0.729969449687914  0.02380906053751627  1.0000
  O   O1        1.0  0.09575602036670011  0.21328565304082756  0.13952348609052478  1.0000
  O   O2        1.0  0.9042420485962737  0.7867207339141513  0.8604758315204462  1.0000
  O   O3        1.0  0.9830172986097522  0.0070230937530481995  0.21610807381613736  1.0000
  O   O4        1.0  0.016991482610457374  0.9929793768654986  0.7838946450442491  1.0000
  O   O5        1.0  0.03314757683958899  0.16278011703439424  0.636146795543759  1.0000
  O   O6        1.0  0.966854217602105  0.8372157635183513  0.36384920391500947  1.0000
  O   O7        1.0  0.22051119259608498  0.41122474821879956  0.7632406583011714  1.0000
  O   O8        1.0  0.7794851815786074  0.5887802998530061  0.23676568311705629  1.0000
  O   O9        1.0  0.427657937208636  0.799704007585852  0.38505756169716676  1.0000
  O   O10       1.0  0.5723379287169478  0.20029839812819714  0.6149523608414853  1.0000
  O   O11       1.0  0.4146471587961286  0.8847661083437114  0.5782644035797586  1.0000
  O   O12       1.0  0.5853464865444947  0.11525469385101418  0.42175372293242924  1.0000
