data_image0
_chemical_formula_structural       Cd2H32C44N4O8
_chemical_formula_sum              "Cd2 H32 C44 N4 O8"
_cell_length_a       7.485281273319948
_cell_length_b       9.80035412339373
_cell_length_c       13.206384244895968
_cell_angle_alpha    88.48291352144227
_cell_angle_beta     77.26704318812263
_cell_angle_gamma    72.2778814519256

_space_group_name_H-M_alt    "P 1"
_space_group_IT_number       1

loop_
  _space_group_symop_operation_xyz
  'x, y, z'

loop_
  _atom_site_type_symbol
  _atom_site_label
  _atom_site_symmetry_multiplicity
  _atom_site_fract_x
  _atom_site_fract_y
  _atom_site_fract_z
  _atom_site_occupancy
  Cd  Cd1       1.0  0.28044637278452483  0.9551952654520832  0.4841209502952282  1.0000
  Cd  Cd2       1.0  0.7195487646949845  0.04481705427235741  0.5158828406857195  1.0000
  H   H1        1.0  0.0783812669301725  0.8978083671823285  0.7171206418086342  1.0000
  H   H2        1.0  0.9216212073462206  0.10219326718940641  0.28288262807159725  1.0000
  H   H3        1.0  0.15586246342935797  0.733275996928093  0.857055808936735  1.0000
  H   H4        1.0  0.8441442431440226  0.2667158362872115  0.14294274725358488  1.0000
  H   H5        1.0  0.6244839896253186  0.4594408715614975  0.6293923541183161  1.0000
  H   H6        1.0  0.37552412061374013  0.5405636722475579  0.3705987520472788  1.0000
  H   H7        1.0  0.5361785599999397  0.6390536720275009  0.4988952792579226  1.0000
  H   H8        1.0  0.46382082337240166  0.3609552066008205  0.5011005366855699  1.0000
  H   H9        1.0  0.5486425671385294  0.3846465431051982  0.8126302717707147  1.0000
  H   H10       1.0  0.45136466894103244  0.615350475047336  0.18736197202419896  1.0000
  H   H11       1.0  0.23843365400485794  0.5957044023904744  0.9684986538869678  1.0000
  H   H12       1.0  0.7615757986178838  0.40429061763297375  0.031497175161654  1.0000
  H   H13       1.0  0.5300193866610458  0.6993572756020188  0.0045132888366268  1.0000
  H   H14       1.0  0.4699914698287488  0.3006376832311446  0.9954800964996123  1.0000
  H   H15       1.0  0.8012049024988245  0.4597027175252323  0.8541047082339047  1.0000
  H   H16       1.0  0.19880507963009833  0.5402974874354386  0.1458848084193107  1.0000
  H   H17       1.0  0.9544448909112265  0.5241974656911452  0.6821951383926572  1.0000
  H   H18       1.0  0.045567990068207144  0.47581501433289475  0.3178049374078782  1.0000
  H   H19       1.0  0.965985459955612  0.7109996432902718  0.5525729428326541  1.0000
  H   H20       1.0  0.03401739986232146  0.28901702608964536  0.4474282209272431  1.0000
  H   H21       1.0  0.5217086699239104  0.01786262089304099  0.7432907897568838  1.0000
  H   H22       1.0  0.47826400130349406  0.9821383189598193  0.2567063446778518  1.0000
  H   H23       1.0  0.48308136324871503  0.8456324243161221  0.8804548784248921  1.0000
  H   H24       1.0  0.5169004411834737  0.1543632122480716  0.11954056071499508  1.0000
  H   H25       1.0  0.6496406720645357  0.7647484472473992  0.18595282510920438  1.0000
  H   H26       1.0  0.3503470879312332  0.23524909175682757  0.8140637741712381  1.0000
  H   H27       1.0  0.8134745616942713  0.810980737192679  0.008198035272123101  1.0000
  H   H28       1.0  0.18651343144462382  0.18899720499645406  0.9918131842236448  1.0000
  H   H29       1.0  0.12044304431449883  0.8724629527973348  0.9835816050185285  1.0000
  H   H30       1.0  0.8795551755345987  0.12750402666828362  0.016419656803584776  1.0000
  H   H31       1.0  0.2674329409950148  0.8751868384778165  0.13511019552274203  1.0000
  H   H32       1.0  0.7325665728468068  0.1247994441272269  0.864887178649397  1.0000
  C   C1        1.0  0.19893119369378107  0.7995851683118148  0.7004252726534687  1.0000
  C   C2        1.0  0.8010704337154951  0.2004152746319932  0.2995751153171823  1.0000
  C   C3        1.0  0.24406144735390717  0.7065560861704014  0.7787506372465316  1.0000
  C   C4        1.0  0.755944777500126  0.29344005053471994  0.22124782293516176  1.0000
  C   C5        1.0  0.40586734361248505  0.5846556303603235  0.7567339447637521  1.0000
  C   C6        1.0  0.594139837680942  0.4153414911190509  0.24326133179661716  1.0000
  C   C7        1.0  0.5022931873687995  0.5556818905145989  0.6521786456927785  1.0000
  C   C8        1.0  0.4977126173499545  0.44432162638364764  0.3478150550410674  1.0000
  C   C9        1.0  0.4504932731631329  0.6541600399121351  0.578344839179337  1.0000
  C   C10       1.0  0.5495060965126727  0.3458488645478965  0.4216517349555247  1.0000
  C   C11       1.0  0.49639669202599657  0.4987041084286545  0.8376148750047105  1.0000
  C   C12       1.0  0.5036159677703013  0.501293026606689  0.16237820861979912  1.0000
  C   C13       1.0  0.3908545888120899  0.532880377136948  0.952413870643063  1.0000
  C   C14       1.0  0.6091531152902763  0.4671123633574867  0.04757922735183935  1.0000
  C   C15       1.0  0.5543738735739583  0.5902884791741131  0.9745368094646593  1.0000
  C   C16       1.0  0.4456347184851311  0.40970537525311823  0.025456895865737315  1.0000
  C   C17       1.0  0.6698001138927129  0.5510869109870243  0.8609435654978838  1.0000
  C   C18       1.0  0.3302075216263065  0.4489123445579678  0.13905082029766896  1.0000
  C   C19       1.0  0.7118251996790337  0.666701823599432  0.7928703376783444  1.0000
  C   C20       1.0  0.2881737637593958  0.3333016634379931  0.20712572512965005  1.0000
  C   C21       1.0  0.8534745846892667  0.6322208148472583  0.700144871564042  1.0000
  C   C22       1.0  0.1465292590618149  0.3677904017514849  0.29985409534796753  1.0000
  C   C23       1.0  0.8626593126966928  0.7361882685681068  0.626922197987291  1.0000
  C   C24       1.0  0.1373403947338191  0.26382618247307477  0.37307867843126263  1.0000
  C   C25       1.0  0.6149076848861486  0.9076444395838125  0.7336095635884803  1.0000
  C   C26       1.0  0.3850762606072494  0.09235891976371141  0.2663898761233554  1.0000
  C   C27       1.0  0.5957645497664077  0.8100453753723187  0.810155181422452  1.0000
  C   C28       1.0  0.40422353204755984  0.18995474953275956  0.18984234878283954  1.0000
  C   C29       1.0  0.038251438515153856  0.8289855411799183  0.24521885807038046  1.0000
  C   C30       1.0  0.9617551789804114  0.1710096528875056  0.7547833747857168  1.0000
  C   C31       1.0  0.8603265531225763  0.8017592975250097  0.26047698880791603  1.0000
  C   C32       1.0  0.1396735539487609  0.19824461912460828  0.739531035923619  1.0000
  C   C33       1.0  0.7838556169875948  0.7915762640063306  0.1739063323224457  1.0000
  C   C34       1.0  0.21613539137201346  0.208416926622661  0.826107750115959  1.0000
  C   C35       1.0  0.8762910548509245  0.8166621769220301  0.07458806687560574  1.0000
  C   C36       1.0  0.12370060658572872  0.18331680848276483  0.925420388913629  1.0000
  C   C37       1.0  0.04931857453766515  0.8493643094769183  0.060280747686412894  1.0000
  C   C38       1.0  0.9506759289247744  0.150611296022042  0.9397221767777423  1.0000
  C   C39       1.0  0.130900621425802  0.8525266494274676  0.14479007315012637  1.0000
  C   C40       1.0  0.86909748165035  0.1474629002297121  0.8552088722519855  1.0000
  C   C41       1.0  0.7501987015981585  0.7767382361315144  0.3663030165681462  1.0000
  C   C42       1.0  0.2498005106178527  0.22326777244716567  0.633703528345485  1.0000
  C   C43       1.0  0.13286382453554793  0.8387612242546184  0.3327750392668348  1.0000
  C   C44       1.0  0.8671322214958228  0.16124897770904306  0.6672294733406544  1.0000
  N   N1        1.0  0.3045485283509421  0.7775046093741056  0.6024384948892915  1.0000
  N   N2        1.0  0.6954498848854769  0.22250331031168  0.397561262866894  1.0000
  N   N3        1.0  0.7429125927471818  0.871544017776614  0.642075759620397  1.0000
  N   N4        1.0  0.25707763692592084  0.1284670099419429  0.35792414048308524  1.0000
  O   O1        1.0  0.31439542139099796  0.8015520205049144  0.31490339282878915  1.0000
  O   O2        1.0  0.6856006177417627  0.1984613873206129  0.6851002472962975  1.0000
  O   O3        1.0  0.026147898759632006  0.8907301720531466  0.42195876039496477  1.0000
  O   O4        1.0  0.9738485945987069  0.10928536983799832  0.5780439889652981  1.0000
  O   O5        1.0  0.6204031299323347  0.8895099700871117  0.4150099164582314  1.0000
  O   O6        1.0  0.37959474689929373  0.11049597052330279  0.5849952812109577  1.0000
  O   O7        1.0  0.7873700133820307  0.651642426581219  0.3957931695982992  1.0000
  O   O8        1.0  0.21263450607983728  0.3483671113957953  0.6042194081934367  1.0000
