data_image0
_chemical_formula_structural       Zn4H16C37I4N4O16
_chemical_formula_sum              "Zn4 H16 C37 I4 N4 O16"
_cell_length_a       13.136408551241793
_cell_length_b       19.160896828321384
_cell_length_c       19.299885359972233
_cell_angle_alpha    85.41530200709808
_cell_angle_beta     84.56634144166549
_cell_angle_gamma    85.1967293732635

_space_group_name_H-M_alt    "P 1"
_space_group_IT_number       1

loop_
  _space_group_symop_operation_xyz
  'x, y, z'

loop_
  _atom_site_type_symbol
  _atom_site_label
  _atom_site_symmetry_multiplicity
  _atom_site_fract_x
  _atom_site_fract_y
  _atom_site_fract_z
  _atom_site_occupancy
  Zn  Zn1       1.0  0.4122038126818451  0.5650201242825263  0.442871971875519  1.0000
  Zn  Zn2       1.0  0.41495315971211255  0.44497712717708277  0.5692960646006996  1.0000
  Zn  Zn3       1.0  0.5915601763216498  0.5478851670906337  0.5487238617904638  1.0000
  Zn  Zn4       1.0  0.5831860326452231  0.43690534780723306  0.4345484171556251  1.0000
  H   H1        1.0  0.9036779484922304  0.5372196225085376  0.5460019378555145  1.0000
  H   H2        1.0  0.5953990189431408  0.22416010771369344  0.42256672478168167  1.0000
  H   H3        1.0  0.09277034844546958  0.4982974795679738  0.44198406937279344  1.0000
  H   H4        1.0  0.9248430275612947  0.46028225111565024  0.40928230195024906  1.0000
  H   H5        1.0  0.36571730235632316  0.46777780876473696  0.7814059775789842  1.0000
  H   H6        1.0  0.355802264997095  0.7829305854116981  0.4721412034212022  1.0000
  H   H7        1.0  0.36649293452626347  0.600142980142465  0.1002031411957631  1.0000
  H   H8        1.0  0.363711335828917  0.09967173067397542  0.6013780920358514  1.0000
  H   H9        1.0  0.37308359332971713  0.5971211014154606  0.23087089291460217  1.0000
  H   H10       1.0  0.3659551383169344  0.23167694458131644  0.5966691329033722  1.0000
  H   H11       1.0  0.1375179147135697  0.5597879571279947  0.6455159142571248  1.0000
  H   H12       1.0  0.7165251967051132  0.46152070294381525  0.6978360645345633  1.0000
  H   H13       1.0  0.5919952536901079  0.4244707364115  0.0907510001269003  1.0000
  H   H14       1.0  0.7063776207575286  0.6978152058967311  0.4535861528801918  1.0000
  H   H15       1.0  0.5918912751822489  0.09278760186651881  0.4265199713327377  1.0000
  H   H16       1.0  0.5975731987144997  0.4207575069853959  0.2210890663945264  1.0000
  C   C1        1.0  0.5205597027627533  0.4843034038367976  0.6868496254882359  1.0000
  C   C2        1.0  0.5431346426764135  0.12388754277084497  0.4632821378390375  1.0000
  C   C3        1.0  0.5442250766422986  0.46141853876806505  0.1222325845693462  1.0000
  C   C4        1.0  0.478285083787  0.5124602275885265  0.08904662313133122  1.0000
  C   C5        1.0  0.4772839068419897  0.08963907151110113  0.5143339573548786  1.0000
  C   C6        1.0  0.4162189903230313  0.5612365020321449  0.12786513198481228  1.0000
  C   C7        1.0  0.41336669127951337  0.12812723570909412  0.5624362674893818  1.0000
  C   C8        1.0  0.5077766213245098  0.6857330373503031  0.48863557575966615  1.0000
  C   C9        1.0  0.4200272267912623  0.5594825158360522  0.19973933560565632  1.0000
  C   C10       1.0  0.41483449758243296  0.20079731218515207  0.5597836238500734  1.0000
  C   C11       1.0  0.4325267398359003  0.47627336380461577  0.8781989080984262  1.0000
  C   C12       1.0  0.4279928919233382  0.8792820320194896  0.47827189389220587  1.0000
  C   C13       1.0  0.43548504888290285  0.4734092652002814  0.8060597318251297  1.0000
  C   C14       1.0  0.427074802146052  0.806782660841627  0.47645489629234566  1.0000
  C   C15       1.0  0.5236584084253407  0.4827419049054809  0.9092964367199414  1.0000
  C   C16       1.0  0.5209650838379074  0.9091086996389492  0.4841740466896312  1.0000
  C   C17       1.0  0.5273371049011926  0.47961983350547416  0.7641647644250041  1.0000
  C   C18       1.0  0.5170395195309396  0.7633453852961337  0.4820490806174931  1.0000
  C   C19       1.0  0.6204559459490966  0.4864635284813233  0.7937991093026396  1.0000
  C   C20       1.0  0.6121822209163669  0.7917886260489766  0.4869447270294812  1.0000
  C   C21       1.0  0.48999510473039  0.5063467799623638  0.3102762207514402  1.0000
  C   C22       1.0  0.48504918511236633  0.312971013737979  0.5067625178584692  1.0000
  C   C23       1.0  0.616457851276891  0.4872897229923155  0.8666175062775637  1.0000
  C   C24       1.0  0.5472926562719705  0.4596561264218408  0.19394828841953432  1.0000
  C   C25       1.0  0.6120679939681749  0.8648827953543402  0.48780140628861807  1.0000
  C   C26       1.0  0.7764887975967267  0.48453528575299026  0.4687158915634413  1.0000
  C   C27       1.0  0.22681968838315208  0.5233028341782174  0.5262349240086195  1.0000
  C   C28       1.0  0.113080439068419  0.5323356359613669  0.5405429884285837  1.0000
  C   C29       1.0  0.05354079435704757  0.5151982871702716  0.4911546153420403  1.0000
  C   C30       1.0  0.5448160047169495  0.1962383394568761  0.4612183938115066  1.0000
  C   C31       1.0  0.8891931986448681  0.48534123589381306  0.45534933586096576  1.0000
  C   C32       1.0  0.9438431382849684  0.5144161709586186  0.5001099797399888  1.0000
  C   C33       1.0  0.4854952766295283  0.5086447301736217  0.23309896561654853  1.0000
  C   C34       1.0  0.48088929262987534  0.23514249087845943  0.5093358772044709  1.0000
  C   C35       1.0  0.07529082803466738  0.5553763228381926  0.6110569154878078  1.0000
  C   C36       1.0  0.7188871539085395  0.48549304815833955  0.7481924548177972  1.0000
  C   C37       1.0  0.7088394753744749  0.7445288056299261  0.48390444967538576  1.0000
  I   I1        1.0  0.744864031127065  0.4977643915393202  0.9217004524385929  1.0000
  I   I2        1.0  0.7444278312490411  0.9174463294684688  0.496838676876358  1.0000
  I   I3        1.0  0.2896279600332789  0.46754451143379333  0.9360555994740877  1.0000
  I   I4        1.0  0.28796117681230987  0.9395141746764891  0.4684979615255074  1.0000
  N   N1        1.0  0.4711597133963891  0.520366626513777  0.016016030781720803  1.0000
  N   N2        1.0  0.4705724787159297  0.0160248826141682  0.5221575891166026  1.0000
  N   N3        1.0  0.5305955208554918  0.47765932086324636  0.9819630968706149  1.0000
  N   N4        1.0  0.5305973281637506  0.9820145039223575  0.47972959241646157  1.0000
  O   O1        1.0  0.4998485121355215  0.498768509326652  0.4983797693793335  1.0000
  O   O2        1.0  0.41942946517045226  0.346599806528971  0.5475478871997199  1.0000
  O   O3        1.0  0.5707082897434715  0.6495325705026146  0.5263212346119701  1.0000
  O   O4        1.0  0.5753734302688827  0.5281651413078591  0.6503919270182905  1.0000
  O   O5        1.0  0.5542798240752447  0.33949333436887497  0.46419766781532706  1.0000
  O   O6        1.0  0.5456105164528964  0.45590023260434254  0.33811826579530196  1.0000
  O   O7        1.0  0.7336825235198744  0.5192470909437717  0.518791457244042  1.0000
  O   O8        1.0  0.2745364442703035  0.4913400993921754  0.5756936972325803  1.0000
  O   O9        1.0  0.2665168103331439  0.5476068691471312  0.4673312916885807  1.0000
  O   O10       1.0  0.7312311534867388  0.44889103015841414  0.4290997583241278  1.0000
  O   O11       1.0  0.9854731257918627  0.5702820341877626  0.6310094289070066  1.0000
  O   O12       1.0  0.7984503971964255  0.5063814881874364  0.7637790532243259  1.0000
  O   O13       1.0  0.45809598574260946  0.44588715298674236  0.6643353683665794  1.0000
  O   O14       1.0  0.7872496774680612  0.7556858792212111  0.5090846760943394  1.0000
  O   O15       1.0  0.43684733999023706  0.6627095068109911  0.4580508410955276  1.0000
  O   O16       1.0  0.43770767582113734  0.5551434440199827  0.34238475150453956  1.0000
