data_image0
_chemical_formula_structural       Co2Cu4H24C24N16
_chemical_formula_sum              "Co2 Cu4 H24 C24 N16"
_cell_length_a       6.099165800021017
_cell_length_b       10.947953018121657
_cell_length_c       10.947918115083995
_cell_angle_alpha    90.00044850908459
_cell_angle_beta     90.00001405470935
_cell_angle_gamma    89.99969909923708

_space_group_name_H-M_alt    "P 1"
_space_group_IT_number       1

loop_
  _space_group_symop_operation_xyz
  'x, y, z'

loop_
  _atom_site_type_symbol
  _atom_site_label
  _atom_site_symmetry_multiplicity
  _atom_site_fract_x
  _atom_site_fract_y
  _atom_site_fract_z
  _atom_site_occupancy
  Co  Co1       1.0  0.9999902707110948  0.5000017277426566  0.5000020936006634  1.0000
  Co  Co2       1.0  0.5000032822555341  0.999999254009218  0.9999995442028221  1.0000
  Cu  Cu1       1.0  0.6607915634798829  0.5000032671850718  0.9999994222845455  1.0000
  Cu  Cu2       1.0  0.339207182313828  5.478624131999996e-07  0.49999918984087793  1.0000
  Cu  Cu3       1.0  0.8392167455934327  0.9999995413564522  0.4999985618641459  1.0000
  Cu  Cu4       1.0  0.16078356388108966  0.49999917045555975  1.0516189874000005e-06  1.0000
  H   H1        1.0  0.07285491629574639  0.2245941279730914  0.3996777851101783  1.0000
  H   H2        1.0  0.07285237352344612  0.7754102109577302  0.6003226545997009  1.0000
  H   H3        1.0  0.9271513510213651  0.399681875182317  0.7754111375367004  1.0000
  H   H4        1.0  0.927150251808385  0.6003227066213128  0.22458664838749337  1.0000
  H   H5        1.0  0.42714424935176964  0.2754078057012991  0.899672607508499  1.0000
  H   H6        1.0  0.42713862964338734  0.724589103662858  0.100329694859866  1.0000
  H   H7        1.0  0.5728631904372676  0.10032401792934562  0.2754089484756577  1.0000
  H   H8        1.0  0.5728611837131794  0.8996742922590641  0.7245888015676982  1.0000
  H   H9        1.0  0.3783138573411548  0.424452237731586  0.6816682695397914  1.0000
  H   H10       1.0  0.3783097646931211  0.5755484680265824  0.3183340279015567  1.0000
  H   H11       1.0  0.6216770431554508  0.6816694137274553  0.5755477421727234  1.0000
  H   H12       1.0  0.6216819943855896  0.3183342342305124  0.4244500128321533  1.0000
  H   H13       1.0  0.12168518743733607  0.07554616248532402  0.18166680491431456  1.0000
  H   H14       1.0  0.1216879176346595  0.9244507264015808  0.8183363799556389  1.0000
  H   H15       1.0  0.8783162744438044  0.8183328123174934  0.07554272344971479  1.0000
  H   H16       1.0  0.8783162340841384  0.1816609513046359  0.9244587111524677  1.0000
  H   H17       1.0  0.5550194470076448  0.19156732194920778  0.6749254459287072  1.0000
  H   H18       1.0  0.5550180795981632  0.8084328672261595  0.3250723023161299  1.0000
  H   H19       1.0  0.4449808444014209  0.6749350778398553  0.8084330804421281  1.0000
  H   H20       1.0  0.44498232382314024  0.3250681732260432  0.19156008959985366  1.0000
  H   H21       1.0  0.9449786430784715  0.30843230410806655  0.17493131745309395  1.0000
  H   H22       1.0  0.9449786555133032  0.6915667451209802  0.8250710373321083  1.0000
  H   H23       1.0  0.055023390699886904  0.8250658658677711  0.30842808170795166  1.0000
  H   H24       1.0  0.0550167264529478  0.17492847766249042  0.6915741829892781  1.0000
  C   C1        1.0  0.8203704404500343  0.5242393197859273  0.24668095693841244  1.0000
  C   C2        1.0  0.8203708095928945  0.475763747348303  0.7533186450043559  1.0000
  C   C3        1.0  0.1796300908906971  0.24668059026794958  0.4757571818288112  1.0000
  C   C4        1.0  0.17962443517659918  0.7533234365330661  0.5242432686860282  1.0000
  C   C5        1.0  0.6796393677610908  0.975756025216967  0.7466791493913544  1.0000
  C   C6        1.0  0.6796388009159456  0.0242410594228772  0.25331952486938997  1.0000
  C   C7        1.0  0.3203609191124386  0.2533191987776889  0.9757582144375546  1.0000
  C   C8        1.0  0.320363246656008  0.7466780227437727  0.024246817372286993  1.0000
  C   C9        1.0  0.3392826364936639  0.3475755934496548  0.6229928840568064  1.0000
  C   C10       1.0  0.3392860489076952  0.6524261398025644  0.37700758260738343  1.0000
  C   C11       1.0  0.6607105480504104  0.6229975022597645  0.6524260581054405  1.0000
  C   C12       1.0  0.6607116239603741  0.37700603158705104  0.3475689606022101  1.0000
  C   C13       1.0  0.1607147361784982  0.15242326085198954  0.12299111172771399  1.0000
  C   C14       1.0  0.16071330551703508  0.8475744273556669  0.8770111636795193  1.0000
  C   C15       1.0  0.8392926495694655  0.8770089792582282  0.152423321541157  1.0000
  C   C16       1.0  0.8392914806045512  0.1229848984463402  0.8475790225276469  1.0000
  C   C17       1.0  0.42795924159143084  0.23206070384434702  0.6191359954674311  1.0000
  C   C18       1.0  0.42795828715625106  0.7679407701872025  0.38086448017016755  1.0000
  C   C19       1.0  0.5720378161710826  0.6191398285068034  0.7679411516873883  1.0000
  C   C20       1.0  0.5720437103238679  0.3808667048012922  0.23205751172068997  1.0000
  C   C21       1.0  0.07203648937474579  0.2679381202810021  0.11913785861566588  1.0000
  C   C22       1.0  0.0720345111406786  0.7320580003337869  0.8808644078105913  1.0000
  C   C23       1.0  0.9279621663908486  0.8808611634114102  0.26793754085638705  1.0000
  C   C24       1.0  0.9279593301410075  0.11913428190762691  0.7320629853610469  1.0000
  N   N1        1.0  0.6738998034571466  0.4744253474234839  0.16797081255094778  1.0000
  N   N2        1.0  0.6738964671193699  0.5255790612937333  0.8320260343260912  1.0000
  N   N3        1.0  0.3261128031368372  0.16797270689797728  0.5255736586189315  1.0000
  N   N4        1.0  0.3261096563545891  0.8320299782722034  0.47442589330010054  1.0000
  N   N5        1.0  0.8261179576067337  0.025571483912095506  0.6679737166956625  1.0000
  N   N6        1.0  0.8261199466436653  0.9744260859379923  0.332024972391693  1.0000
  N   N7        1.0  0.17388287595598229  0.3320244713707227  0.025573293476874395  1.0000
  N   N8        1.0  0.17388155423404336  0.6679731783425285  0.9744289832629176  1.0000
  N   N9        1.0  0.817712996790334  0.46774517273691885  0.3561225480501449  1.0000
  N   N10       1.0  0.8177144118172277  0.5322560753351555  0.6438761402009375  1.0000
  N   N11       1.0  0.18228077251021088  0.3561222709751988  0.5322541965423396  1.0000
  N   N12       1.0  0.1822777575945054  0.6438808346640813  0.46774716765296626  1.0000
  N   N13       1.0  0.6822901125053991  0.032247651036406894  0.8561209228350251  1.0000
  N   N14       1.0  0.6822904206448898  0.967747599031327  0.1438786651025339  1.0000
  N   N15       1.0  0.3177132706952861  0.14387952663703626  0.03224871955146819  1.0000
  N   N16       1.0  0.3177134493089113  0.8561186160258599  0.9677526583312143  1.0000
