data_image0
_chemical_formula_structural       AlH9C21N4O12
_chemical_formula_sum              "Al1 H9 C21 N4 O12"
_cell_length_a       4.170346806433355
_cell_length_b       13.452479279911268
_cell_length_c       13.451440175895637
_cell_angle_alpha    119.99155892249479
_cell_angle_beta     90.00273695047983
_cell_angle_gamma    90.00180156627354

_space_group_name_H-M_alt    "P 1"
_space_group_IT_number       1

loop_
  _space_group_symop_operation_xyz
  'x, y, z'

loop_
  _atom_site_type_symbol
  _atom_site_label
  _atom_site_symmetry_multiplicity
  _atom_site_fract_x
  _atom_site_fract_y
  _atom_site_fract_z
  _atom_site_occupancy
  Al  Al1       1.0  0.03452990454162119  0.5000268374230075  0.49999513300952003  1.0000
  H   H1        1.0  0.24227290563948856  0.8060288918659566  0.7750757291821986  1.0000
  H   H2        1.0  0.21701432991493158  0.016419924144457743  0.8899896371594737  1.0000
  H   H3        1.0  0.7787332950676102  0.03888163890583455  0.6316159708488129  1.0000
  H   H4        1.0  0.7786674555066071  0.09272428763248516  0.9611842537887016  1.0000
  H   H5        1.0  0.2423103972179632  0.4690164971787922  0.1938607403176178  1.0000
  H   H6        1.0  0.21700796404010694  0.3734710104569244  0.9834463628126076  1.0000
  H   H7        1.0  0.778787338958743  0.36833099523917634  0.9072327758895683  1.0000
  H   H8        1.0  0.2421656023516547  0.22491038294581492  0.5309484151177699  1.0000
  H   H9        1.0  0.21694382530738204  0.10998522601496301  0.6264595588663227  1.0000
  C   C1        1.0  0.5344606079210691  0.3998324414259784  0.32663098825746323  1.0000
  C   C2        1.0  0.5344731123498788  0.42684185630346133  0.6001800342772087  1.0000
  C   C3        1.0  0.5345144661703286  0.6733706178736439  0.5731567674125132  1.0000
  C   C4        1.0  0.35874779079335173  0.8575046068345954  0.7435167182185582  1.0000
  C   C5        1.0  0.34232110866928167  0.9765763203502188  0.8079887256128162  1.0000
  C   C6        1.0  0.49093585445059035  0.045137918664010915  0.769305465754549  1.0000
  C   C7        1.0  0.6579106398089036  0.9906249062324405  0.6654149216278143  1.0000
  C   C8        1.0  0.666242099779346  0.871668773248629  0.6012344686493449  1.0000
  C   C9        1.0  0.5191241636122043  0.8022123343002787  0.6377572064385079  1.0000
  C   C10       1.0  0.6578347724056499  0.1747752647928422  0.009405572935740703  1.0000
  C   C11       1.0  0.6661599773375073  0.2295929613656966  0.1283864324642678  1.0000
  C   C12       1.0  0.5191011983254937  0.335565731759324  0.19779714700830203  1.0000
  C   C13       1.0  0.35875552047598086  0.3859863923445559  0.14243628999249583  1.0000
  C   C14       1.0  0.34228471018202805  0.3313418766751823  0.023344460563826955  1.0000
  C   C15       1.0  0.4908964653716268  0.22410795470444336  0.9548192175432108  1.0000
  C   C16       1.0  0.6579189857335662  0.3345494842938802  0.8251908664636574  1.0000
  C   C17       1.0  0.6662482561462184  0.3987418303768918  0.770404067624945  1.0000
  C   C18       1.0  0.5190803787479723  0.3622309827690486  0.6644332888697948  1.0000
  C   C19       1.0  0.35867457118476403  0.2564705088421701  0.6139854184588245  1.0000
  C   C20       1.0  0.3422644112637272  0.19199202881573993  0.6686062375204359  1.0000
  C   C21       1.0  0.4909119853078252  0.23065861977169505  0.775847814342498  1.0000
  N   N1        1.0  0.47421431705808453  0.16661540258441207  0.8333144372298166  1.0000
  N   N2        1.0  0.8385333651166532  0.8198185559828773  0.49080316893450543  1.0000
  N   N3        1.0  0.8384200672893626  0.17105481685494783  0.1803027928662715  1.0000
  N   N4        1.0  0.8385699862944093  0.5091620802083551  0.8289594970733135  1.0000
  O   O1        1.0  0.7736932275746182  0.6301210769889706  0.5963277369568943  1.0000
  O   O2        1.0  0.773622355586859  0.4662560536152753  0.3698812166996462  1.0000
  O   O3        1.0  0.773658063499063  0.40368806520832107  0.5337743222834703  1.0000
  O   O4        1.0  0.29893421713828866  0.6202085873008583  0.5088824381986471  1.0000
  O   O5        1.0  0.298911603188145  0.49111100229544025  0.6112884717938343  1.0000
  O   O6        1.0  0.2988817661558513  0.3887414552976622  0.3798032300182187  1.0000
  O   O7        1.0  0.7923566738601621  0.7166497775672979  0.4229540911325387  1.0000
  O   O8        1.0  0.018409075089543595  0.8827177856886905  0.4727080634389368  1.0000
  O   O9        1.0  0.7922344539805407  0.20643697560728197  0.2834979962667816  1.0000
  O   O10       1.0  0.018218100063641895  0.0900473099103607  0.11744502087906034  1.0000
  O   O11       1.0  0.7923754712171911  0.5770004530764082  0.7936116692313961  1.0000
  O   O12       1.0  0.0184485929575331  0.5272446460963564  0.9099494583025419  1.0000
