data_image0
_chemical_formula_structural       Co4H28C40N8Cl4O8
_chemical_formula_sum              "Co4 H28 C40 N8 Cl4 O8"
_cell_length_a       8.570123297673726
_cell_length_b       8.35769917455797
_cell_length_c       15.009669935044363
_cell_angle_alpha    90.00018290289327
_cell_angle_beta     89.99974225793702
_cell_angle_gamma    109.74339074599334

_space_group_name_H-M_alt    "P 1"
_space_group_IT_number       1

loop_
  _space_group_symop_operation_xyz
  'x, y, z'

loop_
  _atom_site_type_symbol
  _atom_site_label
  _atom_site_symmetry_multiplicity
  _atom_site_fract_x
  _atom_site_fract_y
  _atom_site_fract_z
  _atom_site_occupancy
  Co  Co1       1.0  0.5213427261297029  0.42500840336106194  0.4027047741972184  1.0000
  Co  Co2       1.0  0.4786521825738247  0.0749903266508269  0.902702186077832  1.0000
  Co  Co3       1.0  0.47865521106952247  0.5749868566106001  0.5972988485323967  1.0000
  Co  Co4       1.0  0.5213467294501796  0.9250150926255857  0.09729610676227203  1.0000
  H   H1        1.0  0.9269583472026993  0.30485181752420226  0.4727036912167151  1.0000
  H   H2        1.0  0.0730462581633802  0.195149729657679  0.9727076801448434  1.0000
  H   H3        1.0  0.07304840413065965  0.6951561755360062  0.5272952678528782  1.0000
  H   H4        1.0  0.9269459830975249  0.8048531210631111  0.027292611412960407  1.0000
  H   H5        1.0  0.1353001012384567  0.1877628213450748  0.5286758448602882  1.0000
  H   H6        1.0  0.864700389110716  0.3122296000711486  0.028680022431736098  1.0000
  H   H7        1.0  0.8647057487065551  0.8122388208359724  0.4713217817304454  1.0000
  H   H8        1.0  0.13529136473551526  0.6877681709983748  0.9713236003079901  1.0000
  H   H9        1.0  0.9316261952883239  0.1701753495101173  0.7945947204893289  1.0000
  H   H10       1.0  0.06836911375446422  0.3298255579785519  0.2945969589679294  1.0000
  H   H11       1.0  0.06837476019663313  0.8298148464648563  0.2054022398602342  1.0000
  H   H12       1.0  0.9316293108571542  0.6701747816454856  0.7054039988169336  1.0000
  H   H13       1.0  0.7307171514054077  0.2948165139919184  0.7376018289648628  1.0000
  H   H14       1.0  0.26928653437702366  0.20519439450272614  0.2376039995419816  1.0000
  H   H15       1.0  0.2692838774863019  0.7051774904230611  0.2623971300995223  1.0000
  H   H16       1.0  0.7307167112947467  0.7948135828840608  0.7623936270577262  1.0000
  H   H17       1.0  0.16311773211808137  0.15014807088875406  0.8397379124687063  1.0000
  H   H18       1.0  0.8368768535415114  0.3498517156009343  0.3397415618479728  1.0000
  H   H19       1.0  0.8368846855789301  0.8498573640555379  0.1602583816554528  1.0000
  H   H20       1.0  0.1631198416955826  0.6501397307069964  0.6602600621683123  1.0000
  H   H21       1.0  0.26861351928234717  0.0386646367099175  0.5746185908753176  1.0000
  H   H22       1.0  0.7313875575937843  0.4613342884614512  0.0746220417745462  1.0000
  H   H23       1.0  0.7313870956242638  0.9613280964827027  0.42537903571411567  1.0000
  H   H24       1.0  0.26860935787268386  0.5386685831620353  0.9253829134375168  1.0000
  H   H25       1.0  0.4863878528996112  0.9687101837542899  0.6909135075746705  1.0000
  H   H26       1.0  0.5136102809240625  0.5312895241157917  0.19091607794257467  1.0000
  H   H27       1.0  0.5136144179610793  0.0312876343210888  0.3090854514915407  1.0000
  H   H28       1.0  0.48638814366928784  0.4687108155171131  0.8090902097396367  1.0000
  C   C1        1.0  0.8141202277725624  0.30727605317174783  0.6007039867775177  1.0000
  C   C2        1.0  0.18588432282448514  0.19273059134430784  0.10070634736666763  1.0000
  C   C3        1.0  0.1858860361552601  0.6927268602327603  0.3992956385253308  1.0000
  C   C4        1.0  0.8141122520887407  0.8072748174846326  0.8992919454764063  1.0000
  C   C5        1.0  0.9282842855533958  0.27417974090975156  0.5430663019763742  1.0000
  C   C6        1.0  0.07171983208052521  0.225824169372153  0.0430696785330298  1.0000
  C   C7        1.0  0.07172322034568887  0.7258269861540613  0.4569326570911301  1.0000
  C   C8        1.0  0.9282755008545962  0.7741774258008081  0.956931279256885  1.0000
  C   C9        1.0  0.0449098700022574  0.2069185462642196  0.5747336187196553  1.0000
  C   C10       1.0  0.9550908655055962  0.29308291650832524  0.0747381982304347  1.0000
  C   C11       1.0  0.9550932288423156  0.7930818142492201  0.4252640078734374  1.0000
  C   C12       1.0  0.04490288487991028  0.7069174022229847  0.925264092034695  1.0000
  C   C13       1.0  0.04790724714087702  0.17025747417779513  0.6655163912196471  1.0000
  C   C14       1.0  0.9520912836445633  0.3297430142392912  0.16552037764682134  1.0000
  C   C15       1.0  0.95209619228433  0.8297403491168893  0.3344799028964047  1.0000
  C   C16       1.0  0.047903561880453076  0.6702535012801931  0.8344825788506826  1.0000
  C   C17       1.0  0.9331981267923127  0.20034755461196604  0.7239696081505544  1.0000
  C   C18       1.0  0.06680199992280224  0.299655675976581  0.22397246293809306  1.0000
  C   C19       1.0  0.06680565320439773  0.7996477314683972  0.2760280184371311  1.0000
  C   C20       1.0  0.933194501567705  0.7003459244201198  0.776028494850344  1.0000
  C   C21       1.0  0.8179269636472454  0.2695244028358204  0.691618672232309  1.0000
  C   C22       1.0  0.18207620930034815  0.23048381020511505  0.19162110998542664  1.0000
  C   C23       1.0  0.18207723033683718  0.7304721544657937  0.3083796205931507  1.0000
  C   C24       1.0  0.8179250398298593  0.7695216195209866  0.8083785153260551  1.0000
  C   C25       1.0  0.6928059646639825  0.38205680499010714  0.5651804421606316  1.0000
  C   C26       1.0  0.3071972468545924  0.11794844487072001  0.0651810278438774  1.0000
  C   C27       1.0  0.3071963796034538  0.6179448215252706  0.4348205156203947  1.0000
  C   C28       1.0  0.6928009106036866  0.8820582404020884  0.9348172649983156  1.0000
  C   C29       1.0  0.21948897707913056  0.10774407886768958  0.7843475108696937  1.0000
  C   C30       1.0  0.7805071567507366  0.39225552852971657  0.2843520457517457  1.0000
  C   C31       1.0  0.780512879803318  0.8922524679820185  0.21564811701006192  1.0000
  C   C32       1.0  0.2194891979034495  0.6077384549980707  0.7156515769787504  1.0000
  C   C33       1.0  0.2768961048557017  0.048143353138314623  0.6465981862696709  1.0000
  C   C34       1.0  0.723100559054984  0.4518545246604191  0.14660097507719166  1.0000
  C   C35       1.0  0.723103755487472  0.9518506460496001  0.3533987740846883  1.0000
  C   C36       1.0  0.2768966969943918  0.548145809743211  0.853401981420653  1.0000
  C   C37       1.0  0.3850425979620767  0.0151878924137918  0.7049663912967006  1.0000
  C   C38       1.0  0.6149556624558841  0.48481272727595853  0.2049695142686758  1.0000
  C   C39       1.0  0.6149596729031757  0.98480992565937  0.2950312352951698  1.0000
  C   C40       1.0  0.3850431761316955  0.5151888835748651  0.795035440939813  1.0000
  N   N1        1.0  0.347949674132991  0.0531515426745983  0.7906925413937813  1.0000
  N   N2        1.0  0.6520460756405554  0.44685062305049433  0.290695502107539  1.0000
  N   N3        1.0  0.6520499190454315  0.9468488021676366  0.2093050852037592  1.0000
  N   N4        1.0  0.3479515209803238  0.5531471741388144  0.7093087868619463  1.0000
  N   N5        1.0  0.17204890269910317  0.10760548777939502  0.697706758522017  1.0000
  N   N6        1.0  0.8279478249255378  0.3923938313103151  0.1977105066647198  1.0000
  N   N7        1.0  0.8279513716314496  0.8923897826297633  0.30229086807011646  1.0000
  N   N8        1.0  0.17204860314223686  0.6076039606541458  0.8022931160690803  1.0000
  Cl  Cl1       1.0  0.3288731824662107  0.16944903902999903  0.4102699138190218  1.0000
  Cl  Cl2       1.0  0.6711278577336444  0.3305472050622172  0.9102699574949257  1.0000
  Cl  Cl3       1.0  0.6711259233089563  0.8305462261554198  0.5897277127745966  1.0000
  Cl  Cl4       1.0  0.3288744865429222  0.6694544214487265  0.08972833533742632  1.0000
  O   O1        1.0  0.6959056217382197  0.4111441593958887  0.4813078670465388  1.0000
  O   O2        1.0  0.30409466443223465  0.08885866674010148  0.9813104116766169  1.0000
  O   O3        1.0  0.3040979644959095  0.5888612807810106  0.5186937569734766  1.0000
  O   O4        1.0  0.6959039070157048  0.9111492897528491  0.018687881166187005  1.0000
  O   O5        1.0  0.5930824007415653  0.41557435740135423  0.6196548148837664  1.0000
  O   O6        1.0  0.40692077801194426  0.0844285365128314  0.1196557530723084  1.0000
  O   O7        1.0  0.4069210386653737  0.5844234659021978  0.3803468091296338  1.0000
  O   O8        1.0  0.5930749689219682  0.9155743298758381  0.8803425397695435  1.0000
