data_image0
_chemical_formula_structural       Zn4H36C48Br8N12O4
_chemical_formula_sum              "Zn4 H36 C48 Br8 N12 O4"
_cell_length_a       7.284222536770668
_cell_length_b       12.056597807338981
_cell_length_c       15.005440426007201
_cell_angle_alpha    89.99993170724747
_cell_angle_beta     89.99991455772366
_cell_angle_gamma    96.91116773470672

_space_group_name_H-M_alt    "P 1"
_space_group_IT_number       1

loop_
  _space_group_symop_operation_xyz
  'x, y, z'

loop_
  _atom_site_type_symbol
  _atom_site_label
  _atom_site_symmetry_multiplicity
  _atom_site_fract_x
  _atom_site_fract_y
  _atom_site_fract_z
  _atom_site_occupancy
  Zn  Zn1       1.0  0.8185783230251146  0.4267290135303555  0.2364397255921631  1.0000
  Zn  Zn2       1.0  0.6814205139733502  0.0732723191228501  0.7364425978884838  1.0000
  Zn  Zn3       1.0  0.1814240246309212  0.5732716309721014  0.7635593850625212  1.0000
  Zn  Zn4       1.0  0.31858694514591707  0.9267266089269128  0.2635591784648739  1.0000
  H   H1        1.0  0.7171052367273701  0.5740016337481322  0.83012103621747  1.0000
  H   H2        1.0  0.7828922558099621  0.9260009369339317  0.3301248564209018  1.0000
  H   H3        1.0  0.28289455519277606  0.4259998689783657  0.1698794072877092  1.0000
  H   H4        1.0  0.21711364774912315  0.0739971671058441  0.6698782527833629  1.0000
  H   H5        1.0  0.7993382835631028  0.7719709884543066  0.8794676793008023  1.0000
  H   H6        1.0  0.7006557542660232  0.7280290134567905  0.379471751014222  1.0000
  H   H7        1.0  0.20065758219162436  0.22803138390225539  0.12053343063043089  1.0000
  H   H8        1.0  0.2993444824442904  0.27196830079106604  0.620530691767641  1.0000
  H   H9        1.0  0.8527972767602919  0.8181301415724107  0.0392777028186444  1.0000
  H   H10       1.0  0.6471990388049846  0.6818696018337885  0.5392824976857398  1.0000
  H   H11       1.0  0.14719410744561404  0.18187059417076062  0.9607247399650163  1.0000
  H   H12       1.0  0.352804123893968  0.3181285250174568  0.46071994509460984  1.0000
  H   H13       1.0  0.8414660456254168  0.669910893672487  0.1543153873323462  1.0000
  H   H14       1.0  0.6585348268657045  0.8300860989260669  0.6543200326911744  1.0000
  H   H15       1.0  0.15852870936571864  0.33008646619889953  0.845685056176741  1.0000
  H   H16       1.0  0.3414645947963492  0.1699137329701159  0.34568241008981465  1.0000
  H   H17       1.0  0.5456214324023917  0.2544002069355927  0.1952235284605237  1.0000
  H   H18       1.0  0.9543734256624178  0.24560123121363378  0.6952246934635653  1.0000
  H   H19       1.0  0.4543853967971217  0.7456020741773697  0.8047775814665172  1.0000
  H   H20       1.0  0.04561851392688959  0.7544020107729918  0.304777082893736  1.0000
  H   H21       1.0  0.806077304314961  0.18404182489629053  0.9433314595527307  1.0000
  H   H22       1.0  0.6939246093444992  0.3159574449214304  0.4433314544155209  1.0000
  H   H23       1.0  0.19393015480751083  0.8159571031552063  0.0566683175257552  1.0000
  H   H24       1.0  0.3060783682355748  0.684039846520136  0.5566656569656344  1.0000
  H   H25       1.0  0.7654719859784225  0.9845781934373578  0.986057598422647  1.0000
  H   H26       1.0  0.7345285617275154  0.5154215671183381  0.4860551816343488  1.0000
  H   H27       1.0  0.23453036167226327  0.0154224510622143  0.0139448443568213  1.0000
  H   H28       1.0  0.26547323055475414  0.48457657114585123  0.5139385976220723  1.0000
  H   H29       1.0  0.6214571863021662  0.9276852960912407  0.13622191228573402  1.0000
  H   H30       1.0  0.8785446699425848  0.5723159048765751  0.6362179690120725  1.0000
  H   H31       1.0  0.3785408649314235  0.0723145472115476  0.8637791976458615  1.0000
  H   H32       1.0  0.12145375155552786  0.4276856092599814  0.3637771430939694  1.0000
  H   H33       1.0  0.6642765308059638  0.3500284859020156  0.9060043071893276  1.0000
  H   H34       1.0  0.8357213914240591  0.14997088268228254  0.406007015877492  1.0000
  H   H35       1.0  0.3357242612920361  0.649971334591598  0.0939948034663516  1.0000
  H   H36       1.0  0.1642886234289521  0.8500271871422953  0.593994760475283  1.0000
  C   C1        1.0  0.7372200706118689  0.5124158380993364  0.9657112131461075  1.0000
  C   C2        1.0  0.7627748755736975  0.9875831678461683  0.4657136575507436  1.0000
  C   C3        1.0  0.26277798062278634  0.4875840052040274  0.034289230360528195  1.0000
  C   C4        1.0  0.23722399070923222  0.0124141578088697  0.5342867859567731  1.0000
  C   C5        1.0  0.7435549606246212  0.5948676885875059  0.8999716816049599  1.0000
  C   C6        1.0  0.7564401966635047  0.9051314310443814  0.3999762084773408  1.0000
  C   C7        1.0  0.2564420904364725  0.40513383695103755  0.1000274290513445  1.0000
  C   C8        1.0  0.24356278090908032  0.0948658603931491  0.600025567878525  1.0000
  C   C9        1.0  0.7865840111617786  0.7048311050299034  0.9286038946558933  1.0000
  C   C10       1.0  0.713411239309515  0.7951688005009528  0.4286078927596009  1.0000
  C   C11       1.0  0.21341166946657356  0.2951704319129433  0.07139654885084919  1.0000
  C   C12       1.0  0.286588812273351  0.2048276783326131  0.5713945500227311  1.0000
  C   C13       1.0  0.8190604715696922  0.7311592107470446  0.0192823427130406  1.0000
  C   C14       1.0  0.6809343526456219  0.7688397432286961  0.5192883617852146  1.0000
  C   C15       1.0  0.18093383863020307  0.26884233760240045  0.9807167679443153  1.0000
  C   C16       1.0  0.3190633283298682  0.23115842924377725  0.4807147474221907  1.0000
  C   C17       1.0  0.813730705957333  0.6490982229207062  0.08468599550184311  1.0000
  C   C18       1.0  0.6862725010724874  0.8509022203453894  0.5846899332495994  1.0000
  C   C19       1.0  0.1862659748477996  0.35090163178868056  0.9153137815803587  1.0000
  C   C20       1.0  0.31372555016002934  0.14909762295681617  0.4153118431069487  1.0000
  C   C21       1.0  0.7728331989466425  0.5380909590846271  0.05685482492257421  1.0000
  C   C22       1.0  0.7271658010347937  0.9619087311129776  0.5568599585203273  1.0000
  C   C23       1.0  0.22716796340731096  0.46191053223814293  0.9431436193072074  1.0000
  C   C24       1.0  0.2728320650713485  0.038090276775520196  0.44314115141173  1.0000
  C   C25       1.0  0.7127949804801333  0.356080042003761  0.0458769162018555  1.0000
  C   C26       1.0  0.7872027277773981  0.14391996078067854  0.5458796397155297  1.0000
  C   C27       1.0  0.2872101080371011  0.6439205796877943  0.9541221944517772  1.0000
  C   C28       1.0  0.2127990644930975  0.8560781774771725  0.4541214702154335  1.0000
  C   C29       1.0  0.6008359573106503  0.2005145384460008  0.1464305630298739  1.0000
  C   C30       1.0  0.8991588723140894  0.29948614867077333  0.6464310530750906  1.0000
  C   C31       1.0  0.39916520503902586  0.7994869528744745  0.8535705468997392  1.0000
  C   C32       1.0  0.10083406745307145  0.700515411082975  0.3535693904327033  1.0000
  C   C33       1.0  0.6831848867502972  0.23705115819209507  0.0660883202680935  1.0000
  C   C34       1.0  0.8168088304403582  0.26294967927061913  0.5660902414550152  1.0000
  C   C35       1.0  0.3168162756047296  0.7629503331312504  0.9339094575367284  1.0000
  C   C36       1.0  0.1831890356689955  0.7370493286196055  0.4339088692021775  1.0000
  C   C37       1.0  0.7406771278577794  0.1585994890155078  0.006501947008921099  1.0000
  C   C38       1.0  0.7593201514647349  0.3413980756225287  0.5065018388176554  1.0000
  C   C39       1.0  0.25932466441271634  0.8413986492423433  0.993499162922042  1.0000
  C   C40       1.0  0.2406816408100455  0.6586000626376319  0.4934966054134762  1.0000
  C   C41       1.0  0.7182507838092889  0.046623258602132  0.0305806089816016  1.0000
  C   C42       1.0  0.7817473438302401  0.4533784414676275  0.530579044280465  1.0000
  C   C43       1.0  0.28175019341401253  0.953377397304621  0.9694198345235207  1.0000
  C   C44       1.0  0.21825070741405037  0.5466214018409233  0.4694154014015552  1.0000
  C   C45       1.0  0.6410274421971636  0.013415234886011308  0.1119877952660246  1.0000
  C   C46       1.0  0.8589716093291956  0.48658547758181914  0.6119848065429209  1.0000
  C   C47       1.0  0.35897042390577394  0.9865837730007526  0.8880153139409046  1.0000
  C   C48       1.0  0.14102736754803402  0.5134185427958825  0.388012304836586  1.0000
  Br  Br1       1.0  0.5511336559546934  0.4619550577983986  0.3178776083797601  1.0000
  Br  Br2       1.0  0.9488624383348068  0.03804113293988109  0.8178783083222996  1.0000
  Br  Br3       1.0  0.44886787665949873  0.5380481043558377  0.6821175037242995  1.0000
  Br  Br4       1.0  0.051143094974733676  0.9619553002741839  0.1821214687581048  1.0000
  Br  Br5       1.0  0.9475251806873288  0.2604375406542943  0.2818532834993235  1.0000
  Br  Br6       1.0  0.5524668434600742  0.2395646059081216  0.7818507660582339  1.0000
  Br  Br7       1.0  0.05247442610323115  0.7395631266567547  0.7181484928562297  1.0000
  Br  Br8       1.0  0.4475312077745885  0.7604352373952424  0.21814967744840166  1.0000
  N   N1        1.0  0.7580550632334919  0.4384790002909185  0.10489545384744757  1.0000
  N   N2        1.0  0.7419467519189027  0.061521701625707706  0.6048989569870286  1.0000
  N   N3        1.0  0.24195295127345423  0.5615224340046082  0.8951029903797119  1.0000
  N   N4        1.0  0.25805366992206313  0.9384764480381734  0.39510148651949345  1.0000
  N   N5        1.0  0.7010860908296834  0.39731051366362635  0.9619173244698586  1.0000
  N   N6        1.0  0.7989104665454718  0.1026896050452919  0.4619207729110925  1.0000
  N   N7        1.0  0.2989137010915358  0.6026909890634399  0.03808245261036089  1.0000
  N   N8        1.0  0.20109406658514933  0.897308510401082  0.5380810034437715  1.0000
  N   N9        1.0  0.5821568869688606  0.09046727210581908  0.1679894698749393  1.0000
  N   N10       1.0  0.9178397992401558  0.409535872566238  0.6679885081363821  1.0000
  N   N11       1.0  0.4178430900798063  0.9095350660355449  0.8320103072048113  1.0000
  N   N12       1.0  0.08215332565979593  0.5904665226046787  0.33200860324615883  1.0000
  O   O1        1.0  0.5121998579476568  0.06108475798892239  0.24763995534889455  1.0000
  O   O2        1.0  0.9878004986505718  0.43891737930828617  0.7476375788316787  1.0000
  O   O3        1.0  0.4878011192745718  0.938915897917255  0.7523611545811875  1.0000
  O   O4        1.0  0.01219555224016491  0.5610858284671778  0.2523581996994295  1.0000
