data_image0
_chemical_formula_structural       Cu4H40C24N12Cl4O8
_chemical_formula_sum              "Cu4 H40 C24 N12 Cl4 O8"
_cell_length_a       3.9529182980486204
_cell_length_b       9.077502639116613
_cell_length_c       24.888741539051615
_cell_angle_alpha    90.00019787546212
_cell_angle_beta     90.0001251724329
_cell_angle_gamma    90.00055007971423

_space_group_name_H-M_alt    "P 1"
_space_group_IT_number       1

loop_
  _space_group_symop_operation_xyz
  'x, y, z'

loop_
  _atom_site_type_symbol
  _atom_site_label
  _atom_site_symmetry_multiplicity
  _atom_site_fract_x
  _atom_site_fract_y
  _atom_site_fract_z
  _atom_site_occupancy
  Cu  Cu1       1.0  0.929284175608494  0.5007580142127636  0.10305912454871449  1.0000
  Cu  Cu2       1.0  0.9292933365384283  0.0007551477710734  0.396942291342583  1.0000
  Cu  Cu3       1.0  0.07070669175997318  0.5007552749792126  0.6030577366869636  1.0000
  Cu  Cu4       1.0  0.0707006741433958  0.0007612215136276998  0.896943314212251  1.0000
  H   H1        1.0  0.6176242886783141  0.8257046378356705  0.09814620889459749  1.0000
  H   H2        1.0  0.6176309862414157  0.3257040212658779  0.4018547017155427  1.0000
  H   H3        1.0  0.3823685672421177  0.8257065154863739  0.5981441275043338  1.0000
  H   H4        1.0  0.38236261596018284  0.3257081021486528  0.9018546292648963  1.0000
  H   H5        1.0  0.2117530292499338  0.615992478562191  0.2159703637450008  1.0000
  H   H6        1.0  0.21177584306997224  0.1159885404789236  0.2840337561179851  1.0000
  H   H7        1.0  0.7882368272755753  0.6159883534414803  0.7159664167196169  1.0000
  H   H8        1.0  0.7882242243192362  0.11599212666333608  0.7840314162435646  1.0000
  H   H9        1.0  0.027563284523274893  0.8930067846438802  0.25343202170625284  1.0000
  H   H10       1.0  0.027570413396105692  0.3929980844564794  0.2465699704917697  1.0000
  H   H11       1.0  0.9724407325473758  0.893000130081532  0.7534301486580544  1.0000
  H   H12       1.0  0.9724402721668353  0.3929991412444735  0.7465668920827895  1.0000
  H   H13       1.0  0.5090205412272294  0.0680204310370698  0.1373381331869936  1.0000
  H   H14       1.0  0.5090275371497696  0.5680169485129837  0.3626624152600186  1.0000
  H   H15       1.0  0.49098914247818465  0.06801946105170487  0.6373376972973261  1.0000
  H   H16       1.0  0.49100119795502184  0.568017080155215  0.8626603722195653  1.0000
  H   H17       1.0  0.480978442733459  0.0670964493949313  0.20906694516956037  1.0000
  H   H18       1.0  0.4809794097838631  0.5670889811791751  0.29093359221134557  1.0000
  H   H19       1.0  0.519027130453665  0.06709449582655938  0.7090665191799842  1.0000
  H   H20       1.0  0.5190255677835861  0.5670936373414931  0.7909307554969088  1.0000
  H   H21       1.0  0.8538933137123337  0.13359224251367854  0.1768524870663057  1.0000
  H   H22       1.0  0.8538947161167268  0.6335883849312509  0.3231478637626495  1.0000
  H   H23       1.0  0.14611833957317794  0.1335898207005499  0.6768511258282928  1.0000
  H   H24       1.0  0.14612227182798412  0.6335914712558617  0.8231485114690072  1.0000
  H   H25       1.0  0.13217401429627526  0.2692441882937898  0.053490643113761394  1.0000
  H   H26       1.0  0.1321897325788939  0.7692403999902878  0.4465096233495416  1.0000
  H   H27       1.0  0.867821233473215  0.269234890080739  0.553489134913292  1.0000
  H   H28       1.0  0.8678217731529471  0.7692355082493092  0.9465093205134493  1.0000
  H   H29       1.0  0.7243491394247524  0.2606990770407052  0.063132451158296  1.0000
  H   H30       1.0  0.7243672572072483  0.7606974004706897  0.4368664065082584  1.0000
  H   H31       1.0  0.2756409921044067  0.26069830216685824  0.5631335463870002  1.0000
  H   H32       1.0  0.27564393132258397  0.7607065401765495  0.9368654928000522  1.0000
  H   H33       1.0  0.08455602424931635  0.3935414547617029  0.974454915196766  1.0000
  H   H34       1.0  0.08456352427413799  0.8935402806600194  0.5255458306021126  1.0000
  H   H35       1.0  0.915447633409961  0.3935309162116809  0.47445348564569667  1.0000
  H   H36       1.0  0.9154348952694488  0.893533046948754  0.025546008201921194  1.0000
  H   H37       1.0  0.6873249139887818  0.3047583951756039  0.9750399692925811  1.0000
  H   H38       1.0  0.687339995342725  0.8047495041577263  0.5249592706152413  1.0000
  H   H39       1.0  0.3126742780127572  0.30475082724427677  0.47504073763865046  1.0000
  H   H40       1.0  0.31265900211778325  0.8047485459080547  0.0249596371720102  1.0000
  C   C1        1.0  0.7585505670409844  0.8047213623222689  0.1345554540014078  1.0000
  C   C2        1.0  0.7585618321347525  0.3047181969429999  0.3654462835757073  1.0000
  C   C3        1.0  0.24143979165994267  0.8047204434541939  0.6345533228490935  1.0000
  C   C4        1.0  0.24143587815081693  0.3047216845469975  0.8654453577877632  1.0000
  C   C5        1.0  0.05718195146547339  0.7003324434747212  0.1975729144581635  1.0000
  C   C6        1.0  0.05719489477254308  0.2003275783615734  0.3024308550210222  1.0000
  C   C7        1.0  0.9428095030088525  0.7003278674402791  0.6975694237985833  1.0000
  C   C8        1.0  0.9428022081961128  0.20033071366228228  0.8024285697269916  1.0000
  C   C9        1.0  0.9732687981978355  0.838434114438314  0.2156548325099195  1.0000
  C   C10       1.0  0.9732789673782347  0.3384301793087089  0.2843462196700202  1.0000
  C   C11       1.0  0.026730983815106392  0.838430088432794  0.7156530273302549  1.0000
  C   C12       1.0  0.0267285041516701  0.33842945815219144  0.784344816278292  1.0000
  C   C13       1.0  0.649913991976973  0.05189642587740909  0.1746779225645412  1.0000
  C   C14       1.0  0.6499179535446798  0.5518925889410582  0.32532265536801924  1.0000
  C   C15       1.0  0.35009078371815144  0.0518948627536275  0.6746770351372858  1.0000
  C   C16       1.0  0.35009474530455253  0.551893229062614  0.8253209643659573  1.0000
  C   C17       1.0  0.8472811668099279  0.3836384604086475  0.9969539714738289  1.0000
  C   C18       1.0  0.8472908925354046  0.8836337678863868  0.5030458258261987  1.0000
  C   C19       1.0  0.1527175185432341  0.38363021909663075  0.4969538797640283  1.0000
  C   C20       1.0  0.15270953592001035  0.8836332379110416  0.0030461359062101995  1.0000
  C   C21       1.0  0.6863106220802776  0.5356457906319321  0.9973465855306997  1.0000
  C   C22       1.0  0.6863068656001445  0.0356391818239814  0.5026531194176442  1.0000
  C   C23       1.0  0.31368886690655257  0.535639328595721  0.4973473542356571  1.0000
  C   C24       1.0  0.3136800509176467  0.035636024656575685  0.002655093488066  1.0000
  N   N1        1.0  0.9210874311090506  0.6802084424524182  0.1469907459412951  1.0000
  N   N2        1.0  0.9210985281943491  0.18020736229915  0.35301209792476845  1.0000
  N   N3        1.0  0.07890542908327798  0.6802090425954075  0.6469877538238293  1.0000
  N   N4        1.0  0.07888869864948586  0.18020906401577005  0.853010712955452  1.0000
  N   N5        1.0  0.7874849730397883  0.9031958363075887  0.1750537518161934  1.0000
  N   N6        1.0  0.7874906313187534  0.40319228653063277  0.3249477179343074  1.0000
  N   N7        1.0  0.2125156782680192  0.9031947956564746  0.6750520122372237  1.0000
  N   N8        1.0  0.21251627703278322  0.40319455074450145  0.8249463801446097  1.0000
  N   N9        1.0  0.9152695467436868  0.3316759954644012  0.05190616835404429  1.0000
  N   N10       1.0  0.9152827566700521  0.8316733238169149  0.44809364949144737  1.0000
  N   N11       1.0  0.08472198699617187  0.33167001035851473  0.5519051872269145  1.0000
  N   N12       1.0  0.08471748856721457  0.831673948426932  0.9480938737296184  1.0000
  Cl  Cl1       1.0  0.3413454891656257  0.38677522483796156  0.1532551391674843  1.0000
  Cl  Cl2       1.0  0.3413497402288213  0.886772692854265  0.3467445452683505  1.0000
  Cl  Cl3       1.0  0.6586562097955094  0.38676945258102086  0.6532543606899209  1.0000
  Cl  Cl4       1.0  0.6586452823067575  0.8867757335696209  0.846745373946014  1.0000
  O   O1        1.0  0.6796996801996965  0.6046392980066526  0.04262579690047369  1.0000
  O   O2        1.0  0.679679300363922  0.10462929372072687  0.45737445603130306  1.0000
  O   O3        1.0  0.3203128830948359  0.6046321013860805  0.5426248989539815  1.0000
  O   O4        1.0  0.3202975630120618  0.10463862149279629  0.9573763706127352  1.0000
  O   O5        1.0  0.5767842306985996  0.5883823259344821  0.9539635299883712  1.0000
  O   O6        1.0  0.5767835902213178  0.08837392565472157  0.5460374079212896  1.0000
  O   O7        1.0  0.4232183564675153  0.5883785282231171  0.4539623284279131  1.0000
  O   O8        1.0  0.42322024585422463  0.08837563609063889  0.04604022424566521  1.0000
