data_image0
_chemical_formula_structural       Cu2H8C6N14
_chemical_formula_sum              "Cu2 H8 C6 N14"
_cell_length_a       5.869134310646544
_cell_length_b       7.501419227565041
_cell_length_c       8.070047589349567
_cell_angle_alpha    77.43088485870005
_cell_angle_beta     78.46941074136929
_cell_angle_gamma    82.52713185824281

_space_group_name_H-M_alt    "P 1"
_space_group_IT_number       1

loop_
  _space_group_symop_operation_xyz
  'x, y, z'

loop_
  _atom_site_type_symbol
  _atom_site_label
  _atom_site_symmetry_multiplicity
  _atom_site_fract_x
  _atom_site_fract_y
  _atom_site_fract_z
  _atom_site_occupancy
  Cu  Cu1       1.0  0.2362269202535998  0.465726046435094  0.08612911230746795  1.0000
  Cu  Cu2       1.0  0.763764617571134  0.5342665027184452  0.9138614730807789  1.0000
  H   H1        1.0  0.35930971384513566  0.15048037222017285  0.3528610028812977  1.0000
  H   H2        1.0  0.640714846397934  0.8495323620039699  0.6471378312599683  1.0000
  H   H3        1.0  0.46401945135279743  0.17698656808073568  0.5371856057812608  1.0000
  H   H4        1.0  0.5359830952178087  0.8230373272289311  0.4628131422586322  1.0000
  H   H5        1.0  0.5395845108883179  0.32792477964341765  0.33364723141206554  1.0000
  H   H6        1.0  0.4604068750231037  0.6720922786614666  0.6663744232625818  1.0000
  H   H7        1.0  0.8394336899897468  0.6905975420260688  0.2585926625664285  1.0000
  H   H8        1.0  0.1605702820798456  0.3094126288200556  0.7414110844532332  1.0000
  C   C1        1.0  0.4000633669102883  0.2513811776844861  0.4205762323245991  1.0000
  C   C2        1.0  0.5999830716064594  0.7486395623692985  0.5794226006898529  1.0000
  C   C3        1.0  0.19121964886691958  0.37945259275919346  0.4625795745134695  1.0000
  C   C4        1.0  0.8087851805714052  0.6205506773161745  0.5374353321731532  1.0000
  C   C5        1.0  0.9077791391583788  0.6044165060257497  0.3679889350924412  1.0000
  C   C6        1.0  0.0922267262601508  0.3955909397618029  0.6320076296152025  1.0000
  N   N1        1.0  0.010512777721054098  0.30677188149370244  0.05476350241283259  1.0000
  N   N2        1.0  0.9894785659073976  0.6932233883280505  0.9452315267193254  1.0000
  N   N3        1.0  0.9544598852218372  0.17052218483677004  0.1602907550427944  1.0000
  N   N4        1.0  0.045519817494863384  0.8294525829626878  0.8397225465904726  1.0000
  N   N5        1.0  0.8961946912581739  0.03958481819276471  0.25873704656341084  1.0000
  N   N6        1.0  0.10379220249997452  0.9604200818486817  0.7412567437819179  1.0000
  N   N7        1.0  0.48497225643460956  0.635460076791901  0.07206831457281741  1.0000
  N   N8        1.0  0.5150332083517597  0.3645158863859592  0.9279283994376328  1.0000
  N   N9        1.0  0.4534746965866248  0.7748891330363037  0.13052593742649782  1.0000
  N   N10       1.0  0.5465259971546814  0.2250814184929339  0.8694663932959658  1.0000
  N   N11       1.0  0.42272353597920914  0.9066881639763053  0.1878564032615628  1.0000
  N   N12       1.0  0.5772606278842005  0.0932920980553007  0.8121427241374022  1.0000
  N   N13       1.0  0.0937188995188976  0.4862281122581393  0.3322267075544119  1.0000
  N   N14       1.0  0.9062609940488715  0.5137946559703721  0.6677658306179524  1.0000
