data_image0
_chemical_formula_structural       Cd2Cu2H20C20N8Cl4O12
_chemical_formula_sum              "Cd2 Cu2 H20 C20 N8 Cl4 O12"
_cell_length_a       7.628299557131737
_cell_length_b       10.185476148735845
_cell_length_c       11.015949572418597
_cell_angle_alpha    68.33885954890677
_cell_angle_beta     88.79937123091753
_cell_angle_gamma    89.36530848880744

_space_group_name_H-M_alt    "P 1"
_space_group_IT_number       1

loop_
  _space_group_symop_operation_xyz
  'x, y, z'

loop_
  _atom_site_type_symbol
  _atom_site_label
  _atom_site_symmetry_multiplicity
  _atom_site_fract_x
  _atom_site_fract_y
  _atom_site_fract_z
  _atom_site_occupancy
  Cd  Cd1       1.0  0.8912822382940175  0.8489789423421144  0.9572854809147843  1.0000
  Cd  Cd2       1.0  0.10870714916894288  0.15101660485503024  0.042718169366437984  1.0000
  Cu  Cu1       1.0  0.39430842427874774  0.33840372709246225  0.44517416085495404  1.0000
  Cu  Cu2       1.0  0.6057086572827399  0.6616118033036996  0.5548202008117045  1.0000
  H   H1        1.0  0.9865202394043991  0.7359710029961805  0.25780107077027736  1.0000
  H   H2        1.0  0.013464120254212699  0.26402238672032036  0.7422161322465186  1.0000
  H   H3        1.0  0.19521557108259194  0.5983464653143785  0.9726609181341104  1.0000
  H   H4        1.0  0.8047773463065298  0.40165665524622807  0.027344563488711084  1.0000
  H   H5        1.0  0.3838807101345694  0.4197420374717852  0.141215042703223  1.0000
  H   H6        1.0  0.6161120163461007  0.5802642394434443  0.8587884322512452  1.0000
  H   H7        1.0  0.8332006096709674  0.9689883065028868  0.6470918684455355  1.0000
  H   H8        1.0  0.1667960572410081  0.031016974439118897  0.3529046213717706  1.0000
  H   H9        1.0  0.5831320374808371  0.09994297932345832  0.9225551516613706  1.0000
  H   H10       1.0  0.4168222205069938  0.9000237603841087  0.07745101552909257  1.0000
  H   H11       1.0  0.3990653456009454  0.2713082077921811  0.7463296360942379  1.0000
  H   H12       1.0  0.6009052998960911  0.7286707937949827  0.253677403373338  1.0000
  H   H13       1.0  0.051375788256230195  0.2409392502951562  0.4900198301261725  1.0000
  H   H14       1.0  0.9486404444067135  0.759067742846348  0.509972988935381  1.0000
  H   H15       1.0  0.17086713714697044  0.1011938989239951  0.5167637336060338  1.0000
  H   H16       1.0  0.8291451599898921  0.8988129472863876  0.4832282992131666  1.0000
  H   H17       1.0  0.11232522088369731  0.8253691497899497  0.7465014518822244  1.0000
  H   H18       1.0  0.8876832351160713  0.1746376953955959  0.2535033594126048  1.0000
  H   H19       1.0  0.9402942006365791  0.7658809460270531  0.7156842973577255  1.0000
  H   H20       1.0  0.05972086423689399  0.2341239198398881  0.2843120089073636  1.0000
  C   C1        1.0  0.1821569801939162  0.5701110522009929  0.32491169401740894  1.0000
  C   C2        1.0  0.8178460759950639  0.429897662404457  0.6750871139172502  1.0000
  C   C3        1.0  0.07605552983590509  0.665513440546505  0.23236534449821988  1.0000
  C   C4        1.0  0.9239395588383343  0.3344749507008018  0.7676452420850025  1.0000
  C   C5        1.0  0.19137617244794566  0.5899151511910717  0.07424206338973238  1.0000
  C   C6        1.0  0.8086197952004709  0.41008067331490133  0.9257659116772031  1.0000
  C   C7        1.0  0.2975765926118966  0.49165442126284375  0.1671620607264259  1.0000
  C   C8        1.0  0.7024185925249355  0.508353999480363  0.8328351747235202  1.0000
  C   C9        1.0  0.1895472848705069  0.5558481611424568  0.4656490906251562  1.0000
  C   C10       1.0  0.8104599480937864  0.44415762185618496  0.5343597447364772  1.0000
  C   C11       1.0  0.6296130392984479  0.1252734799030293  0.5720977616322784  1.0000
  C   C12       1.0  0.37038636388714247  0.8747297720601068  0.4278984800582463  1.0000
  C   C13       1.0  0.7329349577074566  0.0336710810411844  0.6694373366414936  1.0000
  C   C14       1.0  0.26706338188810713  0.9663279037449968  0.33056041421151144  1.0000
  C   C15       1.0  0.5953980864911799  0.1058478000640122  0.8218895793185793  1.0000
  C   C16       1.0  0.40458051537964207  0.8941293263017445  0.17811434164905643  1.0000
  C   C17       1.0  0.4920638769099312  0.2008364063728152  0.724424408720118  1.0000
  C   C18       1.0  0.5079103537592787  0.7991491034901514  0.2755839252257886  1.0000
  C   C19       1.0  0.6439768858697832  0.14527446559886673  0.4299503591573952  1.0000
  C   C20       1.0  0.3560454171792529  0.8547423711861839  0.570049807830152  1.0000
  N   N1        1.0  0.290382606933683  0.4829563476971188  0.2910458933496045  1.0000
  N   N2        1.0  0.7096208059017995  0.5170460152907452  0.7089533106636168  1.0000
  N   N3        1.0  0.08173207286103691  0.6751124676390958  0.10729160118351189  1.0000
  N   N4        1.0  0.9182582676999189  0.3248894769103218  0.892711613661767  1.0000
  N   N5        1.0  0.5113761846176176  0.20925724832246567  0.6009965725210976  1.0000
  N   N6        1.0  0.4886287037004065  0.7907419651371156  0.3990009815449511  1.0000
  N   N7        1.0  0.71535081905391  0.0240568882174301  0.7939055952203374  1.0000
  N   N8        1.0  0.2846273408487718  0.9759287588495696  0.20610262065339666  1.0000
  Cl  Cl1       1.0  0.8349556699620492  0.9807109224616753  0.12314963272849873  1.0000
  Cl  Cl2       1.0  0.16503152878224372  0.0192771457421301  0.876856668426413  1.0000
  Cl  Cl3       1.0  0.6323985633810949  0.6872357748018915  0.031639689294720975  1.0000
  Cl  Cl4       1.0  0.3675948952703719  0.31275782805941793  0.9683672907604687  1.0000
  O   O1        1.0  0.28672814130295876  0.4535191884621739  0.5382205380761818  1.0000
  O   O2        1.0  0.7133061025993541  0.5464948452178504  0.4617758554759916  1.0000
  O   O3        1.0  0.10940843121681346  0.6408538463365475  0.5043510977553822  1.0000
  O   O4        1.0  0.8906138355208739  0.35914075296061304  0.49565411212265786  1.0000
  O   O5        1.0  0.5427671454708474  0.2402726060573741  0.353837700384112  1.0000
  O   O6        1.0  0.4572601566942894  0.759748644835753  0.646161743683315  1.0000
  O   O7        1.0  0.7505540206089805  0.07110077045823002  0.39395476032216686  1.0000
  O   O8        1.0  0.2494643105457612  0.9289170136646093  0.6060478702298866  1.0000
  O   O9        1.0  0.14747984911153367  0.19875082188446674  0.45451904280903926  1.0000
  O   O10       1.0  0.8525362541815723  0.80125827225109  0.5454721370354392  1.0000
  O   O11       1.0  0.008346864296868301  0.7684901716792966  0.7900888069439702  1.0000
  O   O12       1.0  0.991664339174349  0.23151351135012996  0.20990888915909514  1.0000
