data_image0
_chemical_formula_structural       Cd2H16C20N4Cl8
_chemical_formula_sum              "Cd2 H16 C20 N4 Cl8"
_cell_length_a       3.8455976782218757
_cell_length_b       11.580045276943633
_cell_length_c       14.238104763145948
_cell_angle_alpha    89.99947932033604
_cell_angle_beta     89.99996648538324
_cell_angle_gamma    89.38646032684449

_space_group_name_H-M_alt    "P 1"
_space_group_IT_number       1

loop_
  _space_group_symop_operation_xyz
  'x, y, z'

loop_
  _atom_site_type_symbol
  _atom_site_label
  _atom_site_symmetry_multiplicity
  _atom_site_fract_x
  _atom_site_fract_y
  _atom_site_fract_z
  _atom_site_occupancy
  Cd  Cd1       1.0  5.3196308939999995e-06  3.4153264749999997e-06  7.023275898999999e-07  1.0000
  Cd  Cd2       1.0  0.9999968780156223  0.5000047967956504  0.49999719989063623  1.0000
  H   H1        1.0  0.7373861289728082  0.8953061770881091  0.802854176729646  1.0000
  H   H2        1.0  0.7373776109731478  0.3953132396441461  0.6971446332954656  1.0000
  H   H3        1.0  0.2626241981526434  0.10469278253080459  0.197155747628031  1.0000
  H   H4        1.0  0.26264873453467164  0.6046976929026755  0.3028378997305339  1.0000
  H   H5        1.0  0.9785781932449993  0.12310331142001728  0.571166079077351  1.0000
  H   H6        1.0  0.9785763588618437  0.6231035598859761  0.9288354204859388  1.0000
  H   H7        1.0  0.021395550530357403  0.8768907355408118  0.4288396312572472  1.0000
  H   H8        1.0  0.021412897858439802  0.3768877822084208  0.0711653734728941  1.0000
  H   H9        1.0  0.23851830580512254  0.25729462487972654  0.6875181989315421  1.0000
  H   H10       1.0  0.23850898884239055  0.7572988133318361  0.8124803046966136  1.0000
  H   H11       1.0  0.7614867016984306  0.742700919463424  0.3124818926698651  1.0000
  H   H12       1.0  0.761498767663049  0.2427010288261683  0.1875247032733043  1.0000
  H   H13       1.0  0.23674485339280685  0.20232146378629778  0.859587652719128  1.0000
  H   H14       1.0  0.23673847587618002  0.7023275444486923  0.6404126642807455  1.0000
  H   H15       1.0  0.7632498716092329  0.7976776105922948  0.1404145458919217  1.0000
  H   H16       1.0  0.7632669775765138  0.29768095074811646  0.35959304599786185  1.0000
  C   C1        1.0  0.8486396233951865  0.9741745719072767  0.7744729915918782  1.0000
  C   C2        1.0  0.8486309900054392  0.4741795924250668  0.7255252162132563  1.0000
  C   C3        1.0  0.15138104569793848  0.025822584492054504  0.225529207024401  1.0000
  C   C4        1.0  0.15139476088992146  0.525814072240152  0.2744636379429437  1.0000
  C   C5        1.0  0.8435871031457439  0.9984555406554849  0.6785156080931216  1.0000
  C   C6        1.0  0.8435756802996367  0.49845951439949937  0.8214831223925999  1.0000
  C   C7        1.0  0.1563971609687727  0.0015418833812006  0.3214929115908305  1.0000
  C   C8        1.0  0.15643730666375424  0.5015411530094268  0.17850432705718333  1.0000
  C   C9        1.0  0.9808800764164115  0.1018791423183458  0.6456859072340606  1.0000
  C   C10       1.0  0.9808602755948711  0.6018829425751662  0.8543129403093346  1.0000
  C   C11       1.0  0.019122509106225004  0.8981216014553014  0.3543219100955497  1.0000
  C   C12       1.0  0.019136752466145903  0.3981074787997232  0.1456822349270226  1.0000
  C   C13       1.0  0.1237601246236366  0.1768828432507803  0.7113046774134943  1.0000
  C   C14       1.0  0.12376113703304267  0.6768837658597773  0.7886965474546273  1.0000
  C   C15       1.0  0.8762320594845504  0.8231179770358208  0.28869681885058895  1.0000
  C   C16       1.0  0.8762363964322047  0.3231213331222236  0.21130986517783867  1.0000
  C   C17       1.0  0.12337061981595807  0.1470672859558704  0.8060526512410959  1.0000
  C   C18       1.0  0.12336673715683587  0.6470727528476273  0.6939452834871319  1.0000
  C   C19       1.0  0.8766215048336861  0.8529318075577875  0.19394673800740486  1.0000
  C   C20       1.0  0.8766281959553125  0.35293236526553057  0.30605902212345626  1.0000
  N   N1        1.0  0.9870158099730018  0.04749629398649801  0.8367592920261515  1.0000
  N   N2        1.0  0.987022329788175  0.5475002987120517  0.6632371493081877  1.0000
  N   N3        1.0  0.012976166020237701  0.9524984825382247  0.16324501362306168  1.0000
  N   N4        1.0  0.012985664569441696  0.45250645063915573  0.33675802586670756  1.0000
  Cl  Cl1       1.0  0.49043130637186044  0.1559002225997048  0.029029231825504105  1.0000
  Cl  Cl2       1.0  0.4904293592244144  0.6558991396416191  0.4709682158615749  1.0000
  Cl  Cl3       1.0  0.5095689761063368  0.8441091742595572  0.970970859724787  1.0000
  Cl  Cl4       1.0  0.5095682337097571  0.3441076861718385  0.529029768676466  1.0000
  Cl  Cl5       1.0  0.6710300395514606  0.8984266090162976  0.6019327659339666  1.0000
  Cl  Cl6       1.0  0.6710288077483284  0.39842792883425904  0.8980632212589086  1.0000
  Cl  Cl7       1.0  0.3289464532313174  0.10157173579059274  0.3980722420437957  1.0000
  Cl  Cl8       1.0  0.3289525587279627  0.6015608805117552  0.1019249305779013  1.0000
