data_image0
_chemical_formula_structural       Zn4H16C74O26F16
_chemical_formula_sum              "Zn4 H16 C74 O26 F16"
_cell_length_a       15.785815144633878
_cell_length_b       15.967887666078676
_cell_length_c       30.282845158154228
_cell_angle_alpha    89.2110410305029
_cell_angle_beta     89.36246815312991
_cell_angle_gamma    89.98542484120753

_space_group_name_H-M_alt    "P 1"
_space_group_IT_number       1

loop_
  _space_group_symop_operation_xyz
  'x, y, z'

loop_
  _atom_site_type_symbol
  _atom_site_label
  _atom_site_symmetry_multiplicity
  _atom_site_fract_x
  _atom_site_fract_y
  _atom_site_fract_z
  _atom_site_occupancy
  Zn  Zn1       1.0  0.4985834080741044  0.9111822705505902  0.500489368526793  1.0000
  Zn  Zn2       1.0  0.5013613583730602  0.08180382735628915  0.4987940558340753  1.0000
  Zn  Zn3       1.0  0.9144878741671577  0.49886834042869316  0.9999694415730642  1.0000
  Zn  Zn4       1.0  0.08628881370819391  0.5025019931944643  0.998917433761015  1.0000
  H   H1        1.0  0.8831803700050005  0.8760295311926074  0.2250596030194814  1.0000
  H   H2        1.0  0.8361283391985099  0.07847818371986652  0.7781997059018763  1.0000
  H   H3        1.0  0.1091820260209744  0.19906553677734715  0.34827792563798  1.0000
  H   H4        1.0  0.7788312729111129  0.833908671359467  0.6849831929110762  1.0000
  H   H5        1.0  0.2078969085298823  0.8648573030485524  0.15026870838001113  1.0000
  H   H6        1.0  0.8338906891525183  0.23691674556678788  0.814552995358845  1.0000
  H   H7        1.0  0.7697083816387222  0.15670516392988532  0.30874582067403367  1.0000
  H   H8        1.0  0.11942215774423913  0.799018918311788  0.6593692415249777  1.0000
  H   H9        1.0  0.1321888748026439  0.053115409628496514  0.8001578317965893  1.0000
  H   H10       1.0  0.11166943002526611  0.22143592648559732  0.1597871391974479  1.0000
  H   H11       1.0  0.8415654564889722  0.8507119560932425  0.8592965449741995  1.0000
  H   H12       1.0  0.8536340323772434  0.14149344298109415  0.1397090598253783  1.0000
  H   H13       1.0  0.10702284723944192  0.7914024696409072  0.8429937002603223  1.0000
  H   H14       1.0  0.18561065189965834  0.14657402205585873  0.206566903664438  1.0000
  H   H15       1.0  0.7948787517492237  0.9557689256377133  0.8201283775720042  1.0000
  H   H16       1.0  0.15914777054759105  0.0007666895558174002  0.20895025727841698  1.0000
  C   C1        1.0  0.39020205036310074  0.9635303296505741  0.5610644571320123  1.0000
  C   C2        1.0  0.9355708756592165  0.1400370021130968  0.7936753962489504  1.0000
  C   C3        1.0  0.09399926707646243  0.836535601976877  0.16207938209979028  1.0000
  C   C4        1.0  0.9469077141320313  0.20574717893043737  0.8237413751275395  1.0000
  C   C5        1.0  0.8711423065588734  0.05076391635099501  0.2894133944877239  1.0000
  C   C6        1.0  0.08789723933422522  0.9266758412930401  0.6982504604098736  1.0000
  C   C7        1.0  0.8051525420807979  0.04467665838654972  0.3204941251272331  1.0000
  C   C8        1.0  0.1510359042956466  0.9132008426201568  0.666741925358366  1.0000
  C   C9        1.0  0.13236829429754954  0.9341544320070129  0.2952087501864113  1.0000
  C   C10       1.0  0.9119899100947324  0.08465836142004692  0.6915754110644767  1.0000
  C   C11       1.0  0.1920529478146804  0.9451772001229062  0.3282372110876395  1.0000
  C   C12       1.0  0.6079271940627821  0.9584296261051863  0.438551633272489  1.0000
  C   C13       1.0  0.8519816366430463  0.08954203038165083  0.6585367615829083  1.0000
  C   C14       1.0  0.005652529842876699  0.992143396319243  0.2479931014081771  1.0000
  C   C15       1.0  0.9957993894070684  0.009643691268117004  0.7523234047747778  1.0000
  C   C16       1.0  0.3841799581361868  0.034230875393092206  0.44337520648839046  1.0000
  C   C17       1.0  0.6176260479178096  0.030050281119713407  0.5549654036027576  1.0000
  C   C18       1.0  0.9275373744320775  0.9856998102660984  0.2795483073072944  1.0000
  C   C19       1.0  0.07340012180140582  0.0019319139533778005  0.7204692842618812  1.0000
  C   C20       1.0  0.7927522165932218  0.9693228587753852  0.34463237305630656  1.0000
  C   C21       1.0  0.20538384030837167  0.9801230548031872  0.654604528987896  1.0000
  C   C22       1.0  0.0779917875544029  0.9996822889430561  0.282087858298354  1.0000
  C   C23       1.0  0.0581332904659604  0.18087866810103756  0.1682989580857495  1.0000
  C   C24       1.0  0.9229516131787676  0.012462657149725906  0.7182458216272848  1.0000
  C   C25       1.0  0.20156282640905235  0.020979774416474604  0.3506564327726096  1.0000
  C   C26       1.0  0.799242023642748  0.021531340193085707  0.648649811071749  1.0000
  C   C27       1.0  0.014084916356814903  0.9164501862091188  0.2166798110625976  1.0000
  C   C28       1.0  0.0023206279903647  0.08591936593589372  0.7833066385850032  1.0000
  C   C29       1.0  0.023526085596337502  0.785090291137813  0.15374933793216167  1.0000
  C   C30       1.0  0.0246364855746677  0.21747549176879494  0.8453435885795457  1.0000
  C   C31       1.0  0.999736656401872  0.06542815598337633  0.21386855436462324  1.0000
  C   C32       1.0  0.9877521962226439  0.93763053345311  0.786990986813464  1.0000
  C   C33       1.0  0.9811977286722001  0.19155027503697403  0.14613308467265534  1.0000
  C   C34       1.0  0.9026855375237732  0.8610391902514467  0.8429342499670297  1.0000
  C   C35       1.0  0.9720960743273823  0.8108622049456573  0.8546844983652803  1.0000
  C   C36       1.0  0.2638059612879573  0.030170788055251304  0.3831301578103563  1.0000
  C   C37       1.0  0.7376501375135831  0.027201291942326112  0.6155223470770679  1.0000
  C   C38       1.0  0.3186904946326337  0.0359344383700133  0.4108296260494483  1.0000
  C   C39       1.0  0.6833872879251647  0.031148977764431204  0.5873445711209369  1.0000
  C   C40       1.0  0.9150464898237373  0.9121695109634518  0.3051794144082933  1.0000
  C   C41       1.0  0.12730718955501888  0.06818615470537993  0.7071513072067643  1.0000
  C   C42       1.0  0.727807465165114  0.9612050458737543  0.3765793305103173  1.0000
  C   C43       1.0  0.2700604391419291  0.9709194203173015  0.6227126497341118  1.0000
  C   C44       1.0  0.6719387453061858  0.9560972582272173  0.4045062582328853  1.0000
  C   C45       1.0  0.9255887245052039  0.0763105027622188  0.18890399586889117  1.0000
  C   C46       1.0  0.325840535989137  0.9639179633873954  0.5949360809463257  1.0000
  C   C47       1.0  0.0281471106747517  0.720871426749284  0.12252143118787018  1.0000
  C   C48       1.0  0.03477123716306348  0.2813693535147267  0.8763283198645266  1.0000
  C   C49       1.0  0.0328808750191669  0.6661387014585503  0.0949814577220351  1.0000
  C   C50       1.0  0.040386353609335415  0.3362920280160824  0.903677487430535  1.0000
  C   C51       1.0  0.9722494400691846  0.25586752015225755  0.1139498519340307  1.0000
  C   C52       1.0  0.963496012114014  0.7457120356652213  0.8865228478324312  1.0000
  C   C53       1.0  0.9658523489247415  0.31209106918604607  0.08664960383247688  1.0000
  C   C54       1.0  0.9578068522612712  0.6884672145517715  0.9133481953169422  1.0000
  C   C55       1.0  0.966195164299336  0.3795390475063769  0.05462273217993639  1.0000
  C   C56       1.0  0.0562207161383554  0.8891048687300299  0.8019702694918678  1.0000
  C   C57       1.0  0.9605416283981187  0.6201490149298936  0.9447949960632585  1.0000
  C   C58       1.0  0.032565635236579696  0.6046045287469967  0.061133449387163794  1.0000
  C   C59       1.0  0.03831056147951981  0.3980034788360102  0.9375012575022338  1.0000
  C   C60       1.0  0.8496524903046351  0.9037457378978646  0.3359359860773452  1.0000
  C   C61       1.0  0.19111838837012132  0.056837070309960304  0.6755516668374708  1.0000
  C   C62       1.0  0.08684879187199362  0.0735776328115421  0.3060996575450047  1.0000
  C   C63       1.0  0.8712619889480495  0.9447844049200218  0.7070902324688075  1.0000
  C   C64       1.0  0.1460578121324616  0.08685132333973661  0.3389376535563713  1.0000
  C   C65       1.0  0.8107040507603003  0.9472836759163743  0.6737095290559338  1.0000
  C   C66       1.0  0.9432631433602341  0.8660033595667473  0.2081151871822016  1.0000
  C   C67       1.0  0.9140420365761417  0.1368461036601687  0.15651153848845206  1.0000
  C   C68       1.0  0.07911612642197238  0.09508989784727362  0.8061685997808539  1.0000
  C   C69       1.0  0.9486845382055337  0.8029450027823375  0.1776100057488463  1.0000
  C   C70       1.0  0.08917435027785811  0.15929310514730596  0.8354810122158796  1.0000
  C   C71       1.0  0.06687586731848681  0.11890308689977762  0.2006939015400775  1.0000
  C   C72       1.0  0.911302422553881  0.9232915395966189  0.8107169837930711  1.0000
  C   C73       1.0  0.0506852098437989  0.8267894365206061  0.834122417087883  1.0000
  C   C74       1.0  0.08891223021935704  0.9025359202751208  0.19236755444372727  1.0000
  O   O1        1.0  0.4152145917372608  0.8916457503853011  0.5468645807839818  1.0000
  O   O2        1.0  0.0336937203008745  0.5956837922437119  0.9562194990356118  1.0000
  O   O3        1.0  0.1053218787897379  0.5807100554490957  0.045630418562858197  1.0000
  O   O4        1.0  0.9655718170707672  0.42148920216880753  0.9509923201396971  1.0000
  O   O5        1.0  0.9608210809861077  0.5782601257135628  0.0485004365402233  1.0000
  O   O6        1.0  0.10995889518650162  0.4249040956820523  0.9521104468932577  1.0000
  O   O7        1.0  0.03828920205602771  0.40683118948828684  0.0423712829294942  1.0000
  O   O8        1.0  0.8892535959363598  0.589540036201207  0.9586298389176378  1.0000
  O   O9        1.0  0.14528943011426784  0.1075840740623235  0.22020500610636162  1.0000
  O   O10       1.0  0.841943766716895  0.9728747061646816  0.800978401160229  1.0000
  O   O11       1.0  0.16415223117642347  0.9451964794334347  0.19542264223071018  1.0000
  O   O12       1.0  0.583982300448824  0.030525852308457502  0.45073741383752247  1.0000
  O   O13       1.0  0.854822345103571  0.13718484996702784  0.7765124031555144  1.0000
  O   O14       1.0  0.15234732930063902  0.16110764817885587  0.35985474184480637  1.0000
  O   O15       1.0  0.7619908403855437  0.8796436750235872  0.665177944746624  1.0000
  O   O16       1.0  0.1676693283016135  0.8227267019932328  0.1400713055495117  1.0000
  O   O17       1.0  0.8811357768084705  0.2574248019187523  0.8323241970496865  1.0000
  O   O18       1.0  0.7523002681348602  0.10994147056617723  0.32791118532136204  1.0000
  O   O19       1.0  0.16173227182666494  0.8379399158567654  0.647308499463854  1.0000
  O   O20       1.0  0.4131783222590073  0.10521569372713911  0.45646751327794977  1.0000
  O   O21       1.0  0.5907474186315085  0.9587150675538681  0.5435623976476478  1.0000
  O   O22       1.0  0.4084136827169261  0.962401338377106  0.45651853846800344  1.0000
  O   O23       1.0  0.5910907796888835  0.10164780260110723  0.5403381106970357  1.0000
  O   O24       1.0  0.41710699035086657  0.0345073138336076  0.5476409441514604  1.0000
  O   O25       1.0  0.5803974470087069  0.8877438035407795  0.45414046233354094  1.0000
  O   O26       1.0  0.8937255319082028  0.40656035212133196  0.041250898445717596  1.0000
  F   F1        1.0  0.8420039615636131  0.8309893140198458  0.3586483369187263  1.0000
  F   F2        1.0  0.9611635074866599  0.15270899250177916  0.6975518655595465  1.0000
  F   F3        1.0  0.8790229336764881  0.7555368300168226  0.1701041945520956  1.0000
  F   F4        1.0  0.16444422531054673  0.16733850212388293  0.8562574354017867  1.0000
  F   F5        1.0  0.2425955896184462  0.8801071546436533  0.3386912249204882  1.0000
  F   F6        1.0  0.8445128372629186  0.16155328651616682  0.6352400821452875  1.0000
  F   F7        1.0  0.9688129540343056  0.8466111797213501  0.3013260865977969  1.0000
  F   F8        1.0  0.12088890834627362  0.14628459048179107  0.723470805284002  1.0000
  F   F9        1.0  0.2405319520898317  0.12291578453999112  0.6647843799496584  1.0000
  F   F10       1.0  0.0356493829274172  0.14092997206469704  0.2969387792528764  1.0000
  F   F11       1.0  0.8752074493607651  0.8688583853648169  0.7287096828936512  1.0000
  F   F12       1.0  0.8584823182640238  0.024722960731260502  0.1973009522864899  1.0000
  F   F13       1.0  0.13535863835691236  0.9030752247522502  0.784734056475102  1.0000
  F   F14       1.0  0.8759017222332235  0.12769887512239111  0.2688488878756559  1.0000
  F   F15       1.0  0.038150805231886395  0.858071604546247  0.7076361408145003  1.0000
  F   F16       1.0  0.13030501305812695  0.8575000369943883  0.27705682202822146  1.0000
