data_image0
_chemical_formula_structural       Cd2H8C12S4N8
_chemical_formula_sum              "Cd2 H8 C12 S4 N8"
_cell_length_a       5.6019799869285185
_cell_length_b       6.884766096532614
_cell_length_c       12.514871038620972
_cell_angle_alpha    89.99932576567934
_cell_angle_beta     90.00108219210748
_cell_angle_gamma    106.24729646918205

_space_group_name_H-M_alt    "P 1"
_space_group_IT_number       1

loop_
  _space_group_symop_operation_xyz
  'x, y, z'

loop_
  _atom_site_type_symbol
  _atom_site_label
  _atom_site_symmetry_multiplicity
  _atom_site_fract_x
  _atom_site_fract_y
  _atom_site_fract_z
  _atom_site_occupancy
  Cd  Cd1       1.0  0.49999778251370225  0.49999348218816647  0.5000015964731688  1.0000
  Cd  Cd2       1.0  0.5000074459528889  0.500005564165761  0.999999640320766  1.0000
  H   H1        1.0  0.4201503510156002  0.5195440066733851  0.2500002154555645  1.0000
  H   H2        1.0  0.579857711563122  0.48044296373035417  0.7499981832472641  1.0000
  H   H3        1.0  0.024733991481610925  0.8653151703271503  0.4223906931552079  1.0000
  H   H4        1.0  0.9752665437229951  0.13470149254378327  0.9223863281363904  1.0000
  H   H5        1.0  0.9752542679505467  0.13468691706734856  0.5776140978083788  1.0000
  H   H6        1.0  0.024734276932513025  0.8653111894779426  0.077614467597904  1.0000
  H   H7        1.0  0.24760384300284946  0.9970043635649898  0.2500042800494597  1.0000
  H   H8        1.0  0.7523829861530871  0.0030143623259845996  0.7500013099017622  1.0000
  C   C1        1.0  0.9333301973546071  0.3083007920375849  0.4030122593053278  1.0000
  C   C2        1.0  0.06665242955347846  0.6917024809747613  0.9030132639553513  1.0000
  C   C3        1.0  0.06667101518895181  0.6916922256775918  0.596988536496454  1.0000
  C   C4        1.0  0.9333621547987362  0.30830869503826347  0.096981139447081  1.0000
  C   C5        1.0  0.6054606023391217  0.6265109938170781  0.2500030377268558  1.0000
  C   C6        1.0  0.39454135720900035  0.3734789989401931  0.7499993561869758  1.0000
  C   C7        1.0  0.9392465895995767  0.8188910720714798  0.3448110139183811  1.0000
  C   C8        1.0  0.06075069991508289  0.18112047001609705  0.8448073969439845  1.0000
  C   C9        1.0  0.06074575972845509  0.18111252995873164  0.6551905808598876  1.0000
  C   C10       1.0  0.9392444732090582  0.8188861586715673  0.15519499688547  1.0000
  C   C11       1.0  0.06253959879586557  0.8901872471909726  0.2500014583161985  1.0000
  C   C12       1.0  0.9374507374126394  0.1098208918236807  0.7500017345371434  1.0000
  S   S1        1.0  0.6407616651597792  0.1840440798656715  0.4103642911598797  1.0000
  S   S2        1.0  0.35923195380087247  0.81595911021423  0.9103557503284846  1.0000
  S   S3        1.0  0.35922831585615006  0.8159474198242901  0.5896333084019787  1.0000
  S   S4        1.0  0.640788150601715  0.18403694197634476  0.0896282655059153  1.0000
  N   N1        1.0  0.1477092028667926  0.396851112708809  0.39901259632630104  1.0000
  N   N2        1.0  0.8522838198670827  0.6031673398507278  0.8990128444898957  1.0000
  N   N3        1.0  0.8522723068977243  0.6031313069657002  0.6009897975264522  1.0000
  N   N4        1.0  0.14771930536763023  0.3968468559305974  0.10098795124907409  1.0000
  N   N5        1.0  0.7106054298992888  0.6871184603061024  0.34479530675995557  1.0000
  N   N6        1.0  0.2893994560921628  0.3128840096893271  0.844792740288284  1.0000
  N   N7        1.0  0.28939682107808545  0.31287758320478065  0.6552070871348619  1.0000
  N   N8        1.0  0.7106020478958682  0.6871150587746793  0.1552088545438579  1.0000
