data_image0
_chemical_formula_structural       H40Pt4C48S8
_chemical_formula_sum              "H40 Pt4 C48 S8"
_cell_length_a       7.124663988139915
_cell_length_b       13.654537068111663
_cell_length_c       13.654459791905156
_cell_angle_alpha    86.07856530804654
_cell_angle_beta     74.88020517029285
_cell_angle_gamma    74.87905967211516

_space_group_name_H-M_alt    "P 1"
_space_group_IT_number       1

loop_
  _space_group_symop_operation_xyz
  'x, y, z'

loop_
  _atom_site_type_symbol
  _atom_site_label
  _atom_site_symmetry_multiplicity
  _atom_site_fract_x
  _atom_site_fract_y
  _atom_site_fract_z
  _atom_site_occupancy
  H   H1        1.0  0.5421353764261312  0.2252774380746914  0.024833257324551994  1.0000
  H   H2        1.0  0.5195937380733253  0.524757059110307  0.27433925200077885  1.0000
  H   H3        1.0  0.7935000071273137  0.7739087000528997  0.9753428828236109  1.0000
  H   H4        1.0  0.3182560039893259  0.4749854033935747  0.7255706917710114  1.0000
  H   H5        1.0  0.29348074973284355  0.975343754184159  0.773910734962932  1.0000
  H   H6        1.0  0.019601379766875413  0.274332222272669  0.5247583052673477  1.0000
  H   H7        1.0  0.042131030311587374  0.024836279268967597  0.2252747557672805  1.0000
  H   H8        1.0  0.8182597013599058  0.7255806839567569  0.47498926158425536  1.0000
  H   H9        1.0  0.45924565749532276  0.4119440516142844  0.9978984063160324  1.0000
  H   H10       1.0  0.622607766769697  0.49728749004844264  0.08777615576515531  1.0000
  H   H11       1.0  0.8703131254428625  0.5873324887146083  0.0028602540714502004  1.0000
  H   H12       1.0  0.20711753532258118  0.5025499879706031  0.9121366846442382  1.0000
  H   H13       1.0  0.3703058542143508  0.002865146890968582  0.5873368387370589  1.0000
  H   H14       1.0  0.12262152955336338  0.08776919643970868  0.49728312545603603  1.0000
  H   H15       1.0  0.9592526709416727  0.9978911694696463  0.4119429891051779  1.0000
  H   H16       1.0  0.7071276921587212  0.9121450740643195  0.5025515627903515  1.0000
  H   H17       1.0  0.6814305338466156  0.4891477563094142  0.859259101955594  1.0000
  H   H18       1.0  0.9209734270975216  0.3579915507801203  0.010903371686694599  1.0000
  H   H19       1.0  0.03012814509211376  0.5106888456277687  0.1420152366940215  1.0000
  H   H20       1.0  0.2894527841873184  0.6418151894994252  0.9890416889461162  1.0000
  H   H21       1.0  0.5301239329498129  0.1420151614424796  0.5106897429535238  1.0000
  H   H22       1.0  0.42098266324814654  0.0108956326817307  0.35798221906635763  1.0000
  H   H23       1.0  0.18144812198445925  0.8592471268344894  0.48914294585424045  1.0000
  H   H24       1.0  0.7894620852187371  0.9890510050145664  0.6418164014308444  1.0000
  H   H25       1.0  0.9794975447153288  0.3785719992686438  0.744078003353536  1.0000
  H   H26       1.0  0.10847701216360403  0.24307515518535894  0.12168153401331948  1.0000
  H   H27       1.0  0.10145752422565806  0.6218093468653549  0.2570742825983173  1.0000
  H   H28       1.0  0.4731794012674224  0.7565853740456988  0.8782390276588784  1.0000
  H   H29       1.0  0.601458185901407  0.2570705777829971  0.6218138352775925  1.0000
  H   H30       1.0  0.6084577956019573  0.12168334514652909  0.24306628400736943  1.0000
  H   H31       1.0  0.47951618252064787  0.7440719422265258  0.37856375464151876  1.0000
  H   H32       1.0  0.9731834224901448  0.8782445431041593  0.7565922044800998  1.0000
  H   H33       1.0  0.05262309351293472  0.19122539920535084  0.765879543618439  1.0000
  H   H34       1.0  0.9949313091158133  0.2654602474384617  0.3089938533137441  1.0000
  H   H35       1.0  0.009079553826296619  0.8090936531188432  0.23465220700796863  1.0000
  H   H36       1.0  0.5696492018679531  0.7340594958427502  0.6909671474065888  1.0000
  H   H37       1.0  0.509079424183568  0.23464723472436333  0.8090991435348726  1.0000
  H   H38       1.0  0.4949142025201922  0.3089913986922567  0.26546063745384163  1.0000
  H   H39       1.0  0.5526276228922099  0.7658775587520879  0.19121909747848057  1.0000
  H   H40       1.0  0.06964098564434068  0.6909714463996223  0.7340696805164413  1.0000
  Pt  Pt1       1.0  0.0954553199017737  0.9998254533060091  0.9997949540709498  1.0000
  Pt  Pt2       1.0  0.846420769622327  0.49984167932007745  0.4999124043916509  1.0000
  Pt  Pt3       1.0  0.5954553821668467  0.999794996448216  0.9998281901225496  1.0000
  Pt  Pt4       1.0  0.34641860601805513  0.49991206971436236  0.49984350560292506  1.0000
  C   C1        1.0  0.8042098251765918  0.19731164650006855  0.898003300152304  1.0000
  C   C2        1.0  0.7530077622566296  0.3977426620277314  0.3025697873184399  1.0000
  C   C3        1.0  0.8998943365134904  0.802419215974531  0.10228974153933018  1.0000
  C   C4        1.0  0.45323654539469505  0.6019260844504615  0.6973577873853712  1.0000
  C   C5        1.0  0.39988069403502646  0.1022901119525486  0.802424069095167  1.0000
  C   C6        1.0  0.2530042103835299  0.302566356219323  0.39774558479480493  1.0000
  C   C7        1.0  0.30422299396244745  0.8980020395596354  0.19730399175499974  1.0000
  C   C8        1.0  0.9532414965930152  0.6973639066474818  0.6019293197036291  1.0000
  C   C9        1.0  0.6367387902400092  0.25937486618084177  0.9635086510999783  1.0000
  C   C10       1.0  0.6479123014013339  0.46325079429889365  0.2403618269487993  1.0000
  C   C11       1.0  0.8604606040848279  0.740071664399906  0.03688302020825059  1.0000
  C   C12       1.0  0.3511307088079573  0.5365005078147149  0.7595452024961844  1.0000
  C   C13       1.0  0.360437370743277  0.03688914036181499  0.7400789616589377  1.0000
  C   C14       1.0  0.1479254264729376  0.24035520494440726  0.46324758687514833  1.0000
  C   C15       1.0  0.1367472547115154  0.9635064036776552  0.25936834475713505  1.0000
  C   C16       1.0  0.8511309289282916  0.759562128842262  0.5365016182424113  1.0000
  C   C17       1.0  0.5914862947503677  0.3639495003054947  0.947826586107709  1.0000
  C   C18       1.0  0.7068305476937626  0.44726151529255276  0.135840191960348  1.0000
  C   C19       1.0  0.9040934783782857  0.6355468990495368  0.05286015872900409  1.0000
  C   C20       1.0  0.28940441194131933  0.5525593634547405  0.8640675418741635  1.0000
  C   C21       1.0  0.4040899825820645  0.05286574662563478  0.6355475768558064  1.0000
  C   C22       1.0  0.2068344039664111  0.1358300035962614  0.4472563399651008  1.0000
  C   C23       1.0  0.09149759528192875  0.9478148893826415  0.36394213791114544  1.0000
  C   C24       1.0  0.7894108877444027  0.8640779374112808  0.5525573084611678  1.0000
  C   C25       1.0  0.7159054566371589  0.40728782131341734  0.8702258511017219  1.0000
  C   C26       1.0  0.873940536807993  0.3693461841887071  0.0926876366451097  1.0000
  C   C27       1.0  0.9937248749233303  0.5925060213386002  0.1307424410284312  1.0000
  C   C28       1.0  0.3355464816351842  0.630475924548328  0.907237682917298  1.0000
  C   C29       1.0  0.4937173358500073  0.1307363877216332  0.5925116024731379  1.0000
  C   C30       1.0  0.3739416752699326  0.0926887574491602  0.3693356681149425  1.0000
  C   C31       1.0  0.21591412705384952  0.8702199657178082  0.4072862153860938  1.0000
  C   C32       1.0  0.8355508488631285  0.9072439683818556  0.6304826650578191  1.0000
  C   C33       1.0  0.8838763908280421  0.3452148973928004  0.8057438994235184  1.0000
  C   C34       1.0  0.9798833292858974  0.30499712266942686  0.15490753992403938  1.0000
  C   C35       1.0  0.0345739901995682  0.6548799646804326  0.1951609836482078  1.0000
  C   C36       1.0  0.43960180245133523  0.6947201711638512  0.8450406463740876  1.0000
  C   C37       1.0  0.5345662347933879  0.19516704464759016  0.6548880085129055  1.0000
  C   C38       1.0  0.47988089586188226  0.15490513707439393  0.30498755212392575  1.0000
  C   C39       1.0  0.3838903773541132  0.8057375597796508  0.3452087899641398  1.0000
  C   C40       1.0  0.9396063216130909  0.845048272683954  0.6947269342489334  1.0000
  C   C41       1.0  0.926405368342863  0.2401900488827309  0.8183072820831611  1.0000
  C   C42       1.0  0.9177941811095776  0.31784275983669363  0.2598992823724799  1.0000
  C   C43       1.0  0.9846369310250723  0.7598832643246992  0.1823013313322761  1.0000
  C   C44       1.0  0.4955231155471221  0.6817917830353366  0.7400609650739157  1.0000
  C   C45       1.0  0.4846278624052687  0.18230337331933547  0.7598822639784755  1.0000
  C   C46       1.0  0.41778913675743484  0.259892526454763  0.3178387047268103  1.0000
  C   C47       1.0  0.426411776444283  0.8183041698826157  0.24018640815961584  1.0000
  C   C48       1.0  0.9955212110828451  0.7400649682709142  0.6817952743959452  1.0000
  S   S1        1.0  0.8610134933702582  0.06265168922193  0.9047869046301853  1.0000
  S   S2        1.0  0.6748139467625902  0.4047788791558133  0.4372444373860701  1.0000
  S   S3        1.0  0.8288693757260358  0.9370683846244887  0.09492861103323949  1.0000
  S   S4        1.0  0.5170410283747696  0.5948827566461857  0.5626980971327882  1.0000
  S   S5        1.0  0.32886241327868493  0.09493161969533045  0.9370725781297934  1.0000
  S   S6        1.0  0.17481936947795151  0.437236695502115  0.4047808405260227  1.0000
  S   S7        1.0  0.3610264272819561  0.9047855277336863  0.06264475354542749  1.0000
  S   S8        1.0  0.017042968213260554  0.5627024766641497  0.5948827671418612  1.0000
