data_image0
_chemical_formula_structural       Cd2Ag4H32C48N16
_chemical_formula_sum              "Cd2 Ag4 H32 C48 N16"
_cell_length_a       8.890476381577248
_cell_length_b       11.155226990000083
_cell_length_c       13.281451007270066
_cell_angle_alpha    89.99998860810592
_cell_angle_beta     104.74114667238197
_cell_angle_gamma    89.99999502638703

_space_group_name_H-M_alt    "P 1"
_space_group_IT_number       1

loop_
  _space_group_symop_operation_xyz
  'x, y, z'

loop_
  _atom_site_type_symbol
  _atom_site_label
  _atom_site_symmetry_multiplicity
  _atom_site_fract_x
  _atom_site_fract_y
  _atom_site_fract_z
  _atom_site_occupancy
  Cd  Cd1       1.0  1.1630814356000003e-06  0.9999999999999362  1.9765836610000006e-07  1.0000
  Cd  Cd2       1.0  0.5000008652500866  0.4999987134284183  0.4999982183009947  1.0000
  Ag  Ag1       1.0  0.6732344617444354  0.32100821612261404  0.15870905533888896  1.0000
  Ag  Ag2       1.0  0.8267662947333178  0.8210096687148224  0.34128973442541616  1.0000
  Ag  Ag3       1.0  0.3267661056743875  0.678988314293541  0.8412871836048339  1.0000
  Ag  Ag4       1.0  0.17323543852902645  0.178990447463903  0.6587097143654218  1.0000
  H   H1        1.0  0.6168793549271355  0.9915360321955686  0.1830829187773375  1.0000
  H   H2        1.0  0.8831225377922748  0.4915372164999852  0.31691979987036933  1.0000
  H   H3        1.0  0.3831223804070944  0.0084631875421408  0.816918789155423  1.0000
  H   H4        1.0  0.1168768713789277  0.5084637961193439  0.6830815127454812  1.0000
  H   H5        1.0  0.3702487290715267  0.9656181624982025  0.045658933901989905  1.0000
  H   H6        1.0  0.12975321999977757  0.46561843692813215  0.45434315442713574  1.0000
  H   H7        1.0  0.6297518424906698  0.03438105723966339  0.9543418233251231  1.0000
  H   H8        1.0  0.8702473522530241  0.534380782809649  0.5456583558472587  1.0000
  H   H9        1.0  0.1134098368518366  0.1345395896880675  0.2235431617851944  1.0000
  H   H10       1.0  0.38658984556045073  0.634540156576861  0.2764593503073058  1.0000
  H   H11       1.0  0.8865907354009579  0.8654596300497135  0.7764583484892  1.0000
  H   H12       1.0  0.613409563610915  0.3654590631609836  0.7235419623087225  1.0000
  H   H13       1.0  0.3498860796421609  0.17228689094157093  0.3686433080420031  1.0000
  H   H14       1.0  0.15011592084638178  0.6722866127121991  0.1313580857441465  1.0000
  H   H15       1.0  0.6501156543107881  0.827713225237062  0.6313568937961165  1.0000
  H   H16       1.0  0.8498846514063343  0.3277135034663273  0.8686434245301555  1.0000
  H   H17       1.0  0.802020191192234  0.10469883957114938  0.2681227468551342  1.0000
  H   H18       1.0  0.6979782782388425  0.6046994307729392  0.23187644378221242  1.0000
  H   H19       1.0  0.19797921728868317  0.8952985872852891  0.7318778127137975  1.0000
  H   H20       1.0  0.3020188020072396  0.39529978896538864  0.7681214613279792  1.0000
  H   H21       1.0  0.0388574948910545  0.14390827289054192  0.4099744817621769  1.0000
  H   H22       1.0  0.4611421830946441  0.6439079813980513  0.09002501627274029  1.0000
  H   H23       1.0  0.9611419156618408  0.8560873610841497  0.5900283369487624  1.0000
  H   H24       1.0  0.5388572212428215  0.35608765257742203  0.9099710250127089  1.0000
  H   H25       1.0  0.7889970295269534  0.1453102524699048  0.6334966994250238  1.0000
  H   H26       1.0  0.7110044716741512  0.6453081219392232  0.8665038529397079  1.0000
  H   H27       1.0  0.21100005417198991  0.8546907601494738  0.366504970921376  1.0000
  H   H28       1.0  0.2890007501420513  0.35469020135789725  0.1334954357791247  1.0000
  H   H29       1.0  0.539404805044178  0.1094786440447209  0.5014799101773022  1.0000
  H   H30       1.0  0.9605967039032349  0.6094773607220318  0.9985221554284323  1.0000
  H   H31       1.0  0.4605911148824901  0.8905250578970436  0.4985208094631872  1.0000
  H   H32       1.0  0.039409683756410595  0.3905254447783976  0.001480343137430401  1.0000
  C   C1        1.0  0.8083146306983409  0.2392196566166476  0.07502235205856068  1.0000
  C   C2        1.0  0.6916884678527637  0.7392184102897589  0.4249783554298431  1.0000
  C   C3        1.0  0.19168942941739428  0.7607813560025959  0.9249782450961987  1.0000
  C   C4        1.0  0.30831675534464154  0.260779913007184  0.5750224393835452  1.0000
  C   C5        1.0  0.8818188863831296  0.8825691645631721  0.20912938142759427  1.0000
  C   C6        1.0  0.6181748806705869  0.3825667887129995  0.2908682101087123  1.0000
  C   C7        1.0  0.11817470599954309  0.11743364093815961  0.7908694368016924  1.0000
  C   C8        1.0  0.3818140552434528  0.6174279488224172  0.7091252992042598  1.0000
  C   C9        1.0  0.5047790222991325  0.08325150321761751  0.28924374184382623  1.0000
  C   C10       1.0  0.9952217791766458  0.5832511810094516  0.21075810752979146  1.0000
  C   C11       1.0  0.49522271165381687  0.9167486129610155  0.710756459994286  1.0000
  C   C12       1.0  0.004776467603811299  0.41674893516911055  0.7892437604750598  1.0000
  C   C13       1.0  0.508613198159601  0.02647364652298731  0.19550503496866156  1.0000
  C   C14       1.0  0.9913887764837168  0.5264733026987543  0.30449702338754037  1.0000
  C   C15       1.0  0.4913885364838748  0.9735273660963061  0.8044959199166399  1.0000
  C   C16       1.0  0.008611795769006399  0.4735268134797649  0.6955044868867688  1.0000
  C   C17       1.0  0.37119251087187877  0.011044122459011901  0.11857577496618177  1.0000
  C   C18       1.0  0.12880951895059667  0.5110446838214172  0.38142640402665506  1.0000
  C   C19       1.0  0.628809224462273  0.9889559937194433  0.8814259329664863  1.0000
  C   C20       1.0  0.871189889530086  0.4889554323572582  0.6185741555420066  1.0000
  C   C21       1.0  0.22794728260075908  0.10432594718216852  0.2183804973619203  1.0000
  C   C22       1.0  0.2720547299603879  0.6043265213049196  0.2816209099787983  1.0000
  C   C23       1.0  0.7720521258799237  0.8956741689965074  0.7816200622067413  1.0000
  C   C24       1.0  0.7279481684551995  0.395673594873472  0.718380995612236  1.0000
  C   C25       1.0  0.35966192613500425  0.12361016617882109  0.29944943323318535  1.0000
  C   C26       1.0  0.1403400830005452  0.6236098725052486  0.20055197026142932  1.0000
  C   C27       1.0  0.640339807817945  0.8763899499998117  0.700550768604927  1.0000
  C   C28       1.0  0.8596604892521781  0.3763902436732777  0.7994495400128797  1.0000
  C   C29       1.0  0.6484896228644529  0.10208929405113308  0.3722805396903723  1.0000
  C   C30       1.0  0.8515088491021601  0.6020881053904505  0.12772091060944749  1.0000
  C   C31       1.0  0.35150862184403303  0.8979126150091901  0.6277190691724712  1.0000
  C   C32       1.0  0.1484905600689643  0.3979138036696313  0.8722804020063109  1.0000
  C   C33       1.0  0.7929182178571779  0.11135221378288658  0.3480610102434554  1.0000
  C   C34       1.0  0.7070814162358302  0.6113528229881312  0.15194138891435927  1.0000
  C   C35       1.0  0.20708002892327218  0.8886479023956824  0.6519408577613958  1.0000
  C   C36       1.0  0.2929203177170407  0.3886481896312476  0.8480588129236607  1.0000
  C   C37       1.0  0.9256834518363631  0.1344588563135432  0.4271302607801601  1.0000
  C   C38       1.0  0.574316175389697  0.6344577008923409  0.07286912158015468  1.0000
  C   C39       1.0  0.0743147956349333  0.8655385705426965  0.5728723602722425  1.0000
  C   C40       1.0  0.4256855551106397  0.3655379330830045  0.9271273150220196  1.0000
  C   C41       1.0  0.7863620244615531  0.13594962791319182  0.5512106865740876  1.0000
  C   C42       1.0  0.7136383153208711  0.6359483744061123  0.9487896699991439  1.0000
  C   C43       1.0  0.21363389477466646  0.8640522811471741  0.4487892800192981  1.0000
  C   C44       1.0  0.28636690718577273  0.364051741772407  0.051210371766792696  1.0000
  C   C45       1.0  0.6471635425941712  0.11466007042908191  0.4771220315353517  1.0000
  C   C46       1.0  0.8528360895301005  0.6146598026037323  0.022878860868253453  1.0000
  C   C47       1.0  0.35283353903264464  0.8853445279535423  0.5228773796688557  1.0000
  C   C48       1.0  0.147166808885089  0.38534479577838715  0.9771230447223331  1.0000
  N   N1        1.0  0.8824031758144811  0.18232884001272254  0.030826511488427914  1.0000
  N   N2        1.0  0.6175999321521175  0.6823284852613654  0.4691734542993444  1.0000
  N   N3        1.0  0.11760204600164309  0.8176703797251434  0.9691727772303125  1.0000
  N   N4        1.0  0.38240180180098793  0.3176698380357763  0.5308267475389528  1.0000
  N   N5        1.0  0.909655025066577  0.9180108537671077  0.13282888463195508  1.0000
  N   N6        1.0  0.5903445483358992  0.4180093585841221  0.3671666759382147  1.0000
  N   N7        1.0  0.09034438065152979  0.08199105529341469  0.8671686627474173  1.0000
  N   N8        1.0  0.40965369015756176  0.5819880682732618  0.6328261554995791  1.0000
  N   N9        1.0  0.2326289686177319  0.048604993533956496  0.1294479614375703  1.0000
  N   N10       1.0  0.2673718914510204  0.5486046507851726  0.3705540124055631  1.0000
  N   N11       1.0  0.7673716036349915  0.9513951226445626  0.8705535488367317  1.0000
  N   N12       1.0  0.7326275170297406  0.4513945689527574  0.6294465471631909  1.0000
  N   N13       1.0  0.9237692658013401  0.1466540245922587  0.5272503239747124  1.0000
  N   N14       1.0  0.5762322344702965  0.6466536720536951  0.9727494750745507  1.0000
  N   N15       1.0  0.07622897959799249  0.8533451951457421  0.4727500379356755  1.0000
  N   N16       1.0  0.42377182357387255  0.35334465124358166  0.027248862938641597  1.0000
