data_image0
_chemical_formula_structural       Hg4H24C20S20I8
_chemical_formula_sum              "Hg4 H24 C20 S20 I8"
_cell_length_a       4.409862765002076
_cell_length_b       15.363270284796155
_cell_length_c       20.520106101838813
_cell_angle_alpha    100.47889496388608
_cell_angle_beta     89.99990776014533
_cell_angle_gamma    89.99994902608115

_space_group_name_H-M_alt    "P 1"
_space_group_IT_number       1

loop_
  _space_group_symop_operation_xyz
  'x, y, z'

loop_
  _atom_site_type_symbol
  _atom_site_label
  _atom_site_symmetry_multiplicity
  _atom_site_fract_x
  _atom_site_fract_y
  _atom_site_fract_z
  _atom_site_occupancy
  Hg  Hg1       1.0  0.26319845138936415  0.7570714498346687  0.913135598748454  1.0000
  Hg  Hg2       1.0  0.763208496431879  0.7429299302958937  0.58686767966838  1.0000
  Hg  Hg3       1.0  0.7367909108675688  0.24292854695921312  0.08686364471639511  1.0000
  Hg  Hg4       1.0  0.2367899363893854  0.2570707147306237  0.4131345776887728  1.0000
  H   H1        1.0  0.6737972160404906  0.6301536298840844  0.13492664210927072  1.0000
  H   H2        1.0  0.17380078941017268  0.8698509666736314  0.36507584193515197  1.0000
  H   H3        1.0  0.3261989491341523  0.3698490032441129  0.8650754036836616  1.0000
  H   H4        1.0  0.8261976434101539  0.13015100451513456  0.6349261120412423  1.0000
  H   H5        1.0  0.035915705203628086  0.5846390820306907  0.149174457729778  1.0000
  H   H6        1.0  0.5359208843526557  0.9153629136320806  0.35082771144330144  1.0000
  H   H7        1.0  0.9640781923324082  0.4153609033416926  0.8508272207991396  1.0000
  H   H8        1.0  0.464079816119465  0.0846364120842438  0.6491733882552355  1.0000
  H   H9        1.0  0.9775325287573223  0.6272388470967769  0.07497009757634741  1.0000
  H   H10       1.0  0.47754016304763497  0.872762336535068  0.4250318119707899  1.0000
  H   H11       1.0  0.022461368781534898  0.37275981439751155  0.9250313973203534  1.0000
  H   H12       1.0  0.5224605374235479  0.12723831534350444  0.5749689843469739  1.0000
  H   H13       1.0  0.8157794144016817  0.09471636724258299  0.23790499569980736  1.0000
  H   H14       1.0  0.315783673356961  0.40528616359107167  0.2620965778481121  1.0000
  H   H15       1.0  0.18421901842712163  0.9052842869205124  0.7620953136054  1.0000
  H   H16       1.0  0.6842170271175192  0.5947138286325925  0.7379036396405567  1.0000
  H   H17       1.0  0.8166385636546137  0.0737531658123061  0.3207760555954664  1.0000
  H   H18       1.0  0.3166388631744537  0.42624671925796787  0.17922466334930937  1.0000
  H   H19       1.0  0.18336213682599115  0.9262448428783545  0.6792233994318835  1.0000
  H   H20       1.0  0.6833595696576537  0.5737532752502262  0.8207750671268031  1.0000
  H   H21       1.0  0.503892138003131  0.03572507664054571  0.267288314333463  1.0000
  H   H22       1.0  0.003889633524742899  0.4642735931287874  0.23271185280672316  1.0000
  H   H23       1.0  0.4961085624760669  0.9642735939891622  0.732711232509999  1.0000
  H   H24       1.0  0.9961065316659228  0.5357250775016951  0.7672876940376058  1.0000
  C   C1        1.0  0.5066581152243187  0.8847324272570561  0.059166035866304915  1.0000
  C   C2        1.0  0.006646040623316198  0.615270253996286  0.44083331416578636  1.0000
  C   C3        1.0  0.49335845876566237  0.11526757181633938  0.9408327205803815  1.0000
  C   C4        1.0  0.9933433216331479  0.38472907857440214  0.5591663244959335  1.0000
  C   C5        1.0  0.8460131487945688  0.8146470787976057  0.13909086388897413  1.0000
  C   C6        1.0  0.34600827322140043  0.6853535058697132  0.3609071077164004  1.0000
  C   C7        1.0  0.15400342519305346  0.1853575629857147  0.8609065872185299  1.0000
  C   C8        1.0  0.6539924272606183  0.3146438408818994  0.6390922554948446  1.0000
  C   C9        1.0  0.8027598446308913  0.9011785367049754  0.16984883457995187  1.0000
  C   C10       1.0  0.30276001931348157  0.5988233751192737  0.3301517721573788  1.0000
  C   C11       1.0  0.1972499264376068  0.09881882146581232  0.830148093564631  1.0000
  C   C12       1.0  0.6972520193662957  0.4011805796001795  0.6698509442777407  1.0000
  C   C13       1.0  0.9188796914954123  0.6357025806796556  0.12779666775938384  1.0000
  C   C14       1.0  0.4188832272892071  0.8642999467652074  0.3722054477081613  1.0000
  C   C15       1.0  0.08111874132914919  0.3642974046919605  0.8722050107686811  1.0000
  C   C16       1.0  0.5811152055381824  0.13570136933693533  0.6277949534131579  1.0000
  C   C17       1.0  0.7492625581872188  0.04747774035094209  0.2694881481844646  1.0000
  C   C18       1.0  0.24926464359795375  0.45252349606438  0.23051180596832674  1.0000
  C   C19       1.0  0.2507404099348207  0.9525215922174296  0.7305114904746759  1.0000
  C   C20       1.0  0.7507360568798302  0.5474758365043827  0.7694878326912402  1.0000
  S   S1        1.0  0.2768763141294314  0.9056868858791418  0.9982492798689152  1.0000
  S   S2        1.0  0.7768738882225958  0.5943158249036884  0.5017517419201383  1.0000
  S   S3        1.0  0.7231334569244579  0.09431377285032032  0.001750055408159304  1.0000
  S   S4        1.0  0.22312000931532336  0.4056841627528414  0.4982494495957966  1.0000
  S   S5        1.0  0.6729446164356359  0.7849989343941247  0.06223035615801114  1.0000
  S   S6        1.0  0.1729413176190207  0.7150030352556341  0.4377673778303617  1.0000
  S   S7        1.0  0.3270696899147935  0.21500239769433452  0.9377666358693801  1.0000
  S   S8        1.0  0.8270525799292654  0.284995637659371  0.5622316820014035  1.0000
  S   S9        1.0  0.5935788003189159  0.9663125386852868  0.12539560489086202  1.0000
  S   S10       1.0  0.09356523238236747  0.5336901153108897  0.3746032250996549  1.0000
  S   S11       1.0  0.40642870309495277  0.033688788836045105  0.8746023611637952  1.0000
  S   S12       1.0  0.9064263975207181  0.4663098837667476  0.625395531351778  1.0000
  S   S13       1.0  0.05974376956920927  0.739471894104824  0.1734804094568929  1.0000
  S   S14       1.0  0.5597450965403324  0.7605320952663633  0.3265186170199429  1.0000
  S   S15       1.0  0.9402660014889219  0.26052943341611723  0.826517556597331  1.0000
  S   S16       1.0  0.44026013921843793  0.23946988277367612  0.6734818759161955  1.0000
  S   S17       1.0  0.9546009351540119  0.9446474814918773  0.24717756711972785  1.0000
  S   S18       1.0  0.4545950455740593  0.5553537213567028  0.2528219160787871  1.0000
  S   S19       1.0  0.04540203296850359  0.055352515299688314  0.7528216763425349  1.0000
  S   S20       1.0  0.5453988519709368  0.44464561121321106  0.7471777225820803  1.0000
  I   I1        1.0  0.29267570451147407  0.5926221763612746  0.9433793319613741  1.0000
  I   I2        1.0  0.7926877265036294  0.907379191466433  0.5566244222670493  1.0000
  I   I3        1.0  0.7073091224404422  0.4073784640992669  0.056623899424344905  1.0000
  I   I4        1.0  0.20731297396708462  0.092620796188946  0.4433767692475926  1.0000
  I   I5        1.0  0.7777611949821475  0.8000709751517835  0.8320929919511074  1.0000
  I   I6        1.0  0.2777827139786736  0.6999297403725109  0.6679097021007793  1.0000
  I   I7        1.0  0.22221909669066514  0.19992967673025672  0.16790780437053604  1.0000
  I   I8        1.0  0.7222157188510747  0.30006958762834307  0.33209091058520107  1.0000
