data_image0
_chemical_formula_structural       Ag4H64C50S4N20
_chemical_formula_sum              "Ag4 H64 C50 S4 N20"
_cell_length_a       7.917864713535418
_cell_length_b       11.739195741919863
_cell_length_c       16.895285440082073
_cell_angle_alpha    81.81248807220732
_cell_angle_beta     76.47154031764119
_cell_angle_gamma    70.29279125253666

_space_group_name_H-M_alt    "P 1"
_space_group_IT_number       1

loop_
  _space_group_symop_operation_xyz
  'x, y, z'

loop_
  _atom_site_type_symbol
  _atom_site_label
  _atom_site_symmetry_multiplicity
  _atom_site_fract_x
  _atom_site_fract_y
  _atom_site_fract_z
  _atom_site_occupancy
  Ag  Ag1       1.0  0.2264838094331765  0.20080441620011405  0.9615016349361198  1.0000
  Ag  Ag2       1.0  0.38889000961819414  0.29905151380135914  0.5383417645191103  1.0000
  Ag  Ag3       1.0  0.7735158159921907  0.7991958803089856  0.03849832240262427  1.0000
  Ag  Ag4       1.0  0.611107435309897  0.7009496897407814  0.4616585993743173  1.0000
  H   H1        1.0  0.3488666919707344  0.2915893529958922  0.701788280581873  1.0000
  H   H2        1.0  0.34224144981994437  0.2084996844964024  0.7982256394532783  1.0000
  H   H3        1.0  0.6511329334546332  0.7084109435132078  0.29821167675687127  1.0000
  H   H4        1.0  0.6577570192183727  0.7915006120126975  0.20177417502376474  1.0000
  H   H5        1.0  0.03442015955384645  0.4051036306965088  0.7300980530363504  1.0000
  H   H6        1.0  0.16979723871769897  0.09487656283120317  0.7698778594526203  1.0000
  H   H7        1.0  0.9655794658715209  0.5948966658125912  0.2699019043023938  1.0000
  H   H8        1.0  0.8302023867076683  0.9051237336778968  0.2301220978861239  1.0000
  H   H9        1.0  0.14923151354723532  0.5330578743656389  0.0467991047671603  1.0000
  H   H10       1.0  0.7289223294007812  0.9671266981047707  0.4531933483921976  1.0000
  H   H11       1.0  0.8507681118781317  0.466942422143461  0.9532008525715768  1.0000
  H   H12       1.0  0.27107657197576157  0.032872691371288495  0.5468065084404756  1.0000
  H   H13       1.0  0.3680889892596394  0.5360619677882354  0.9945148960790676  1.0000
  H   H14       1.0  0.8986243974284273  0.9641498156733235  0.505439491138418  1.0000
  H   H15       1.0  0.6319113602145522  0.4639392357539052  0.005485161765747605  1.0000
  H   H16       1.0  0.10137566033515809  0.0358495738027429  0.4945605085559493  1.0000
  H   H17       1.0  0.3252489206783337  0.3939180992691362  0.023179193543441598  1.0000
  H   H18       1.0  0.7421417940047021  0.10631697054230929  0.4767986514663677  1.0000
  H   H19       1.0  0.6747522934723024  0.606081290206923  0.9768209490126196  1.0000
  H   H20       1.0  0.25785595098478303  0.89368241893375  0.5232010625046044  1.0000
  H   H21       1.0  0.5369470082664236  0.2885780033089915  0.9023015658867521  1.0000
  H   H22       1.0  0.7276599410229848  0.21155185067002685  0.5977273549861482  1.0000
  H   H23       1.0  0.4630553622712624  0.7114213861670677  0.09769871953101021  1.0000
  H   H24       1.0  0.2723418648996584  0.7884475388060395  0.402272195797913  1.0000
  H   H25       1.0  0.14987324939873742  0.6895355859877766  0.8729401703215347  1.0000
  H   H26       1.0  0.7125366109124585  0.8106072629628684  0.6270289094137383  1.0000
  H   H27       1.0  0.8501263760266298  0.3104647105213232  0.12705978701720974  1.0000
  H   H28       1.0  0.28746357912795145  0.1893930335462315  0.37297178255870733  1.0000
  H   H29       1.0  0.8812719449855988  0.6382981966915792  0.7423502595943675  1.0000
  H   H30       1.0  0.2622796408703606  0.8615435172903787  0.7576569997756764  1.0000
  H   H31       1.0  0.11872768043976827  0.36170209981752066  0.2576496977443696  1.0000
  H   H32       1.0  0.737719825121225  0.1384558721856806  0.24234359169069117  1.0000
  H   H33       1.0  0.09901580008162386  0.5755759550653962  0.6782758055340494  1.0000
  H   H34       1.0  0.3533479620966132  0.9242739222139065  0.8216925850236478  1.0000
  H   H35       1.0  0.9009839576205678  0.4244252484767442  0.321724844082766  1.0000
  H   H36       1.0  0.6466499151697035  0.07572637429519348  0.17830782122539549  1.0000
  H   H37       1.0  0.047466125731709566  0.7137216219520041  0.7239279398133363  1.0000
  H   H38       1.0  0.48556574982031014  0.7861980968712456  0.7759827541232909  1.0000
  H   H39       1.0  0.9525329079216576  0.28627867455709577  0.27607260929740823  1.0000
  H   H40       1.0  0.514434440220107  0.2138021996378541  0.22401793784915475  1.0000
  H   H41       1.0  0.7905146368825124  0.0410967599288625  0.9928977158560103  1.0000
  H   H42       1.0  0.8244250782828788  0.4588734562354233  0.5071048788048814  1.0000
  H   H43       1.0  0.2094867367019048  0.9589035365802374  0.007101792572427675  1.0000
  H   H44       1.0  0.17557629530154623  0.5411268402736766  0.4928946296235567  1.0000
  H   H45       1.0  0.6644497192626772  0.1694682387955737  0.04861024285289519  1.0000
  H   H46       1.0  0.8823977192665711  0.3305155828642867  0.45139369719857575  1.0000
  H   H47       1.0  0.33555251899817784  0.8305302436474447  0.951389350286789  1.0000
  H   H48       1.0  0.11760074977174646  0.6694847136448132  0.5486061172784745  1.0000
  H   H49       1.0  0.9078306148479597  0.1107061034142731  0.03928883169803039  1.0000
  H   H50       1.0  0.057682711167984714  0.3892949518733104  0.4607095396466932  1.0000
  H   H51       1.0  0.09217162341289499  0.8892923790287455  0.9607107614416465  1.0000
  H   H52       1.0  0.9423179383676014  0.6107044376027487  0.5392898682756666  1.0000
  H   H53       1.0  0.6864143329853788  0.5310397258555922  0.7746907963977636  1.0000
  H   H54       1.0  0.9924351240046931  0.9688790859346168  0.7252713248231403  1.0000
  H   H55       1.0  0.3135845683911569  0.4689596636204669  0.2253090604349097  1.0000
  H   H56       1.0  0.007567114256168742  0.0311193965084087  0.2747282683165438  1.0000
  H   H57       1.0  0.5443021716706581  0.44590741895402175  0.768096119911043  1.0000
  H   H58       1.0  0.7584925174637931  0.053975722038593694  0.7319122833866913  1.0000
  H   H59       1.0  0.45569686198270887  0.5540928775550782  0.2319044291997017  1.0000
  H   H60       1.0  0.24150856441001892  0.9460227604044247  0.2680871668912986  1.0000
  H   H61       1.0  0.7605206213835554  0.419893711417778  0.7019688756678378  1.0000
  H   H62       1.0  0.8826321825553336  0.08004385155713578  0.7980275192457641  1.0000
  H   H63       1.0  0.2394788446080299  0.5801056780582812  0.2980317157985297  1.0000
  H   H64       1.0  0.11736803464203392  0.9199564449519642  0.2019718463209799  1.0000
  C   C1        1.0  0.26406631193907515  0.2500290991844949  0.7499989660423979  1.0000
  C   C2        1.0  0.7359349022115608  0.7499702902915643  0.25000117651366344  1.0000
  C   C3        1.0  0.09064294428100085  0.3520113588371387  0.7821624500298656  1.0000
  C   C4        1.0  0.22496445434551057  0.1479543221619579  0.7178208492185192  1.0000
  C   C5        1.0  0.9093572729163667  0.6479889376719611  0.2178369155368785  1.0000
  C   C6        1.0  0.7750341469696382  0.8520468813801826  0.2821796575366022  1.0000
  C   C7        1.0  0.10342528903286306  0.5575287187038639  0.8061292839605586  1.0000
  C   C8        1.0  0.4672079449326103  0.9424717260597859  0.6938121197062445  1.0000
  C   C9        1.0  0.8965765168897732  0.4424706707721953  0.19387026682350236  1.0000
  C   C10       1.0  0.5327918127695882  0.0575294774823547  0.3061885299105712  1.0000
  C   C11       1.0  0.21072367900415392  0.4952500162333776  0.9218526128756538  1.0000
  C   C12       1.0  0.6279168852411201  0.0048961643403301995  0.5781533598581845  1.0000
  C   C13       1.0  0.7892771028082638  0.5047502802757292  0.07814748732478453  1.0000
  C   C14       1.0  0.3720792438661389  0.9951041321687696  0.42184749530117227  1.0000
  C   C15       1.0  0.4019169564768319  0.0324745038675118  0.10489920065581519  1.0000
  C   C16       1.0  0.5396162192563168  0.46759548593098527  0.3950941920996201  1.0000
  C   C17       1.0  0.5980838253355856  0.9675257926415879  0.8951008995446232  1.0000
  C   C18       1.0  0.46038025587547077  0.5324066246441959  0.6049040683987812  1.0000
  C   C19       1.0  0.26770795950157833  0.48849624823075993  0.0006385628436972933  1.0000
  C   C20       1.0  0.7567632272506234  0.011727937184225799  0.49934122559246674  1.0000
  C   C21       1.0  0.7322928223108393  0.51150404827834  0.9993615373567409  1.0000
  C   C22       1.0  0.24323567412591265  0.9882714522918334  0.5006586312401993  1.0000
  C   C23       1.0  0.6797286960578222  0.28356120357457826  0.8897927013155567  1.0000
  C   C24       1.0  0.8530095452150944  0.21646524863808025  0.6102226425002826  1.0000
  C   C25       1.0  0.3202740796611322  0.7164372788684474  0.1102089528635233  1.0000
  C   C26       1.0  0.14699153665871012  0.7835332338049454  0.3897768077777073  1.0000
  C   C27       1.0  0.8160843748844896  0.2105205541055639  0.9327208307119579  1.0000
  C   C28       1.0  0.9592761870302629  0.2894641745873372  0.56728845503401  1.0000
  C   C29       1.0  0.18391842799141492  0.7894779283374617  0.06727949706142769  1.0000
  C   C30       1.0  0.040722714346273316  0.7105352148887291  0.43271140179865614  1.0000
  C   C31       1.0  0.15478339628783294  0.5974817099715324  0.867587039522583  1.0000
  C   C32       1.0  0.6199394354346028  0.9026049029307543  0.6323420425014987  1.0000
  C   C33       1.0  0.845215072750484  0.4025185865375676  0.1324127749544601  1.0000
  C   C34       1.0  0.3800574177214885  0.0973963006113863  0.36765891316392196  1.0000
  C   C35       1.0  0.02884534412606854  0.6241212703041512  0.7336667278182958  1.0000
  C   C36       1.0  0.38702273005083015  0.8757893781887204  0.7662696489704859  1.0000
  C   C37       1.0  0.9711554376863488  0.3758790262049487  0.26633337238214244  1.0000
  C   C38       1.0  0.6129763036025365  0.1242109183203866  0.23373090014025882  1.0000
  C   C39       1.0  0.764626849008721  0.3472385509900136  0.8268872556861312  1.0000
  C   C40       1.0  0.938761027581911  0.1527561550663137  0.6731293026906544  1.0000
  C   C41       1.0  0.2353737733699145  0.6527608384860528  0.1731134786419375  1.0000
  C   C42       1.0  0.06124091896833764  0.8472405133106378  0.32687023229857465  1.0000
  C   C43       1.0  0.7946647446837574  0.1285075338224502  0.007349976281894004  1.0000
  C   C44       1.0  0.9304393337312005  0.37148173003564716  0.49265660070433637  1.0000
  C   C45       1.0  0.2053376530108865  0.871491855653616  0.9926489827301667  1.0000
  C   C46       1.0  0.06956072403238532  0.628517659440419  0.5073433989900309  1.0000
  C   C47       1.0  0.6866340956354404  0.4405078512774807  0.7645421379543578  1.0000
  C   C48       1.0  0.8918981278233815  0.05937256861602689  0.7354541255369256  1.0000
  C   C49       1.0  0.3133653703561449  0.5594915381985857  0.2354584535120097  1.0000
  C   C50       1.0  0.10810192994021146  0.9406268208600393  0.2645458741574416  1.0000
  S   S1        1.0  0.23353694546640477  0.16134485090524459  0.1082408163326249  1.0000
  S   S2        1.0  0.5034107293960941  0.3387614202147731  0.39166922251942543  1.0000
  S   S3        1.0  0.766463112297181  0.8386545385708145  0.8917591833617424  1.0000
  S   S4        1.0  0.49658846369105436  0.6612397833273604  0.6083306924636958  1.0000
  N   N1        1.0  0.9786153552082194  0.2257423825530296  0.8974688365594973  1.0000
  N   N2        1.0  0.10184501378883933  0.27419155228972864  0.6025302525483057  1.0000
  N   N3        1.0  0.021389082356087396  0.774258820989111  0.10252973169270521  1.0000
  N   N4        1.0  0.8981528634774776  0.7258087442193712  0.39747015370073774  1.0000
  N   N5        1.0  0.13319129379124212  0.4357422996946525  0.8244375031612778  1.0000
  N   N6        1.0  0.39345563168850367  0.064258755592931  0.6755364232696978  1.0000
  N   N7        1.0  0.8668090556829569  0.564258903847481  0.17556255468353751  1.0000
  N   N8        1.0  0.6065424050115951  0.9357424479492024  0.3244633488517223  1.0000
  N   N9        1.0  0.9453222521566289  0.3093499669173454  0.83296253440205  1.0000
  N   N10       1.0  0.08774397675064445  0.1905567569342708  0.6670067653869367  1.0000
  N   N11       1.0  0.05467912142779594  0.6906503295917545  0.16703697402638804  1.0000
  N   N12       1.0  0.9122560810129412  0.8094426325417956  0.3329932343074304  1.0000
  N   N13       1.0  0.1994338508442652  0.3966818289366003  0.8945587333997767  1.0000
  N   N14       1.0  0.49061780455123477  0.1033881608618898  0.605435469649372  1.0000
  N   N15       1.0  0.8005669309681521  0.6033184675724996  0.10544136680066167  1.0000
  N   N16       1.0  0.5093789163280319  0.8966121356472101  0.3945647937379775  1.0000
  N   N17       1.0  0.5233196820787994  0.9399438249822579  0.10552583410601095  1.0000
  N   N18       1.0  0.5689962197249511  0.560187232538901  0.3944110823063554  1.0000
  N   N19       1.0  0.4766806673953995  0.0600573785598826  0.8944742237388043  1.0000
  N   N20       1.0  0.4310041297492472  0.4398139710032396  0.60558897553846  1.0000
