data_image0
_chemical_formula_structural       Al2H14C22S2O10
_chemical_formula_sum              "Al2 H14 C22 S2 O10"
_cell_length_a       6.601585339108278
_cell_length_b       11.158172842470606
_cell_length_c       12.6692637688462
_cell_angle_alpha    81.52183086414938
_cell_angle_beta     76.06620801262571
_cell_angle_gamma    71.60989907714364

_space_group_name_H-M_alt    "P 1"
_space_group_IT_number       1

loop_
  _space_group_symop_operation_xyz
  'x, y, z'

loop_
  _atom_site_type_symbol
  _atom_site_label
  _atom_site_symmetry_multiplicity
  _atom_site_fract_x
  _atom_site_fract_y
  _atom_site_fract_z
  _atom_site_occupancy
  Al  Al1       1.0  0.49939436346322436  0.500565117722424  0.5006452959244498  1.0000
  Al  Al2       1.0  0.99958144004772  0.499995324842324  0.5005310171613431  1.0000
  H   H1        1.0  0.2996140934364745  0.3460436898181528  0.5625030546398833  1.0000
  H   H2        1.0  0.6988141046244392  0.6557964150896326  0.44223024820522033  1.0000
  H   H3        1.0  0.3073935378316008  0.4421590967805289  0.8486146520875977  1.0000
  H   H4        1.0  0.6925859422536857  0.557369021782222  0.1528956181172633  1.0000
  H   H5        1.0  0.21959806658534825  0.23910482363479  0.3492922456704548  1.0000
  H   H6        1.0  0.5565747139804883  0.12481167381162812  0.2295346997921897  1.0000
  H   H7        1.0  0.43376537474833293  0.7690240547335708  0.3545459478836719  1.0000
  H   H8        1.0  0.6634589810693966  0.888339421373104  0.23169547387207953  1.0000
  H   H9        1.0  0.7029519223771384  0.8880901473636487  0.7362580937440555  1.0000
  H   H10       1.0  0.8010505654365047  0.7574458598849606  0.654645114478697  1.0000
  H   H11       1.0  0.5674028661478445  0.8825923290200919  0.6335524416290211  1.0000
  H   H12       1.0  0.4519932102914908  0.12618167339367403  0.6156929293370722  1.0000
  H   H13       1.0  0.5778583642977536  0.23215719217039785  0.6476133071451287  1.0000
  H   H14       1.0  0.585682216091527  0.08689500295261608  0.7263052709384681  1.0000
  C   C1        1.0  0.8633513572735083  0.27398947346714664  0.492732827754395  1.0000
  C   C2        1.0  0.6701322476269524  0.49548274901658834  0.6968566381646255  1.0000
  C   C3        1.0  0.13442244316742338  0.7262643703079592  0.5091944727890053  1.0000
  C   C4        1.0  0.3293017170678212  0.5044650424724537  0.30456647970208905  1.0000
  C   C5        1.0  0.4230358687965889  0.46900353027603364  0.8816251059471796  1.0000
  C   C6        1.0  0.5773195206024654  0.5301039454640204  0.11992916231216101  1.0000
  C   C7        1.0  0.6049856509389926  0.49734836475671784  0.8159736270275317  1.0000
  C   C8        1.0  0.3951940857269491  0.5019342956995347  0.18553941345353303  1.0000
  C   C9        1.0  0.5878389510519638  0.5180542580428027  0.009315681152379799  1.0000
  C   C10       1.0  0.41292493935703334  0.48060841138386234  0.9922927008156109  1.0000
  C   C11       1.0  0.9340037636153652  0.13250814361330043  0.4971111627101692  1.0000
  C   C12       1.0  0.13368309711019322  0.06953728696008452  0.42762008483394  1.0000
  C   C13       1.0  0.8032196224178135  0.06612966133565833  0.5681767953631293  1.0000
  C   C14       1.0  0.26704857786190667  0.13609601689018552  0.3529832226286658  1.0000
  C   C15       1.0  0.4556292458127658  0.07198852504875931  0.2853306040831924  1.0000
  C   C16       1.0  0.06204189860473244  0.8676717678211292  0.5053875714714309  1.0000
  C   C17       1.0  0.8692627848841781  0.9305687982317465  0.5729155384273952  1.0000
  C   C18       1.0  0.19757058506427666  0.9340525083370114  0.43084134597268076  1.0000
  C   C19       1.0  0.3891210875045132  0.8713957840210825  0.3571173151681393  1.0000
  C   C20       1.0  0.5164128520718164  0.9385692406083308  0.28686905424248016  1.0000
  C   C21       1.0  0.7297134598243671  0.8602002946403007  0.6531219466765634  1.0000
  C   C22       1.0  0.5948112917577432  0.13226110792125212  0.6429496677364952  1.0000
  S   S1        1.0  0.764538067099316  0.5380135985926061  0.887875101230172  1.0000
  S   S2        1.0  0.23609510029942968  0.4607481217584495  0.11372815209941929  1.0000
  O   O1        1.0  0.6780359601071525  0.33205517128250517  0.4695495236025238  1.0000
  O   O2        1.0  0.8494897304846061  0.5196966228608205  0.6514490931253363  1.0000
  O   O3        1.0  0.008063051637890228  0.6718891694490027  0.4871131233960355  1.0000
  O   O4        1.0  0.4551245156903788  0.5328463241990705  0.352681546588606  1.0000
  O   O5        1.0  0.32052816052736666  0.668944195580828  0.5318736677867263  1.0000
  O   O6        1.0  0.15040460724289056  0.4795722415594953  0.34988573074205215  1.0000
  O   O7        1.0  0.9913281148142515  0.32786364767328285  0.5140977063885899  1.0000
  O   O8        1.0  0.5431519467143106  0.4681413295671605  0.648776747618058  1.0000
  O   O9        1.0  0.26151857706697956  0.437264904143369  0.5470678996029434  1.0000
  O   O10       1.0  0.7371033290719566  0.5641048684691442  0.4543180348322693  1.0000
