data_image0
_chemical_formula_structural       Cd2H36C24N4O12
_chemical_formula_sum              "Cd2 H36 C24 N4 O12"
_cell_length_a       8.92704346014411
_cell_length_b       8.92700347866727
_cell_length_c       9.798905891167983
_cell_angle_alpha    105.47062765072954
_cell_angle_beta     105.47055260261097
_cell_angle_gamma    102.1502172847082

_space_group_name_H-M_alt    "P 1"
_space_group_IT_number       1

loop_
  _space_group_symop_operation_xyz
  'x, y, z'

loop_
  _atom_site_type_symbol
  _atom_site_label
  _atom_site_symmetry_multiplicity
  _atom_site_fract_x
  _atom_site_fract_y
  _atom_site_fract_z
  _atom_site_occupancy
  Cd  Cd1       1.0  0.9643360003585643  0.0356641706894081  0.2500027276753869  1.0000
  Cd  Cd2       1.0  0.035665220828391894  0.9643343570306799  0.7499994125087927  1.0000
  H   H1        1.0  0.020107458485547604  0.2316732522431906  0.5822028745421479  1.0000
  H   H2        1.0  0.7683333727663851  0.9798896160180564  0.9178001072380657  1.0000
  H   H3        1.0  0.9798928657979997  0.7683301332141497  0.41779921705379763  1.0000
  H   H4        1.0  0.23166740674930958  0.0201113473510972  0.08220048118040783  1.0000
  H   H5        1.0  0.812578978586565  0.5367823272385054  0.46146273871887206  1.0000
  H   H6        1.0  0.46321725186255236  0.18741641506726842  0.03853835551296211  1.0000
  H   H7        1.0  0.18742412406247416  0.46321865248341987  0.5385404648491277  1.0000
  H   H8        1.0  0.536784429076846  0.812579695084935  0.9614612631793523  1.0000
  H   H9        1.0  0.7048814916625474  0.3935168365712515  0.5202959703982375  1.0000
  H   H10       1.0  0.6064864007781594  0.295113667652558  0.9797016135281428  1.0000
  H   H11       1.0  0.29512057408619097  0.6064805203553122  0.47969792546944506  1.0000
  H   H12       1.0  0.39351636226451353  0.7048861104979737  0.02029712972055362  1.0000
  H   H13       1.0  0.45174373372787363  0.3325834853573825  0.30795887101754016  1.0000
  H   H14       1.0  0.6674170301336632  0.5482549617060216  0.19204020594752802  1.0000
  H   H15       1.0  0.5482594709860535  0.6674138571440836  0.6920414239968695  1.0000
  H   H16       1.0  0.3325830385272114  0.45174356687827827  0.8079585900331028  1.0000
  H   H17       1.0  0.5353770771578468  0.5469701876489241  0.39026528582439124  1.0000
  H   H18       1.0  0.453027631228899  0.4646205514864833  0.10973083019400327  1.0000
  H   H19       1.0  0.4646237953821383  0.45302712945918  0.6097344306692707  1.0000
  H   H20       1.0  0.5469693013789299  0.5353791631806505  0.8902664667528417  1.0000
  H   H21       1.0  0.5286042893598052  0.7571149582996741  0.26687688750946853  1.0000
  H   H22       1.0  0.24288034760929383  0.47139650027033764  0.2331224551228815  1.0000
  H   H23       1.0  0.47139496186106555  0.2428847681999288  0.7331240429012953  1.0000
  H   H24       1.0  0.7571165849985347  0.5286032143967959  0.7668748418239705  1.0000
  H   H25       1.0  0.5977677934867033  0.9642702069254484  0.2948826750218603  1.0000
  H   H26       1.0  0.035726589183951815  0.4022360434547423  0.20512186701316187  1.0000
  H   H27       1.0  0.4022334186596622  0.035728311754049016  0.705121501791105  1.0000
  H   H28       1.0  0.9642691773369095  0.597763658515717  0.7948751406733126  1.0000
  H   H29       1.0  0.34846806533558816  0.8757651993911466  0.3725210139820591  1.0000
  H   H30       1.0  0.12422847795918567  0.6515346537821857  0.12748147235689805  1.0000
  H   H31       1.0  0.6515354040416098  0.12423700902394334  0.6274805400188799  1.0000
  H   H32       1.0  0.8757637676992828  0.34846498749675453  0.8725197591204295  1.0000
  H   H33       1.0  0.47850932880787417  0.8335885359994679  0.5195963216203341  1.0000
  H   H34       1.0  0.16640721306236378  0.5214940735153066  0.9804065686020069  1.0000
  H   H35       1.0  0.5214888493503197  0.16640753154241145  0.48040344760525516  1.0000
  H   H36       1.0  0.8335853153405566  0.4785104517584459  0.019591848604285648  1.0000
  C   C1        1.0  0.7723558412980507  0.29224856806842336  0.33348864816107965  1.0000
  C   C2        1.0  0.7077534262361169  0.22764908517034854  0.16652353659381455  1.0000
  C   C3        1.0  0.22764744655086847  0.7077609373890683  0.6665136313750752  1.0000
  C   C4        1.0  0.29225992461356765  0.7723471609892346  0.8334769380734176  1.0000
  C   C5        1.0  0.7145289298185133  0.4201750816259351  0.41935380429522723  1.0000
  C   C6        1.0  0.5798243837510242  0.2854665742583862  0.08064626808048567  1.0000
  C   C7        1.0  0.285474981229939  0.5798246911400895  0.580649301471418  1.0000
  C   C8        1.0  0.4201748810307393  0.7145331658021092  0.9193516073870998  1.0000
  C   C9        1.0  0.5557248054096035  0.43644845157594153  0.3259334500139205  1.0000
  C   C10       1.0  0.5635565989075886  0.44427822567818265  0.17407188583722907  1.0000
  C   C11       1.0  0.44427831080032837  0.5635525417068692  0.6740666986109007  1.0000
  C   C12       1.0  0.43644650374145755  0.5557227540437425  0.8259313177307707  1.0000
  C   C13       1.0  0.7532196986281221  0.8805346088373088  0.44441554254575544  1.0000
  C   C14       1.0  0.11946322049649184  0.2467799677301415  0.05558822300119465  1.0000
  C   C15       1.0  0.24678565673146122  0.11947005609990673  0.5555860565246108  1.0000
  C   C16       1.0  0.8805302887935299  0.7532160445047255  0.9444114074973061  1.0000
  C   C17       1.0  0.5841639625459436  0.877878185538549  0.3559195462325848  1.0000
  C   C18       1.0  0.12211604136482632  0.4158416953860283  0.14408276911997583  1.0000
  C   C19       1.0  0.4158384247279798  0.12212035487821991  0.6440828832119652  1.0000
  C   C20       1.0  0.8778773839415024  0.5841579721504787  0.8559156966745507  1.0000
  C   C21       1.0  0.47488498794214723  0.9110265435621802  0.44899037186869634  1.0000
  C   C22       1.0  0.08896562690056711  0.525115022104828  0.05100903633423579  1.0000
  C   C23       1.0  0.5251162332448017  0.08897198415790801  0.5510117683154833  1.0000
  C   C24       1.0  0.9110259259842691  0.4748822024704467  0.948986329447678  1.0000
  N   N1        1.0  0.8806307503986163  0.2338036163051243  0.3997056123103777  1.0000
  N   N2        1.0  0.7662020078788317  0.11936280186232302  0.10029548266584244  1.0000
  N   N3        1.0  0.11938122571402954  0.7661998870784007  0.6003014085180569  1.0000
  N   N4        1.0  0.23379704373256532  0.8806442035985004  0.8997102465377086  1.0000
  O   O1        1.0  0.9399213828455188  0.2954867668781631  0.5538860350144007  1.0000
  O   O2        1.0  0.7045173608223863  0.0600794848474919  0.9461182616194468  1.0000
  O   O3        1.0  0.060083168634946664  0.7045191095352552  0.4461146435429273  1.0000
  O   O4        1.0  0.29547507992525374  0.9399128729499397  0.0538791893794937  1.0000
  O   O5        1.0  0.8520112659593622  0.8567702577436337  0.3722826687859922  1.0000
  O   O6        1.0  0.14322977546226667  0.14799305925559741  0.12771563367881814  1.0000
  O   O7        1.0  0.1479906706027094  0.14323070928161036  0.62772024552163  1.0000
  O   O8        1.0  0.8567694893194969  0.8520066808048911  0.8722822417887744  1.0000
  O   O9        1.0  0.7859129530156538  0.9007225309596268  0.5832614550639337  1.0000
  O   O10       1.0  0.09926872054924023  0.21408717847440784  0.9167354401065356  1.0000
  O   O11       1.0  0.21408790596343863  0.09927477258759154  0.4167413163729138  1.0000
  O   O12       1.0  0.9007223997049322  0.7859124907905229  0.0832563372808935  1.0000
