data_image0
_chemical_formula_structural       Mn2H30C44N4O10
_chemical_formula_sum              "Mn2 H30 C44 N4 O10"
_cell_length_a       9.095839797126812
_cell_length_b       9.918618814480908
_cell_length_c       12.508489179729093
_cell_angle_alpha    95.5202808660266
_cell_angle_beta     106.76143762767376
_cell_angle_gamma    109.9446701128594

_space_group_name_H-M_alt    "P 1"
_space_group_IT_number       1

loop_
  _space_group_symop_operation_xyz
  'x, y, z'

loop_
  _atom_site_type_symbol
  _atom_site_label
  _atom_site_symmetry_multiplicity
  _atom_site_fract_x
  _atom_site_fract_y
  _atom_site_fract_z
  _atom_site_occupancy
  Mn  Mn1       1.0  0.5481123738296245  0.9409330404356667  0.6111901770181944  1.0000
  Mn  Mn2       1.0  0.4518878067318396  0.059069175344738795  0.3888106656547592  1.0000
  H   H1        1.0  0.19683673059484613  0.29924953276592703  0.5233273822616056  1.0000
  H   H2        1.0  0.8031527739255395  0.7007438253528734  0.4766681463117166  1.0000
  H   H3        1.0  0.06970621390258464  0.41873262924444543  0.6344477080395521  1.0000
  H   H4        1.0  0.9302863155987708  0.581265136088156  0.36554879848984  1.0000
  H   H5        1.0  0.005126147021762496  0.074114648793028  0.8219856917841782  1.0000
  H   H6        1.0  0.9948724051361424  0.9258864623292028  0.17801312693760007  1.0000
  H   H7        1.0  0.14090588272504334  0.9580887491812363  0.7129080174050699  1.0000
  H   H8        1.0  0.8590898969490297  0.0419112327743605  0.2870909373021533  1.0000
  H   H9        1.0  0.8137429434182052  0.7846632381910584  0.6944169938160486  1.0000
  H   H10       1.0  0.1862651001262989  0.21534125205965896  0.3055864557731667  1.0000
  H   H11       1.0  0.09410085534118202  0.5996739020839358  0.9332453625180647  1.0000
  H   H12       1.0  0.905896528748258  0.40032171223855795  0.06675677228285085  1.0000
  H   H13       1.0  0.6552223920182598  0.5373301347545195  0.5651840849605065  1.0000
  H   H14       1.0  0.34478379461374686  0.4626754450821481  0.4348150705935013  1.0000
  H   H15       1.0  0.029561155529449996  0.8137064774696869  0.8828553214693642  1.0000
  H   H16       1.0  0.9704390176298286  0.18629024775282946  0.11715067665743105  1.0000
  H   H17       1.0  0.4301501803067254  0.6522218755491026  0.7233460010224491  1.0000
  H   H18       1.0  0.5698531965844466  0.347777117442945  0.2766512472104523  1.0000
  H   H19       1.0  0.7909259939764084  0.0795619470516087  0.8861540527040503  1.0000
  H   H20       1.0  0.2090730292359664  0.920440258833622  0.11384575045646264  1.0000
  H   H21       1.0  0.769925013128571  0.9062348965642361  0.04861200684056407  1.0000
  H   H22       1.0  0.23007353902933395  0.09376621455799491  0.9513868118812141  1.0000
  H   H23       1.0  0.6213250340289135  0.49960854718776915  0.846284365734462  1.0000
  H   H24       1.0  0.3786781309393205  0.5003926217817849  0.1537146117257464  1.0000
  H   H25       1.0  0.552496776788466  0.8385655061672213  0.15213031236457653  1.0000
  H   H26       1.0  0.44750592707689657  0.16143455707935325  0.8478700802436877  1.0000
  H   H27       1.0  0.340366773522419  0.7249632842515156  0.1170791730152487  1.0000
  H   H28       1.0  0.659637084374836  0.2750367925435669  0.8829214592431923  1.0000
  H   H29       1.0  0.4099945238014442  0.8159561105452157  0.014443003720259607  1.0000
  H   H30       1.0  0.5900072818463756  0.18404721354668402  0.9855590630416131  1.0000
  C   C1        1.0  0.2700374225011046  0.059345492335218394  0.5551692294703869  1.0000
  C   C2        1.0  0.7299592719765186  0.9406512105084279  0.44483205039455953  1.0000
  C   C3        1.0  0.17961530049883118  0.12387530611102453  0.613691137756021  1.0000
  C   C4        1.0  0.8203807010497783  0.8761224889070934  0.3863084873106929  1.0000
  C   C5        1.0  0.15637320732025026  0.25165137326291653  0.5898412046875947  1.0000
  C   C6        1.0  0.8436197758817909  0.7483420072347614  0.4101590421475833  1.0000
  C   C7        1.0  0.08481169213612821  0.31770426106532323  0.6519162256835145  1.0000
  C   C8        1.0  0.9151796460763534  0.6822880330408054  0.3480779978891491  1.0000
  C   C9        1.0  0.033286166698040597  0.25518741443902837  0.7375282253376056  1.0000
  C   C10       1.0  0.9667102893190318  0.7448114936087152  0.2624683848565184  1.0000
  C   C11       1.0  0.051523524359623686  0.1240127043166552  0.7581585059498507  1.0000
  C   C12       1.0  0.9484708620542293  0.8759839714299892  0.24184229461474874  1.0000
  C   C13       1.0  0.1248620640612401  0.059398032996021796  0.697549256559391  1.0000
  C   C14       1.0  0.8751341659963074  0.940597567777978  0.3024526385913475  1.0000
  C   C15       1.0  0.9641024273602453  0.32552463654571556  0.8098999072424533  1.0000
  C   C16       1.0  0.03589749738688397  0.6744743048408707  0.19009902162672176  1.0000
  C   C17       1.0  0.9159059074059497  0.449731433743537  0.7765204318302777  1.0000
  C   C18       1.0  0.08409611348201197  0.5502697107175436  0.2234807055665513  1.0000
  C   C19       1.0  0.6860765457580983  0.2826241286183946  0.5971584920365843  1.0000
  C   C20       1.0  0.31391901535862826  0.7173780366213478  0.4028405921734119  1.0000
  C   C21       1.0  0.842032837802428  0.6913910761890636  0.7187540786716724  1.0000
  C   C22       1.0  0.15797866452052736  0.30861345836046894  0.2812492900057961  1.0000
  C   C23       1.0  0.0007461204084009016  0.587383730710556  0.8515297769398201  1.0000
  C   C24       1.0  0.999254282027607  0.4126162981323775  0.14847173609262396  1.0000
  C   C25       1.0  0.7897978271168423  0.43195665709119885  0.6730287981524725  1.0000
  C   C26       1.0  0.21020626669153583  0.5680467160176478  0.3269689487361518  1.0000
  C   C27       1.0  0.7545091845859415  0.5534371607200655  0.6449744516882061  1.0000
  C   C28       1.0  0.245497473100535  0.4465695138796023  0.35502568830454356  1.0000
  C   C29       1.0  0.9638557241117951  0.7076376510489626  0.8227134081567797  1.0000
  C   C30       1.0  0.036147682634187106  0.29236130906316765  0.1772910388365148  1.0000
  C   C31       1.0  0.5254505416818063  0.7462477221192433  0.7882752038775678  1.0000
  C   C32       1.0  0.47455053378000395  0.2537512364691636  0.21172316477951367  1.0000
  C   C33       1.0  0.7123428573339223  0.965434718735665  0.8763422303866902  1.0000
  C   C34       1.0  0.2876603109515158  0.034566446580562606  0.12365754693578167  1.0000
  C   C35       1.0  0.7036428711516506  0.8826995478805415  0.9576668941302131  1.0000
  C   C36       1.0  0.2963556810062542  0.11730156324169634  0.042331924591565  1.0000
  C   C37       1.0  0.5395115226656698  0.6204795050424752  0.9521960082346652  1.0000
  C   C38       1.0  0.460489334238801  0.37952163683008433  0.04780248992519632  1.0000
  C   C39       1.0  0.5652206767933733  0.4969349715346142  0.9127043545779684  1.0000
  C   C40       1.0  0.4347808564541039  0.5030650964300919  0.08729179906879377  1.0000
  C   C41       1.0  0.47389722016901453  0.6276408960125366  0.04058438905613571  1.0000
  C   C42       1.0  0.5261047940845458  0.37236025575519005  0.9594151486161592  1.0000
  C   C43       1.0  0.44234437511845204  0.758453795768361  0.08272657342591574  1.0000
  C   C44       1.0  0.5576587931669861  0.24154736954785969  0.9172732038965562  1.0000
  N   N1        1.0  0.6003628111813839  0.8792016470082731  0.7711101336838625  1.0000
  N   N2        1.0  0.39963805235748845  0.12079948755763334  0.22888996420052618  1.0000
  N   N3        1.0  0.5849332207508978  0.7440597586846496  0.9009458406678021  1.0000
  N   N4        1.0  0.4150690087427974  0.2559392134522581  0.09905276763945638  1.0000
  O   O1        1.0  0.3316099603915531  0.9750815048686973  0.6052125753355284  1.0000
  O   O2        1.0  0.6683828009359515  0.024914062566452306  0.394787001140152  1.0000
  O   O3        1.0  0.283987253182147  0.09596675723720693  0.4626036150102166  1.0000
  O   O4        1.0  0.7160117360904367  0.9040299873167261  0.5373949447060156  1.0000
  O   O5        1.0  0.6157263180632879  0.274648969459939  0.4919051622728076  1.0000
  O   O6        1.0  0.38426578095779007  0.7253531551343075  0.5080932029866645  1.0000
  O   O7        1.0  0.6736210042406583  0.17369573697920523  0.6462250057626662  1.0000
  O   O8        1.0  0.3263764344595542  0.8263108146191769  0.353776416477757  1.0000
  O   O9        1.0  0.9581468274992346  0.2906895602125844  0.901552433583781  1.0000
  O   O10       1.0  0.041861219362466805  0.7093149263848063  0.0984518158677048  1.0000
