data_image0
_chemical_formula_structural       Cu4H56C96N8O16
_chemical_formula_sum              "Cu4 H56 C96 N8 O16"
_cell_length_a       13.891395274152801
_cell_length_b       18.057679493724855
_cell_length_c       23.85473354075019
_cell_angle_alpha    90.01224339866802
_cell_angle_beta     93.59717448408206
_cell_angle_gamma    89.97816702572892

_space_group_name_H-M_alt    "P 1"
_space_group_IT_number       1

loop_
  _space_group_symop_operation_xyz
  'x, y, z'

loop_
  _atom_site_type_symbol
  _atom_site_label
  _atom_site_symmetry_multiplicity
  _atom_site_fract_x
  _atom_site_fract_y
  _atom_site_fract_z
  _atom_site_occupancy
  Cu  Cu1       1.0  0.45292978495819364  0.445075181492598  0.5194150290226887  1.0000
  Cu  Cu2       1.0  0.04672456632211209  0.9455276357090769  0.9807376260293097  1.0000
  Cu  Cu3       1.0  0.5470815201315489  0.5549399082875723  0.48057959958546087  1.0000
  Cu  Cu4       1.0  0.9532737184095977  0.054475827393098114  0.019262786045295893  1.0000
  H   H1        1.0  0.1555363811916735  0.5023426302733257  0.4685389888681115  1.0000
  H   H2        1.0  0.34451258280318336  0.0023302351944423003  0.03144906228990859  1.0000
  H   H3        1.0  0.8444626256237342  0.4976575100408241  0.5314614508695427  1.0000
  H   H4        1.0  0.6554842646888018  0.9976732279921947  0.9685504557716272  1.0000
  H   H5        1.0  0.003146536331279  0.5592115981181609  0.4286520306331312  1.0000
  H   H6        1.0  0.49698120999667583  0.05918129721700889  0.07134120308245429  1.0000
  H   H7        1.0  0.9968524674190037  0.44079020359864546  0.5713488283281336  1.0000
  H   H8        1.0  0.5030127474161148  0.9408205051524664  0.9286590414554681  1.0000
  H   H9        1.0  0.16675433291533887  0.724614219140662  0.34633112221193574  1.0000
  H   H10       1.0  0.3332483970080559  0.224685013789518  0.1537093768029081  1.0000
  H   H11       1.0  0.8332461136732974  0.27538647481055994  0.6536697924750143  1.0000
  H   H12       1.0  0.6667498854559568  0.7753167880290237  0.8462914542555565  1.0000
  H   H13       1.0  0.3199640130630925  0.6678156953476703  0.3878767432369088  1.0000
  H   H14       1.0  0.1800220889228754  0.16783659490960193  0.11213876563790141  1.0000
  H   H15       1.0  0.6800349966845259  0.3321833373448655  0.6121232773170888  1.0000
  H   H16       1.0  0.8199747561685057  0.8321657607744515  0.8878611714474473  1.0000
  H   H17       1.0  0.8565049716987475  0.9626549467938332  0.1727862073075883  1.0000
  H   H18       1.0  0.6434445162014341  0.4626342709605993  0.3272284969415082  1.0000
  H   H19       1.0  0.1434983680342015  0.03734574657188721  0.8272135616793647  1.0000
  H   H20       1.0  0.3565552145666544  0.5373658691922928  0.6727715515952113  1.0000
  H   H21       1.0  0.8310271974999137  0.8916441438467475  0.2600563148028598  1.0000
  H   H22       1.0  0.668896937080653  0.39161852467662334  0.239991954726456  1.0000
  H   H23       1.0  0.1689703719428621  0.10835655033290696  0.7399432309616856  1.0000
  H   H24       1.0  0.3311056707003813  0.6083821690288858  0.7600094627726293  1.0000
  H   H25       1.0  0.0369532272900344  0.7287461236357091  0.21253941863404438  1.0000
  H   H26       1.0  0.4630989068827915  0.22881606516508418  0.2874759968577507  1.0000
  H   H27       1.0  0.9630436233999685  0.2712551243672223  0.78745968016392  1.0000
  H   H28       1.0  0.5369044277831492  0.7711835207575605  0.7125246102567501  1.0000
  H   H29       1.0  0.058938544114411684  0.7992609938656727  0.12345021173211279  1.0000
  H   H30       1.0  0.44110077841632733  0.2992866453534334  0.376559421769926  1.0000
  H   H31       1.0  0.9410619028729313  0.20073803874240073  0.8765507028349617  1.0000
  H   H32       1.0  0.5589018350962432  0.7007123868899116  0.6234411574018139  1.0000
  H   H33       1.0  0.7670154225499316  0.790089391322795  0.2983379540665538  1.0000
  H   H34       1.0  0.7329511885340025  0.290078503833918  0.2016597859681468  1.0000
  H   H35       1.0  0.23298286617723107  0.20990853390939182  0.7016620385047289  1.0000
  H   H36       1.0  0.26705215199636717  0.7099188668455129  0.798339982779055  1.0000
  H   H37       1.0  0.8966649996129589  0.6514979798555276  0.42937081317501935  1.0000
  H   H38       1.0  0.6033478918413805  0.15148865995004004  0.07061326999121319  1.0000
  H   H39       1.0  0.10333400427023072  0.34850326808022203  0.5706300457462845  1.0000
  H   H40       1.0  0.3966503912871531  0.8485103729632613  0.929387560867461  1.0000
  H   H41       1.0  0.7315523132748821  0.6043120637432153  0.419569791678903  1.0000
  H   H42       1.0  0.7685011829134679  0.10433077433074092  0.0804190782618477  1.0000
  H   H43       1.0  0.26844813637887904  0.3956869688053501  0.5804307037844367  1.0000
  H   H44       1.0  0.23149854971527623  0.8956616128874726  0.9195809697154544  1.0000
  H   H45       1.0  0.69624167092104  0.8361568891168221  0.37875519914724254  1.0000
  H   H46       1.0  0.8037157295963483  0.33617623196611396  0.12126142833728439  1.0000
  H   H47       1.0  0.3037551643021316  0.16384214411898063  0.6212464141132941  1.0000
  H   H48       1.0  0.1962890842990035  0.6638150462636789  0.8787337856348925  1.0000
  H   H49       1.0  0.5409597399474534  0.833037668636159  0.427155918281791  1.0000
  H   H50       1.0  0.9589883975890386  0.33299951622283447  0.0728527116062097  1.0000
  H   H51       1.0  0.4590385329141568  0.16695970317204  0.5728465888719327  1.0000
  H   H52       1.0  0.0410156916891111  0.6669945310734563  0.9271428937666926  1.0000
  H   H53       1.0  0.4908849639696555  0.7131127003339801  0.47070260734302843  1.0000
  H   H54       1.0  0.0091149556255772  0.21306450710073935  0.0292893679260331  1.0000
  H   H55       1.0  0.5091140408438548  0.28688467113443755  0.5292982512985631  1.0000
  H   H56       1.0  0.9908876812118167  0.7869262179507859  0.9707078578164569  1.0000
  C   C1        1.0  0.3385470482598407  0.5494630467909049  0.4565842755519185  1.0000
  C   C2        1.0  0.16173544394382589  0.049564118541184116  0.0435156538026575  1.0000
  C   C3        1.0  0.6614519610890708  0.45053764724477935  0.5434157451219618  1.0000
  C   C4        1.0  0.8382664644138272  0.9504343596657777  0.9564823828039196  1.0000
  C   C5        1.0  0.24681415984362323  0.5822440097859313  0.43122945889805203  1.0000
  C   C6        1.0  0.2533326272520995  0.08230542801941712  0.0687959380635448  1.0000
  C   C7        1.0  0.7531841282190185  0.4177566843514954  0.5687705338730282  1.0000
  C   C8        1.0  0.7466627664700878  0.9177002507329423  0.9312052007671597  1.0000
  C   C9        1.0  0.15724899179667773  0.5516661721751819  0.44232372887449856  1.0000
  C   C10       1.0  0.3428779571469889  0.05167218781664221  0.057681243361408  1.0000
  C   C11       1.0  0.842750017552234  0.4483345218604954  0.5576762917993818  1.0000
  C   C12       1.0  0.6571167262203799  0.9483323832373145  0.9423181910716422  1.0000
  C   C13       1.0  0.0722836849499373  0.5839802888254654  0.4200087606690914  1.0000
  C   C14       1.0  0.4278285027173823  0.0839704743420384  0.0799971297232034  1.0000
  C   C15       1.0  0.9277153241331673  0.4160215127723178  0.5799912600847036  1.0000
  C   C16       1.0  0.5721669079335925  0.9160313275859125  0.9200014942053796  1.0000
  C   C17       1.0  0.07505135673901717  0.6469310607469653  0.38552506814411197  1.0000
  C   C18       1.0  0.4249902710789115  0.1469445332869413  0.11447996387685319  1.0000
  C   C19       1.0  0.9249483765625752  0.35306963312746836  0.6144745613288335  1.0000
  C   C20       1.0  0.5750080164521092  0.8530583759746763  0.8855200290540566  1.0000
  C   C21       1.0  0.165201790126666  0.676248835991835  0.37354617273056323  1.0000
  C   C22       1.0  0.33483143296766826  0.1763131520664416  0.1264775666283739  1.0000
  C   C23       1.0  0.8347972190893388  0.3237524118248914  0.626453847983278  1.0000
  C   C24       1.0  0.6651683026016143  0.8236892030916183  0.8735216438607125  1.0000
  C   C25       1.0  0.2499779131896318  0.6446691403326241  0.39642568039445075  1.0000
  C   C26       1.0  0.25007907970050514  0.14473688780100255  0.1036005423621589  1.0000
  C   C27       1.0  0.7500218202448606  0.35533099976076  0.6035739490385339  1.0000
  C   C28       1.0  0.7499199263174745  0.8552665751994298  0.8963998976152467  1.0000
  C   C29       1.0  0.9727295092648659  0.9274401378976266  0.0902575631593905  1.0000
  C   C30       1.0  0.5272411506672724  0.4275571135631609  0.40986961345065953  1.0000
  C   C31       1.0  0.0272810474591481  0.07255446279963002  0.9097420653122869  1.0000
  C   C32       1.0  0.4727600225404487  0.5724435801672956  0.5901304909316208  1.0000
  C   C33       1.0  0.9582595578898034  0.8846490300530833  0.1427147587613504  1.0000
  C   C34       1.0  0.5417392189692336  0.38467883831889094  0.3573524509163164  1.0000
  C   C35       1.0  0.041744494199861  0.11535553985676472  0.8572862957193124  1.0000
  C   C36       1.0  0.4582626705906562  0.6153201940856976  0.6426485194563583  1.0000
  C   C37       1.0  0.894217781837419  0.910580263376673  0.1813657186475908  1.0000
  C   C38       1.0  0.6057441266701034  0.41057375955993086  0.318689613283766  1.0000
  C   C39       1.0  0.1057826692866115  0.08942375314181561  0.8186343580716412  1.0000
  C   C40       1.0  0.39425704387120664  0.5894269342300335  0.6813109102022494  1.0000
  C   C41       1.0  0.8801478727823451  0.8704278675822085  0.2299261469038001  1.0000
  C   C42       1.0  0.6198116739229533  0.3704151693762655  0.2701221339019426  1.0000
  C   C43       1.0  0.11985401944395589  0.1295711647628721  0.7700744043651397  1.0000
  C   C44       1.0  0.3801916551443583  0.6295855242275011  0.7298793114999426  1.0000
  C   C45       1.0  0.93118242985976  0.8043980237707589  0.2414252798079062  1.0000
  C   C46       1.0  0.5688038722397906  0.30441197995931896  0.2585948381087206  1.0000
  C   C47       1.0  0.06881513665079808  0.19560377803050247  0.7585746851402887  1.0000
  C   C48       1.0  0.431200186113017  0.6955887133641742  0.7414053778847673  1.0000
  C   C49       1.0  0.9966899484106546  0.7794744898288855  0.20300591320089717  1.0000
  C   C50       1.0  0.5033335326211557  0.2795317659569818  0.2970145213896486  1.0000
  C   C51       1.0  0.0033105119087366974  0.22052454248163403  0.7969929058475032  1.0000
  C   C52       1.0  0.4966690860913302  0.7204678199483824  0.7029852196145824  1.0000
  C   C53       1.0  0.0092488834526847  0.8186881229706986  0.1538353185881576  1.0000
  C   C54       1.0  0.4907751889520425  0.31873771889245023  0.34620036680464483  1.0000
  C   C55       1.0  0.9907501232298157  0.18131257112449362  0.8461651211894576  1.0000
  C   C56       1.0  0.5092288670001679  0.681261866928452  0.6538002682126631  1.0000
  C   C57       1.0  0.9177277023037573  0.7616753529270427  0.2932933635946569  1.0000
  C   C58       1.0  0.5822560650272023  0.26167793075372714  0.20671382774549582  1.0000
  C   C59       1.0  0.0822705916233133  0.23832312596716324  0.7067057908091172  1.0000
  C   C60       1.0  0.4177472775050575  0.738322208771436  0.7932855220977614  1.0000
  C   C61       1.0  0.8288593732709516  0.7609298748236031  0.3181347268862424  1.0000
  C   C62       1.0  0.6711204811774465  0.2609281993874148  0.1818633879700684  1.0000
  C   C63       1.0  0.17113892345543746  0.2390680502300456  0.681864008373843  1.0000
  C   C64       1.0  0.3288828561548982  0.7390713864757217  0.8181368000406977  1.0000
  C   C65       1.0  0.8192859581803802  0.7202912614806042  0.3674551126941665  1.0000
  C   C66       1.0  0.6807012208374843  0.22029888999279026  0.13252367161220488  1.0000
  C   C67       1.0  0.18071232761455752  0.27970777137318253  0.632545299060773  1.0000
  C   C68       1.0  0.3192999478348498  0.7796984811703993  0.867477270737794  1.0000
  C   C69       1.0  0.8998450278453305  0.6810865336737851  0.3897298579036388  1.0000
  C   C70       1.0  0.6001673583472709  0.18108656141927784  0.11025986429463329  1.0000
  C   C71       1.0  0.10015469172550698  0.318915821841344  0.6102718672078495  1.0000
  C   C72       1.0  0.3998330935741805  0.8189141324129211  0.889740212184847  1.0000
  C   C73       1.0  0.9862428090940084  0.6840227575864405  0.36223803447564507  1.0000
  C   C74       1.0  0.5137753111890219  0.18402318605395615  0.1377632872102694  1.0000
  C   C75       1.0  0.013757637095913797  0.3159795977079298  0.6377628803311808  1.0000
  C   C76       1.0  0.4862237005604868  0.8159786154843119  0.8622363144397909  1.0000
  C   C77       1.0  0.6925977895166966  0.6567964568856297  0.4208523288810326  1.0000
  C   C78       1.0  0.8074573396323004  0.15678788316494519  0.07912460956358561  1.0000
  C   C79       1.0  0.30740266026996466  0.34320202188188637  0.5791481665423461  1.0000
  C   C80       1.0  0.1925423977976379  0.8432067190584435  0.9208746003660764  1.0000
  C   C81       1.0  0.727504446167593  0.7206370451962344  0.39541679242828554  1.0000
  C   C82       1.0  0.7724976918692334  0.22064754605128206  0.1045659807750496  1.0000
  C   C83       1.0  0.27249455838011016  0.2793614338342821  0.6045840662932278  1.0000
  C   C84       1.0  0.2275034878674447  0.7793481635307205  0.8954332850401342  1.0000
  C   C85       1.0  0.6713309701892951  0.7850624800217646  0.397462009157735  1.0000
  C   C86       1.0  0.8286358361872247  0.2850642586027022  0.1025428856074413  1.0000
  C   C87       1.0  0.3286673133379522  0.2149348915483885  0.6025388215810565  1.0000
  C   C88       1.0  0.17136608429800756  0.714928127774684  0.8974534741446546  1.0000
  C   C89       1.0  0.5854766110628873  0.7836191106652565  0.4245322938722893  1.0000
  C   C90       1.0  0.9144894754061352  0.2835853250946059  0.0754689813950904  1.0000
  C   C91       1.0  0.41452238828490795  0.21637881470322642  0.5754694030167329  1.0000
  C   C92       1.0  0.0855124393475677  0.7164087227449514  0.9245282166843509  1.0000
  C   C93       1.0  0.5573302247346064  0.7176010206327277  0.4488914834897955  1.0000
  C   C94       1.0  0.9426675375883491  0.21753937248291785  0.05110319626081151  1.0000
  C   C95       1.0  0.4426680558604232  0.28239745855903214  0.5511097664326456  1.0000
  C   C96       1.0  0.057335085518296594  0.7824530142093095  0.9488961251202211  1.0000
  N   N1        1.0  0.6098725760757587  0.65532145404503  0.4467650803895041  1.0000
  N   N2        1.0  0.8901854230003822  0.15525419362185033  0.05321423929003541  1.0000
  N   N3        1.0  0.3901278705128775  0.34467923990619204  0.5532358342974462  1.0000
  N   N4        1.0  0.10981286345907648  0.8447420703266959  0.9467861722651064  1.0000
  N   N5        1.0  0.9944358751140498  0.723504453105356  0.3149186888430506  1.0000
  N   N6        1.0  0.5055676150616789  0.22351232887753986  0.1850893367048201  1.0000
  N   N7        1.0  0.005563850188309496  0.27649624094760844  0.6850821979410996  1.0000
  N   N8        1.0  0.49443283926037646  0.7764894724572431  0.8149103207508475  1.0000
  O   O1        1.0  0.41581119930761895  0.5852891556319479  0.4490439872300414  1.0000
  O   O2        1.0  0.08431924521899958  0.0853363801063693  0.051053375945173195  1.0000
  O   O3        1.0  0.5841870919530405  0.414709323321766  0.5509555862774675  1.0000
  O   O4        1.0  0.9156854558980995  0.9146692988706424  0.9489590223190233  1.0000
  O   O5        1.0  0.3321751509301905  0.4890420026054587  0.48379594034577167  1.0000
  O   O6        1.0  0.1678514582946349  0.9890499943065767  0.016282678593867696  1.0000
  O   O7        1.0  0.6678238560181241  0.5109575839276418  0.5162044993519288  1.0000
  O   O8        1.0  0.832133158131505  0.010958453924971003  0.9837113362348687  1.0000
  O   O9        1.0  0.020823443522409897  0.895798970347329  0.0531632442492622  1.0000
  O   O10       1.0  0.47909179074410707  0.3958316381784997  0.44683383807894467  1.0000
  O   O11       1.0  0.9791849630902049  0.10421612013736592  0.946833368266347  1.0000
  O   O12       1.0  0.5209079486877214  0.6041657328906214  0.5531649529467799  1.0000
  O   O13       1.0  0.9358837569423101  0.9922036446686211  0.0867791614862625  1.0000
  O   O14       1.0  0.5641417391982984  0.4922227300637091  0.41323701117197936  1.0000
  O   O15       1.0  0.06410511026598438  0.007792067773699801  0.9132275929522464  1.0000
  O   O16       1.0  0.4358565383316061  0.5077774105307142  0.5867646579740722  1.0000
