data_image0
_chemical_formula_structural       CuH16C22N6O10F4
_chemical_formula_sum              "Cu1 H16 C22 N6 O10 F4"
_cell_length_a       7.809468817425608
_cell_length_b       8.07779801214408
_cell_length_c       11.059912031770898
_cell_angle_alpha    86.86193163498095
_cell_angle_beta     71.06992474863087
_cell_angle_gamma    65.45389224240894

_space_group_name_H-M_alt    "P 1"
_space_group_IT_number       1

loop_
  _space_group_symop_operation_xyz
  'x, y, z'

loop_
  _atom_site_type_symbol
  _atom_site_label
  _atom_site_symmetry_multiplicity
  _atom_site_fract_x
  _atom_site_fract_y
  _atom_site_fract_z
  _atom_site_occupancy
  Cu  Cu1       1.0  0.9999998905797014  0.500000043810587  1.9384410877991087e-07  1.0000
  H   H1        1.0  0.316681238398111  0.6883643315424023  0.9423982203188502  1.0000
  H   H2        1.0  0.6833186245453219  0.31163439615040284  0.0576026581005706  1.0000
  H   H3        1.0  0.7500475565883847  0.8346823457313731  0.22279944063001272  1.0000
  H   H4        1.0  0.24995100621186583  0.165319130448502  0.7771998273532718  1.0000
  H   H5        1.0  0.7081900161059878  0.1466904974600638  0.30426032052128704  1.0000
  H   H6        1.0  0.2918119511573919  0.853309591677352  0.6957418162318306  1.0000
  H   H7        1.0  0.9053689391132379  0.21403895740872514  0.23333392762739194  1.0000
  H   H8        1.0  0.09463020527826409  0.785958398743894  0.7666671744715785  1.0000
  H   H9        1.0  0.18932071104751458  0.4506044303554759  0.5777131136572253  1.0000
  H   H10       1.0  0.8106778346082419  0.5493970532166232  0.422285253851321  1.0000
  H   H11       1.0  0.6482521847680185  0.6520609210443383  0.8341583928558408  1.0000
  H   H12       1.0  0.3517476267419255  0.34793782882515956  0.16583978413936515  1.0000
  H   H13       1.0  0.2925793149669289  0.151703507900443  0.06652253487486351  1.0000
  H   H14       1.0  0.7074212322394329  0.8482966061170173  0.9334763189155243  1.0000
  H   H15       1.0  0.3861048176647301  0.2609268908995688  0.9579026502254853  1.0000
  H   H16       1.0  0.6138943609181166  0.7390732258212297  0.04209562202638755  1.0000
  C   C1        1.0  0.18243018190408827  0.7585194983224426  0.02336889787188308  1.0000
  C   C2        1.0  0.8175703995912753  0.2414806009105561  0.9766317568679885  1.0000
  C   C3        1.0  0.8943659335231117  0.8281833442303039  0.16440347403074912  1.0000
  C   C4        1.0  0.10563264642163264  0.17181812455733336  0.8355966944272739  1.0000
  C   C5        1.0  0.8697624170466581  0.10210137819787947  0.2767051764372185  1.0000
  C   C6        1.0  0.13023953307222044  0.8978987183317744  0.7232960598411611  1.0000
  C   C7        1.0  0.9374471322859961  0.0493228559890042  0.39121128378731385  1.0000
  C   C8        1.0  0.06255741802160485  0.9506745189191649  0.6087885425667638  1.0000
  C   C9        1.0  0.843616227139421  0.9703908120492598  0.49055928583013036  1.0000
  C   C10       1.0  0.15638763890524396  0.029605176534261105  0.5094425651529734  1.0000
  C   C11       1.0  0.9031720636341661  0.9236836990496896  0.5977103445569087  1.0000
  C   C12       1.0  0.09683045093147766  0.07631228484493852  0.40229182536241853  1.0000
  C   C13       1.0  0.35153028436223377  0.42228071223411945  0.7639666463528203  1.0000
  C   C14       1.0  0.6484695442922046  0.5777180302431475  0.23603243111712402  1.0000
  C   C15       1.0  0.4273591499877724  0.46710965816955513  0.6284428599094342  1.0000
  C   C16       1.0  0.572637359828377  0.5328932097416583  0.37155322036779403  1.0000
  C   C17       1.0  0.32528620213169296  0.4727677151917645  0.5438930489261652  1.0000
  C   C18       1.0  0.6747102563486108  0.5272323995434932  0.4561049607234226  1.0000
  C   C19       1.0  0.6021846281500487  0.4962531591141612  0.5844980651825511  1.0000
  C   C20       1.0  0.3978112145476586  0.5037483150801663  0.41550094019844164  1.0000
  C   C21       1.0  0.708757066249113  0.5074431450252845  0.6729694808562601  1.0000
  C   C22       1.0  0.2912448667252718  0.49255695889659284  0.3270308549473811  1.0000
  N   N1        1.0  0.02948828904966653  0.7052944222609555  0.06600851242944122  1.0000
  N   N2        1.0  0.970510923822175  0.2947056796753813  0.9339915607719153  1.0000
  N   N3        1.0  0.9637063097390949  0.9493407887705133  0.17832766564449545  1.0000
  N   N4        1.0  0.0362929202772477  0.050659305773592685  0.8216733080315992  1.0000
  N   N5        1.0  0.14767144310530267  0.9076055176182295  0.0898439317802087  1.0000
  N   N6        1.0  0.8523270855036029  0.0923931979934522  0.9101581660501811  1.0000
  O   O1        1.0  0.16483738856822328  0.5196429861885221  0.8231006696198837  1.0000
  O   O2        1.0  0.8351618585926134  0.48035710096335293  0.1769012045309496  1.0000
  O   O3        1.0  0.47001104343923567  0.2942050973399333  0.8067321454023431  1.0000
  O   O4        1.0  0.5299915053177529  0.7057936471228745  0.1932671946698861  1.0000
  O   O5        1.0  0.5816073052280897  0.6260343162566926  0.776455987640368  1.0000
  O   O6        1.0  0.41838799016735345  0.3739712631804224  0.22354298457441507  1.0000
  O   O7        1.0  0.8891747478843895  0.42501142117409785  0.6496619824378062  1.0000
  O   O8        1.0  0.11081433732054785  0.5749928049284422  0.3503339868277352  1.0000
  O   O9        1.0  0.31270763685808584  0.2636065697586218  0.052384698757123344  1.0000
  O   O10       1.0  0.6872929103482832  0.7363935442588385  0.9476141550332644  1.0000
  F   F1        1.0  0.691199080803976  0.936981778806164  0.4824537246590027  1.0000
  F   F2        1.0  0.30880141506655434  0.0630155820353409  0.5175470585037445  1.0000
  F   F3        1.0  0.8056123336949313  0.8485201446982558  0.6914462615329598  1.0000
  F   F4        1.0  0.1943861949139745  0.1514785709134259  0.30855583629742983  1.0000
