data_image0
_chemical_formula_structural       Cd4H28C52N4O16
_chemical_formula_sum              "Cd4 H28 C52 N4 O16"
_cell_length_a       6.962633693032449
_cell_length_b       8.274775951876753
_cell_length_c       21.40375084627428
_cell_angle_alpha    95.01833004946347
_cell_angle_beta     90.00002853707485
_cell_angle_gamma    90.00033019651835

_space_group_name_H-M_alt    "P 1"
_space_group_IT_number       1

loop_
  _space_group_symop_operation_xyz
  'x, y, z'

loop_
  _atom_site_type_symbol
  _atom_site_label
  _atom_site_symmetry_multiplicity
  _atom_site_fract_x
  _atom_site_fract_y
  _atom_site_fract_z
  _atom_site_occupancy
  Cd  Cd1       1.0  0.7122575870041671  0.16818412701078966  0.7121911312775993  1.0000
  Cd  Cd2       1.0  0.2122491240959618  0.3318207588373809  0.7878087896751039  1.0000
  Cd  Cd3       1.0  0.2877288866538875  0.8318172777411876  0.28780944461340846  1.0000
  Cd  Cd4       1.0  0.7877416582773974  0.6681806443670696  0.2121927205792957  1.0000
  H   H1        1.0  0.3028783137206473  0.29801605183190116  0.5849121701626102  1.0000
  H   H2        1.0  0.8028744683077207  0.20199536163411122  0.9150907868697544  1.0000
  H   H3        1.0  0.6971139048814833  0.7019829274302795  0.4150878558955995  1.0000
  H   H4        1.0  0.1971120053503269  0.7980060431178655  0.0849097890212605  1.0000
  H   H5        1.0  0.30502798736608117  0.21777434117989708  0.4692410019042513  1.0000
  H   H6        1.0  0.8050282210030343  0.2822479481410696  0.0307602902416804  1.0000
  H   H7        1.0  0.6949742849065002  0.78222585202942  0.5307585983001673  1.0000
  H   H8        1.0  0.1949783600074538  0.717759524710317  0.969239090738746  1.0000
  H   H9        1.0  0.20272642666568427  0.7232372662243735  0.5037240438037002  1.0000
  H   H10       1.0  0.7027375901296149  0.776769990898032  0.9962720554545965  1.0000
  H   H11       1.0  0.7972945166844454  0.2767568582060562  0.4962772184983208  1.0000
  H   H12       1.0  0.2972732995614891  0.2232277799461286  0.003725126191930898  1.0000
  H   H13       1.0  0.9613328410741885  0.6355750655335941  0.5873404382638653  1.0000
  H   H14       1.0  0.46133632519366313  0.8644274526507587  0.9126583326753204  1.0000
  H   H15       1.0  0.03868235731896868  0.3644178465194089  0.4126603155298126  1.0000
  H   H16       1.0  0.5386472759495432  0.13556181833644837  0.0873432314981457  1.0000
  H   H17       1.0  0.9584899205152051  0.42690629770206817  0.6637837877645508  1.0000
  H   H18       1.0  0.45849135568722216  0.07309622117940509  0.8362132777478735  1.0000
  H   H19       1.0  0.04152240539769279  0.5730854012015953  0.33621692470258313  1.0000
  H   H20       1.0  0.5414879367486731  0.9268954776392208  0.1637874347144574  1.0000
  H   H21       1.0  0.41932692369130803  0.6419532598528265  0.7623032585721177  1.0000
  H   H22       1.0  0.919323748186116  0.8580538907129168  0.737698001358673  1.0000
  H   H23       1.0  0.5806940196462802  0.35803844608680174  0.23769324926385585  1.0000
  H   H24       1.0  0.08066703423117617  0.14196085705292208  0.2623039634831201  1.0000
  H   H25       1.0  0.4516558179381531  0.8521546120313276  0.6857261700687829  1.0000
  H   H26       1.0  0.9516600395272189  0.6478502810568332  0.8142736150706396  1.0000
  H   H27       1.0  0.5483521992531732  0.14783587917445837  0.31427123080194963  1.0000
  H   H28       1.0  0.048337924067837386  0.3521608288602779  0.18572729143105698  1.0000
  C   C1        1.0  0.2307800848182068  0.11344860099200102  0.6774472269881782  1.0000
  C   C2        1.0  0.7307887512552751  0.38655880265299913  0.8225551179140566  1.0000
  C   C3        1.0  0.7692308048955993  0.8865552308860317  0.3225529643772589  1.0000
  C   C4        1.0  0.2691962861623693  0.6134426059918283  0.17744312206984597  1.0000
  C   C5        1.0  0.24691165552316355  0.05539005971264999  0.6093067261839308  1.0000
  C   C6        1.0  0.7469079077798707  0.4446198594741446  0.8906919686101206  1.0000
  C   C7        1.0  0.7530877442806982  0.9446125605524714  0.3906924894909451  1.0000
  C   C8        1.0  0.2530900557863163  0.5553827600079658  0.10930771424592929  1.0000
  C   C9        1.0  0.2782334765292091  0.17237913532515853  0.5669538544808715  1.0000
  C   C10       1.0  0.7782347940334161  0.327629728879792  0.9330466768243112  1.0000
  C   C11       1.0  0.7217630507757845  0.8276162037429771  0.43304651478096895  1.0000
  C   C12       1.0  0.22176604200548403  0.6723716766884708  0.0669534318874057  1.0000
  C   C13       1.0  0.2781499690153026  0.1285680322047824  0.5027308063942754  1.0000
  C   C14       1.0  0.7781516979224389  0.3714396145327896  0.9972720194674523  1.0000
  C   C15       1.0  0.7218566119831988  0.8714358012207699  0.4972684506077769  1.0000
  C   C16       1.0  0.22185919178474475  0.6285617887234238  0.002729490789867801  1.0000
  C   C17       1.0  0.2481539731919966  0.9668413662736769  0.47988467803471474  1.0000
  C   C18       1.0  0.7481568709867332  0.5331745491819576  0.020118095536759  1.0000
  C   C19       1.0  0.7518526077634744  0.03314912103186881  0.5201150587426964  1.0000
  C   C20       1.0  0.2518583274428322  0.4668292803692324  0.9798834973734428  1.0000
  C   C21       1.0  0.21876532763067044  0.8495601279322572  0.5221079919892587  1.0000
  C   C22       1.0  0.7187655779828217  0.6504690451780917  0.9778907245287057  1.0000
  C   C23       1.0  0.7812498708019785  0.1504449163195005  0.47789270788431537  1.0000
  C   C24       1.0  0.2812438755274441  0.3495457073116627  0.0221084372275229  1.0000
  C   C25       1.0  0.21877845426632084  0.8916038573813481  0.5868936220042257  1.0000
  C   C26       1.0  0.7187797398006595  0.6084034776856271  0.9131052850101824  1.0000
  C   C27       1.0  0.7812252542168846  0.10838784305875039  0.41310615609889817  1.0000
  C   C28       1.0  0.28122109622979957  0.39159550237804563  0.0868942738678982  1.0000
  C   C29       1.0  0.2574792506645735  0.9210996066647896  0.4108476278056372  1.0000
  C   C30       1.0  0.7574754006911418  0.5789175730450112  0.0891533210780366  1.0000
  C   C31       1.0  0.7425215853766073  0.07890179500692081  0.5891548168129859  1.0000
  C   C32       1.0  0.24252974407858824  0.42108868432281094  0.9108474201201914  1.0000
  C   C33       1.0  0.20485088338900673  0.7649061186386206  0.631057446668116  1.0000
  C   C34       1.0  0.7048586533100757  0.7350975076493144  0.8689399307734148  1.0000
  C   C35       1.0  0.795161442546046  0.23509286223394105  0.3689416450302615  1.0000
  C   C36       1.0  0.29512782035551044  0.26490632416586385  0.13106026058846956  1.0000
  C   C37       1.0  0.06730338292170758  0.6406954207023148  0.6248718248474816  1.0000
  C   C38       1.0  0.5672990485698007  0.859312349162508  0.8751261450678667  1.0000
  C   C39       1.0  0.9326931443685705  0.3592962836158409  0.3751256173476989  1.0000
  C   C40       1.0  0.432690297540084  0.14068177752449884  0.12487371568542467  1.0000
  C   C41       1.0  0.06327009244485277  0.5252186006956878  0.6683648081398559  1.0000
  C   C42       1.0  0.563267861938243  0.9747879360460204  0.8316326520950739  1.0000
  C   C43       1.0  0.9367494146715952  0.4747767360936735  0.3316369626694637  1.0000
  C   C44       1.0  0.43670424934123264  0.025213463993132703  0.1683707268821237  1.0000
  C   C45       1.0  0.3205783455532937  0.6459725414045253  0.7229283967863436  1.0000
  C   C46       1.0  0.8205895833267999  0.8540280420830515  0.777068423159157  1.0000
  C   C47       1.0  0.6794354166048178  0.35402158534534334  0.2770714639704934  1.0000
  C   C48       1.0  0.17940119905944835  0.14597699898861552  0.2229341454363833  1.0000
  C   C49       1.0  0.3354408813539464  0.7639884395634554  0.6810099659982  1.0000
  C   C50       1.0  0.8354327608242185  0.7360231308803051  0.8189919020166911  1.0000
  C   C51       1.0  0.6645757532994947  0.2360117544621474  0.3189891670269347  1.0000
  C   C52       1.0  0.16455802157436483  0.2639867689936111  0.18100709443231716  1.0000
  N   N1        1.0  0.18634139547742729  0.5282592617834965  0.7170711027173055  1.0000
  N   N2        1.0  0.6863347410434171  0.9717503309820829  0.782928811875557  1.0000
  N   N3        1.0  0.8136694942025996  0.47173486807621157  0.2829268893136002  1.0000
  N   N4        1.0  0.3136531688598437  0.028253501616099203  0.21707091230516076  1.0000
  O   O1        1.0  0.3743840648035216  0.18952836716980676  0.7042641187272665  1.0000
  O   O2        1.0  0.8743677667111667  0.31048463145889127  0.7957365645223646  1.0000
  O   O3        1.0  0.6256009725818075  0.8104621169630448  0.29573748677253764  1.0000
  O   O4        1.0  0.12562588812909328  0.6895143478069913  0.20426346153605826  1.0000
  O   O5        1.0  0.07515791934369527  0.09886421569446921  0.7065251245393467  1.0000
  O   O6        1.0  0.5751407716660708  0.40116059468348914  0.793471254443787  1.0000
  O   O7        1.0  0.9248228093719957  0.9011408315857852  0.2934737066036917  1.0000
  O   O8        1.0  0.424865809331628  0.5988420201449572  0.20653123150179198  1.0000
  O   O9        1.0  0.2869579795569592  0.0327087817954208  0.37463157304554767  1.0000
  O   O10       1.0  0.7869394976044145  0.4673049240066903  0.125368490195747  1.0000
  O   O11       1.0  0.7130385477591046  0.9672901982571674  0.6253679858319074  1.0000
  O   O12       1.0  0.21305128478355326  0.5327013341034643  0.8746317838190122  1.0000
  O   O13       1.0  0.23898430333503023  0.7711238542344107  0.3903567609777809  1.0000
  O   O14       1.0  0.738985779901128  0.7288883769184763  0.10964448440366678  1.0000
  O   O15       1.0  0.7610107877273788  0.22887027246738972  0.6096430997763419  1.0000
  O   O16       1.0  0.261025109824665  0.2711190943853836  0.8903558309401517  1.0000
