data_image0
_chemical_formula_structural       Zn8H39C62N13Cl10O26
_chemical_formula_sum              "Zn8 H39 C62 N13 Cl10 O26"
_cell_length_a       18.30100724007654
_cell_length_b       18.41419665530144
_cell_length_c       18.459889881041157
_cell_angle_alpha    119.89258744847065
_cell_angle_beta     89.93654179293299
_cell_angle_gamma    119.81122792801222

_space_group_name_H-M_alt    "P 1"
_space_group_IT_number       1

loop_
  _space_group_symop_operation_xyz
  'x, y, z'

loop_
  _atom_site_type_symbol
  _atom_site_label
  _atom_site_symmetry_multiplicity
  _atom_site_fract_x
  _atom_site_fract_y
  _atom_site_fract_z
  _atom_site_occupancy
  Zn  Zn1       1.0  0.4573197361012404  0.4056769059993215  0.5434895437735109  1.0000
  Zn  Zn2       1.0  0.44746570851896195  0.5746473901312328  0.5404531575813466  1.0000
  Zn  Zn3       1.0  0.45321727191418404  0.4055396605890779  0.371166318829495  1.0000
  Zn  Zn4       1.0  0.626104686875635  0.5847851247522157  0.5431360796215047  1.0000
  Zn  Zn5       1.0  0.04348515194240589  0.5823361643126007  0.9566298875138416  1.0000
  Zn  Zn6       1.0  0.03745474916834723  0.582747969946162  0.12909557009672312  1.0000
  Zn  Zn7       1.0  0.03483997973926019  0.4019152947184423  0.9572000335298086  1.0000
  Zn  Zn8       1.0  0.8672165619540665  0.4081110341158834  0.953267026559715  1.0000
  H   H1        1.0  0.6208772684982548  0.48949125880837846  0.7668965705980926  1.0000
  H   H2        1.0  0.9479240012292249  0.49439694567783476  0.7512858546041771  1.0000
  H   H3        1.0  0.29861762109594986  0.09435640836495202  0.1851522672344004  1.0000
  H   H4        1.0  0.20819029649543108  0.904384964673959  0.08561355302601485  1.0000
  H   H5        1.0  0.1476462206782045  0.8914036689280351  0.3637376815736956  1.0000
  H   H6        1.0  0.6960827147949755  0.3391017353194883  0.027538388067419806  1.0000
  H   H7        1.0  0.595072998122525  0.2868925990185859  0.04859496664136739  1.0000
  H   H8        1.0  0.9634039711852367  0.74031984894728  0.2897060198623863  1.0000
  H   H9        1.0  0.9434661600206836  0.8032942372160292  0.38126301760940623  1.0000
  H   H10       1.0  0.8394083513900199  0.6652347526751328  0.5215323975216464  1.0000
  H   H11       1.0  0.9068274052395395  0.635045951618075  0.47851479546411485  1.0000
  H   H12       1.0  0.2506462170140508  0.08402359079847341  0.46774079261942353  1.0000
  H   H13       1.0  0.7946832790333146  0.7406627352730482  0.41110920569687454  1.0000
  H   H14       1.0  0.8495156130831203  0.7944147361135804  0.5136179397318585  1.0000
  H   H15       1.0  0.5386569034780208  0.9421139228313961  0.6786619040511754  1.0000
  H   H16       1.0  0.5169792728756376  0.8210324761644897  0.6274429894386772  1.0000
  H   H17       1.0  0.03945529281084251  0.10744552827151212  0.7980122506634901  1.0000
  H   H18       1.0  0.995904866075854  0.16717462956403747  0.7982969040265147  1.0000
  H   H19       1.0  0.9111112319731662  0.8618858128937463  0.6656158789543697  1.0000
  H   H20       1.0  0.9081970962306372  0.9405165894736243  0.649376301152394  1.0000
  H   H21       1.0  0.839876384598128  0.9078298566679524  0.8389758806725213  1.0000
  H   H22       1.0  0.7908663672190956  0.7990416013124819  0.7407478308025548  1.0000
  H   H23       1.0  0.3442940894408437  0.0762201578158468  0.46074014611401287  1.0000
  H   H24       1.0  0.13457231496133917  0.6644212487031212  0.43128646568936824  1.0000
  H   H25       1.0  0.13705066772211436  0.6507199498959934  0.3324258712840233  1.0000
  H   H26       1.0  0.11058622973674663  0.4200919318562342  0.3799245501284291  1.0000
  H   H27       1.0  0.20967155075831564  0.4653087191983759  0.44301784739812433  1.0000
  H   H28       1.0  0.3618447254514123  0.7105638140509214  0.9615638025248147  1.0000
  H   H29       1.0  0.33638149620234964  0.7918932490994024  0.9822286024060533  1.0000
  H   H30       1.0  0.37566841074331603  0.7857660216868754  0.7791301691938772  1.0000
  H   H31       1.0  0.35998671238652247  0.6813373881917145  0.6877310830344855  1.0000
  H   H32       1.0  0.02486758366914189  0.4973994492768128  0.5711770445522717  1.0000
  H   H33       1.0  0.04592311191860431  0.5008485247825619  0.664214427929693  1.0000
  H   H34       1.0  0.5834558285033039  0.35947164492177547  0.19030126311380258  1.0000
  H   H35       1.0  0.9653277841193383  0.6559639416204491  0.3728121467960366  1.0000
  H   H36       1.0  0.7660476989919262  0.49047220133245173  0.5477951134107358  1.0000
  H   H37       1.0  0.6770328359432866  0.09333134121616382  0.7778282771389442  1.0000
  H   H38       1.0  0.9358206185944692  0.0716884720528412  0.8724786615958494  1.0000
  H   H39       1.0  0.23914891150050008  0.6918510711648267  0.8408205759257755  1.0000
  C   C1        1.0  0.624218538196743  0.7682635061940174  0.6366043663122911  1.0000
  C   C2        1.0  0.3037440964154711  0.10321636944429709  0.3059070451887394  1.0000
  C   C3        1.0  0.2778151817563809  0.0498837102391363  0.21294113612935214  1.0000
  C   C4        1.0  0.35833026114743655  0.21670018837303223  0.3636808566849227  1.0000
  C   C5        1.0  0.22718952266495762  0.9434730634438467  0.15716144106834667  1.0000
  C   C6        1.0  0.1979651680071299  0.8838340561717429  0.1911099442333822  1.0000
  C   C7        1.0  0.2237071569734326  0.9371973103518627  0.2829972950185892  1.0000
  C   C8        1.0  0.2150573447591313  0.9262823496021683  0.35921400479280413  1.0000
  C   C9        1.0  0.2786843372713719  0.04676460879419861  0.4226515356038406  1.0000
  C   C10       1.0  0.7827126376873252  0.5776629267248695  0.3381690370261836  1.0000
  C   C11       1.0  0.6916876470943336  0.49955908641997127  0.3062354847018653  1.0000
  C   C12       1.0  0.9071160636909354  0.4931140041038092  0.7071726537106218  1.0000
  C   C13       1.0  0.6541964567799852  0.4209143395048188  0.2161985312995044  1.0000
  C   C14       1.0  0.7042060817931101  0.4177991391489044  0.15743844345261954  1.0000
  C   C15       1.0  0.797970891752307  0.4971599988202088  0.19140075329560352  1.0000
  C   C16       1.0  0.3467174056307272  0.4788009235463022  0.62634186952441  1.0000
  C   C17       1.0  0.833364920712249  0.5748493177046967  0.2823562119042152  1.0000
  C   C18       1.0  0.9204906906626817  0.6730949876991946  0.3561533293408133  1.0000
  C   C19       1.0  0.860088473192981  0.6803167910194716  0.4202794710502857  1.0000
  C   C20       1.0  0.77273953471466  0.9353582963268398  0.7279168288046736  1.0000
  C   C21       1.0  0.680114497865162  0.8803846029555232  0.6901362043828742  1.0000
  C   C22       1.0  0.6453928594389778  0.9404784585828665  0.7085631226799763  1.0000
  C   C23       1.0  0.833114519952808  0.49552141958499624  0.7253354825416667  1.0000
  C   C24       1.0  0.7042436727307901  0.048626855853740394  0.7642606881329641  1.0000
  C   C25       1.0  0.795533067410787  0.1005654434326786  0.8028574871205052  1.0000
  C   C26       1.0  0.8285782372083472  0.04099176786132829  0.7834083569949187  1.0000
  C   C27       1.0  0.9120991714241456  0.0466340784855745  0.80382736577468  1.0000
  C   C28       1.0  0.6353523600769647  0.4979017704854485  0.36392060924544734  1.0000
  C   C29       1.0  0.8494333534481838  0.9230676130521474  0.736616770252148  1.0000
  C   C30       1.0  0.2574481096112465  0.5337905341215078  0.33318571516079504  1.0000
  C   C31       1.0  0.3193155585573494  0.5118372508651136  0.30589498445554153  1.0000
  C   C32       1.0  0.3296570358551918  0.5001598089968342  0.22532389266434905  1.0000
  C   C33       1.0  0.2745373889801286  0.501983806815737  0.17295404456797314  1.0000
  C   C34       1.0  0.7798473474430807  0.494497121176643  0.6668774835140567  1.0000
  C   C35       1.0  0.20673485801362546  0.5148059564461391  0.1986380287432397  1.0000
  C   C36       1.0  0.20327018699764213  0.5342154077599589  0.28113964953224996  1.0000
  C   C37       1.0  0.1527733742231591  0.5551964514236191  0.34435146049826676  1.0000
  C   C38       1.0  0.21435075102557732  0.5535681568624398  0.4059527022963182  1.0000
  C   C39       1.0  0.2879448851776302  0.5551133206208974  0.7417852413742524  1.0000
  C   C40       1.0  0.36528306487164025  0.49762949354418134  0.35936045260537247  1.0000
  C   C41       1.0  0.2800369456095595  0.4679242249261719  0.6739218337163779  1.0000
  C   C42       1.0  0.2100860033007237  0.3745971944021065  0.6586857079156162  1.0000
  C   C43       1.0  0.1543285310879554  0.37220390094847744  0.7122342552024179  1.0000
  C   C44       1.0  0.16632151527480937  0.4629549346340269  0.7824586347613334  1.0000
  C   C45       1.0  0.7030582180703177  0.4927332097579508  0.6840616680446701  1.0000
  C   C46       1.0  0.2335883511389696  0.5530611868872058  0.7940035753294056  1.0000
  C   C47       1.0  0.2796877024498414  0.6683657746393764  0.8533938707683435  1.0000
  C   C48       1.0  0.34338353301511404  0.6701324698709642  0.7910950722588552  1.0000
  C   C49       1.0  0.8554136463600058  0.49815046926590156  0.1358824008877164  1.0000
  C   C50       1.0  0.11442002673624065  0.4687717515773214  0.8453833265086673  1.0000
  C   C51       1.0  0.14096224423785494  0.7703744632828134  0.13225363093432213  1.0000
  C   C52       1.0  0.6438593909789176  0.49386544883721234  0.6295041565483288  1.0000
  C   C53       1.0  0.8535772095438857  0.21421618780667018  0.8611321857834471  1.0000
  C   C54       1.0  0.1393331294824591  0.5047947616073145  0.14187630430531334  1.0000
  C   C55       1.0  0.8633504723475339  0.4987332832541753  0.8613959329330356  1.0000
  C   C56       1.0  0.6798764695983337  0.4914945500824715  0.7550903502387883  1.0000
  C   C57       1.0  0.8046828992085154  0.4909547534798195  0.5929104846060087  1.0000
  C   C58       1.0  0.8771589620005069  0.48848857703264764  0.5773479062101856  1.0000
  C   C59       1.0  0.9311838093418316  0.4897839868976989  0.6345196840293568  1.0000
  C   C60       1.0  0.7330225301585997  0.49469357158361776  0.8129035244971805  1.0000
  C   C61       1.0  0.8084004419958859  0.49666999510712634  0.7995067054868272  1.0000
  C   C62       1.0  0.2763046314239118  0.04373507513925999  0.33905060718807795  1.0000
  N   N1        1.0  0.6618594021527642  0.3375949977256313  0.07061695185397106  1.0000
  N   N2        1.0  0.1699656885987224  0.4833646079608016  0.4285439280763796  1.0000
  N   N3        1.0  0.3122537495127347  0.7164430307351283  0.9463165050466744  1.0000
  N   N4        1.0  0.34213309782913376  0.7084066818791472  0.7425828277870182  1.0000
  N   N5        1.0  0.0016178756685647309  0.4845093226467085  0.616297223545793  1.0000
  N   N6        1.0  0.9699471788853486  0.7618110763587254  0.35329778020428654  1.0000
  N   N7        1.0  0.890292798229474  0.6856590861286167  0.4964926860218671  1.0000
  N   N8        1.0  0.8518248199284743  0.7646223053141485  0.45030202261728663  1.0000
  N   N9        1.0  0.5567136249764246  0.8972135725015207  0.6757477873526128  1.0000
  N   N10       1.0  0.9821274927165219  0.0968554835727673  0.7744507239120183  1.0000
  N   N11       1.0  0.8703484214341798  0.8814422503405411  0.6559131010295972  1.0000
  N   N12       1.0  0.8462673194588035  0.8727964222007216  0.7781538733423403  1.0000
  N   N13       1.0  0.15480570149978942  0.6414890789184967  0.37779706534880125  1.0000
  Cl  Cl1       1.0  0.25703335030583224  0.8608078630607354  0.36890241197120593  1.0000
  Cl  Cl2       1.0  0.7025393572921316  0.500606062182186  0.903664131852132  1.0000
  Cl  Cl3       1.0  0.41179829849447463  0.4872868194849219  0.18965955974763216  1.0000
  Cl  Cl4       1.0  0.2935745150592979  0.4920993725610927  0.07837495719095242  1.0000
  Cl  Cl5       1.0  0.03192338926564284  0.4306434802098309  0.2904347789728448  1.0000
  Cl  Cl6       1.0  0.29262837077439496  0.6809856643864123  0.5073408400375571  1.0000
  Cl  Cl7       1.0  0.9050010424941703  0.4829613308676529  0.4855078636375156  1.0000
  Cl  Cl8       1.0  0.18904108479510737  0.260885802966861  0.571866286672581  1.0000
  Cl  Cl9       1.0  0.06919410117956909  0.256222604848297  0.6891504056920256  1.0000
  Cl  Cl10      1.0  0.4589344832507862  0.7266187970508468  0.8566927942443955  1.0000
  O   O1        1.0  0.49521720429600435  0.49275659164611346  0.5006095894487788  1.0000
  O   O2        1.0  0.9378710352184427  0.25633988527204815  0.8847163169418623  1.0000
  O   O3        1.0  0.11750429588512659  0.566950966569401  0.18246253005239055  1.0000
  O   O4        1.0  0.6623392000846308  0.724141130252619  0.6311208068429294  1.0000
  O   O5        1.0  0.823584969067376  0.4246610028698613  0.8693176234089253  1.0000
  O   O6        1.0  0.10807004511195122  0.43382281304072734  0.06008313670636062  1.0000
  O   O7        1.0  0.9452651534478846  0.5736028027555946  0.9001185927249156  1.0000
  O   O8        1.0  0.1304194959567937  0.727229225002688  0.04960194560275272  1.0000
  O   O9        1.0  0.8159210040524911  0.26100054848129883  0.8832003339727522  1.0000
  O   O10       1.0  0.9394139016351346  0.5653369466243702  0.17593173205157342  1.0000
  O   O11       1.0  0.10745006594631691  0.4235636323498184  0.8817237020819207  1.0000
  O   O12       1.0  0.37678595831017964  0.4254235289549371  0.6099517958483532  1.0000
  O   O13       1.0  0.38771614195933063  0.2595195464146514  0.44666003249434283  1.0000
  O   O14       1.0  0.36947606126885546  0.5454127657248193  0.609642413246462  1.0000
  O   O15       1.0  0.5536496531814092  0.42180973991479215  0.3278174488247175  1.0000
  O   O16       1.0  0.3645832923443423  0.5359229526427925  0.439002165861929  1.0000
  O   O17       1.0  0.6800666782232269  0.5483117343363446  0.5997956411061054  1.0000
  O   O18       1.0  0.3971431779892356  0.4461122658204033  0.3221428783780028  1.0000
  O   O19       1.0  0.5608576640610748  0.4414822714875585  0.6190699594656551  1.0000
  O   O20       1.0  0.6735108932119047  0.5730942737117674  0.44567338227466996  1.0000
  O   O21       1.0  0.5399356158222942  0.7202498118574141  0.5991504635774518  1.0000
  O   O22       1.0  0.3711490542004511  0.2616444906765807  0.3253211084687494  1.0000
  O   O23       1.0  0.9978662390724224  0.4948183258032016  0.9996755716875256  1.0000
  O   O24       1.0  0.8187163183080273  0.4325263299422843  0.051224950510715045  1.0000
  O   O25       1.0  0.08524858073585055  0.5229806598204264  0.8585495355389697  1.0000
  O   O26       1.0  0.10679745086210346  0.7261770539669782  0.17060947945561364  1.0000
