data_image0
_chemical_formula_structural       Cu3P4H18C16N2O18
_chemical_formula_sum              "Cu3 P4 H18 C16 N2 O18"
_cell_length_a       8.599260628349148
_cell_length_b       9.102302482368742
_cell_length_c       9.502396034636217
_cell_angle_alpha    110.25937919308018
_cell_angle_beta     101.64621358550039
_cell_angle_gamma    109.72090578953177

_space_group_name_H-M_alt    "P 1"
_space_group_IT_number       1

loop_
  _space_group_symop_operation_xyz
  'x, y, z'

loop_
  _atom_site_type_symbol
  _atom_site_label
  _atom_site_symmetry_multiplicity
  _atom_site_fract_x
  _atom_site_fract_y
  _atom_site_fract_z
  _atom_site_occupancy
  Cu  Cu1       1.0  0.2701660271108537  0.7496405727586435  0.026962921170436964  1.0000
  Cu  Cu2       1.0  0.7292962194810572  0.250056181779442  0.9729423345805444  1.0000
  Cu  Cu3       1.0  0.0004806314508272203  0.5004313833142859  0.5000059482722179  1.0000
  P   P1        1.0  0.9534510289144648  0.7776905093061118  0.7953866468801252  1.0000
  P   P2        1.0  0.046488827047397784  0.22232855160707027  0.2043442755081557  1.0000
  P   P3        1.0  0.893708699570709  0.42344244491238914  0.7648847571698383  1.0000
  P   P4        1.0  0.1062578770940874  0.5761965007849525  0.23483516166455587  1.0000
  H   H1        1.0  0.8664622565736195  0.9812231638001024  0.8919951450458188  1.0000
  H   H2        1.0  0.13274683459643205  0.018283088572516707  0.10754358301468162  1.0000
  H   H3        1.0  0.8449742553765063  0.5959533077672957  0.026569730523469604  1.0000
  H   H4        1.0  0.1553770705782611  0.404228012352263  0.973367584170532  1.0000
  H   H5        1.0  0.27825929507519487  0.9263893347847515  0.38373493429732974  1.0000
  H   H6        1.0  0.7217729215943436  0.07375390898545932  0.6164068746924869  1.0000
  H   H7        1.0  0.6436004836915004  0.5022074287302873  0.5619400277638746  1.0000
  H   H8        1.0  0.35623988176711646  0.4975394737365447  0.4379761831869686  1.0000
  H   H9        1.0  0.5761186030783348  0.616768389203564  0.7113255886283625  1.0000
  H   H10       1.0  0.4240368455022788  0.3831728058340858  0.2887483757633759  1.0000
  H   H11       1.0  0.41401999084894203  0.4541408341350035  0.8533331382391935  1.0000
  H   H12       1.0  0.5865360342284305  0.5457795413666845  0.14719123851310212  1.0000
  H   H13       1.0  0.18673334938726066  0.16386666404842737  0.8029496798002711  1.0000
  H   H14       1.0  0.8135239098210506  0.8360981094920917  0.19730165119463555  1.0000
  H   H15       1.0  0.12440140491357718  0.8946842027714228  0.556711784560946  1.0000
  H   H16       1.0  0.8753007915475592  0.10548033761726569  0.4432090765984071  1.0000
  H   H17       1.0  0.4996146840958176  0.1849658728412393  0.4239326739830886  1.0000
  H   H18       1.0  0.5007264085087116  0.815101083086347  0.5763903307771798  1.0000
  C   C1        1.0  0.8010948394359049  0.5841907051740947  0.8072056722014977  1.0000
  C   C2        1.0  0.19918587533225465  0.41575384353379263  0.19258536170779192  1.0000
  C   C3        1.0  0.6205401736298697  0.5142226159121392  0.6738772049273365  1.0000
  C   C4        1.0  0.3795871570889632  0.48572230472694133  0.32617826650103154  1.0000
  C   C5        1.0  0.479591986699873  0.3450657671396442  0.6461990381320106  1.0000
  C   C6        1.0  0.5206384277816979  0.6549561694628208  0.35404320623624835  1.0000
  C   C7        1.0  0.3858769770808621  0.3350409187932968  0.7501523422034069  1.0000
  C   C8        1.0  0.614489607548066  0.6649442482349742  0.2501945515813802  1.0000
  C   C9        1.0  0.2573330118913404  0.17427187029132088  0.7211757086152346  1.0000
  C   C10       1.0  0.7428747790569687  0.8257316039928427  0.2790385522709613  1.0000
  C   C11       1.0  0.22058024674217339  0.025302641659863002  0.5868137731832945  1.0000
  C   C12       1.0  0.7793739894216003  0.97476024999402  0.4132140744759596  1.0000
  C   C13       1.0  0.43657927352077064  0.19143853881969622  0.5129383566487961  1.0000
  C   C14       1.0  0.5636454536213266  0.8085949479971363  0.48728247795818913  1.0000
  C   C15       1.0  0.5224226386892427  0.06188172827769019  0.08768946585122711  1.0000
  C   C16       1.0  0.4767760633791979  0.9378679368467074  0.9120317765092453  1.0000
  N   N1        1.0  0.3102828034725817  0.039065161361520495  0.4874253631140775  1.0000
  N   N2        1.0  0.6897593451515007  0.9610023051123592  0.5126753588413991  1.0000
  O   O1        1.0  0.8503045514446939  0.8894927539685895  0.7820389590924748  1.0000
  O   O2        1.0  0.1488548189514347  0.10995223451893568  0.21767809765285762  1.0000
  O   O3        1.0  0.1167673884758287  0.8847806846825961  0.9495869338756292  1.0000
  O   O4        1.0  0.8830899141731193  0.11562535119485058  0.05021575635605301  1.0000
  O   O5        1.0  0.9841684396803387  0.7104289853992611  0.6371581950320078  1.0000
  O   O6        1.0  0.01626235260768993  0.29028441868688765  0.3627221930775875  1.0000
  O   O7        1.0  0.7800015654525723  0.26397740392793884  0.7844230895159754  1.0000
  O   O8        1.0  0.21986929390863702  0.7359267809625506  0.21545666668079375  1.0000
  O   O9        1.0  0.08861071436757584  0.5100367152567387  0.8794285334352523  1.0000
  O   O10       1.0  0.9111944794684917  0.4897453659838932  0.1210381715207944  1.0000
  O   O11       1.0  0.8721967393477712  0.35854193585383604  0.5867888882840688  1.0000
  O   O12       1.0  0.12853671684996468  0.6419689685306549  0.4132805410794659  1.0000
  O   O13       1.0  0.7797587511315313  0.634256051765462  0.9586663501472117  1.0000
  O   O14       1.0  0.22082529094145537  0.36608233730648015  0.04133975970692922  1.0000
  O   O15       1.0  0.45969053864246223  0.9933975426868853  0.17186074328728995  1.0000
  O   O16       1.0  0.539598951946104  0.006467318942661401  0.8279303256579027  1.0000
  O   O17       1.0  0.6188133904845188  0.22297426430292694  0.1367724678286137  1.0000
  O   O18       1.0  0.3805077065024207  0.7768089746380157  0.8628847162611634  1.0000
