data_image0
_chemical_formula_structural       CdH32C44S2N8O8
_chemical_formula_sum              "Cd1 H32 C44 S2 N8 O8"
_cell_length_a       8.420005590125742
_cell_length_b       8.419911180867954
_cell_length_c       15.32024770674187
_cell_angle_alpha    106.29247055744415
_cell_angle_beta     106.29213568221411
_cell_angle_gamma    88.79016858474003

_space_group_name_H-M_alt    "P 1"
_space_group_IT_number       1

loop_
  _space_group_symop_operation_xyz
  'x, y, z'

loop_
  _atom_site_type_symbol
  _atom_site_label
  _atom_site_symmetry_multiplicity
  _atom_site_fract_x
  _atom_site_fract_y
  _atom_site_fract_z
  _atom_site_occupancy
  Cd  Cd1       1.0  0.0001299054117467119  0.9998715926203521  4.166313873031907e-07  1.0000
  H   H1        1.0  0.15379247801573834  0.4090819379965537  0.1430139397162833  1.0000
  H   H2        1.0  0.9894869668259647  0.7340484247554427  0.14305016622639502  1.0000
  H   H3        1.0  0.2659471428292832  0.010519191274205798  0.8569537745697885  1.0000
  H   H4        1.0  0.590915825552443  0.8462076198331302  0.856986511466836  1.0000
  H   H5        1.0  0.7478509953670598  0.12446516658020813  0.1414207674410051  1.0000
  H   H6        1.0  0.39382397007094744  0.0173922746756929  0.1417606333959327  1.0000
  H   H7        1.0  0.9826042778239241  0.6061761665376152  0.8582411507667089  1.0000
  H   H8        1.0  0.875535487819903  0.2521496904927075  0.8585763269425967  1.0000
  H   H9        1.0  0.023526645574207798  0.5849614862048255  0.2882866879075578  1.0000
  H   H10       1.0  0.26465193992633124  0.7040623195262156  0.28872654329366293  1.0000
  H   H11       1.0  0.2959346724057212  0.7353488566020943  0.711274679850149  1.0000
  H   H12       1.0  0.41504074329828466  0.9764756769205434  0.7117169550795523  1.0000
  H   H13       1.0  0.9616987419354858  0.5276055986646497  0.41506841520668997  1.0000
  H   H14       1.0  0.4536251139178659  0.8878142650738282  0.41557690449778306  1.0000
  H   H15       1.0  0.11217723515155603  0.5463764098209296  0.5844235907893207  1.0000
  H   H16       1.0  0.4723886129645649  0.0382989121970567  0.5849273730963346  1.0000
  H   H17       1.0  0.7906749076308158  0.6075528920353576  0.5267174210582368  1.0000
  H   H18       1.0  0.7364729411886161  0.9187953430530627  0.5269950111543338  1.0000
  H   H19       1.0  0.08119381428254258  0.2635280962951469  0.4730029176509304  1.0000
  H   H20       1.0  0.39244442677535574  0.20932970855669447  0.47328268627153847  1.0000
  H   H21       1.0  0.35586757470127844  0.36838037956464115  0.3017524252729089  1.0000
  H   H22       1.0  0.945784142113766  0.9332336515847574  0.3018248841261341  1.0000
  H   H23       1.0  0.06676406062095451  0.05420525596255741  0.698168521477811  1.0000
  H   H24       1.0  0.6316197759932791  0.6441356076946149  0.698252602945267  1.0000
  H   H25       1.0  0.5244672618418278  0.2963884321659549  0.187515260517273  1.0000
  H   H26       1.0  0.6628506786397493  0.8915930027095412  0.18784669653874175  1.0000
  H   H27       1.0  0.10841241100170151  0.33714177502280757  0.8121543895027159  1.0000
  H   H28       1.0  0.7036053525940461  0.47552798052134193  0.8124841585905357  1.0000
  H   H29       1.0  0.2128674097387773  0.5773976637214703  0.9982339569549197  1.0000
  H   H30       1.0  0.7857492520293051  0.42075103231410077  0.9984554225354784  1.0000
  H   H31       1.0  0.5792546578629967  0.21425142818087287  0.0015478411895912898  1.0000
  H   H32       1.0  0.42260449483438833  0.7871375663672281  0.0017653700256801328  1.0000
  C   C1        1.0  0.05084316009546091  0.37603414040431454  0.1651327931612201  1.0000
  C   C2        1.0  0.11450555387702369  0.789336842214709  0.1653024205500557  1.0000
  C   C3        1.0  0.21066092406260134  0.8854898387474676  0.8346995710313861  1.0000
  C   C4        1.0  0.6239680929921152  0.9491548801703401  0.8348700323622111  1.0000
  C   C5        1.0  0.8397778332280623  0.22583790989011018  0.16047626496578712  1.0000
  C   C6        1.0  0.32093061779600873  0.9350705514265487  0.16080658849872262  1.0000
  C   C7        1.0  0.0649262236830666  0.6790705230249259  0.8391960831624274  1.0000
  C   C8        1.0  0.7741610347011942  0.16022006029006516  0.8395208045558604  1.0000
  C   C9        1.0  0.9882831129131305  0.4648854502981123  0.2365025526613493  1.0000
  C   C10       1.0  0.2482578753605083  0.7721558036376592  0.23685651524312587  1.0000
  C   C11       1.0  0.22783720459030124  0.7517433908628703  0.7631488027950581  1.0000
  C   C12       1.0  0.5351162617676053  0.011716220982620497  0.7634965259814235  1.0000
  C   C13       1.0  0.7535399686780978  0.4078563854698344  0.29536346683234876  1.0000
  C   C14       1.0  0.5418357243397268  0.8880645386612611  0.2957927830438151  1.0000
  C   C15       1.0  0.1119319348004666  0.458161983593861  0.7042071731672478  1.0000
  C   C16       1.0  0.5921436783774466  0.24645551065601268  0.704632290229874  1.0000
  C   C17       1.0  0.8289301490121018  0.49437737524368686  0.39050541732864724  1.0000
  C   C18       1.0  0.5617650953571385  0.8964428100298676  0.39092775337145  1.0000
  C   C19       1.0  0.10354731596923729  0.4382344391703936  0.6090715075332795  1.0000
  C   C20       1.0  0.5056216303285624  0.1710643697451104  0.6094913462481557  1.0000
  C   C21       1.0  0.7332946123377512  0.5377161124473134  0.4530465010213618  1.0000
  C   C22       1.0  0.7200160788617681  0.9152428785820488  0.45334786272865557  1.0000
  C   C23       1.0  0.0847490030571052  0.27998104915686634  0.5466505478150196  1.0000
  C   C24       1.0  0.46228667779133303  0.26670800969602476  0.5469528205211063  1.0000
  C   C25       1.0  0.5635385651245456  0.492542612347485  0.41995671557977227  1.0000
  C   C26       1.0  0.856588666077613  0.9272066271903868  0.4201341654523035  1.0000
  C   C27       1.0  0.07278662763675921  0.14340419263481857  0.5798650222032506  1.0000
  C   C28       1.0  0.5074634193262639  0.43645960514322  0.5800425101672885  1.0000
  C   C29       1.0  0.48852045874737376  0.4022948479969273  0.3257161073232239  1.0000
  C   C30       1.0  0.837182640784711  0.9234852505242159  0.3259131822133696  1.0000
  C   C31       1.0  0.0765126716565163  0.16281341366826038  0.674085253437795  1.0000
  C   C32       1.0  0.5977059902583692  0.5114827717322398  0.6742843928890281  1.0000
  C   C33       1.0  0.5837249574482823  0.36074326316695954  0.2622662575395437  1.0000
  C   C34       1.0  0.6784729378542876  0.9019766344579522  0.26259979299533137  1.0000
  C   C35       1.0  0.09802299102669561  0.3215176116126272  0.737397509183971  1.0000
  C   C36       1.0  0.6392540791866211  0.4162684397757773  0.7377314672235471  1.0000
  C   C37       1.0  0.25815404712323436  0.2580178984758916  0.9998149086585855  1.0000
  C   C38       1.0  0.7419831687089272  0.7418480203420472  0.00018485776292475988  1.0000
  C   C39       1.0  0.3832507458980317  0.3830197352756315  0.9998531795701666  1.0000
  C   C40       1.0  0.6169825238569544  0.616753492431357  0.0001477506469810158  1.0000
  C   C41       1.0  0.3389780489978307  0.5441780027286072  0.9989830756966781  1.0000
  C   C42       1.0  0.6603367776706291  0.45465189094118585  0.9991405012410366  1.0000
  C   C43       1.0  0.5453535339719977  0.3396654851998164  0.0008617699787194954  1.0000
  C   C44       1.0  0.4558261707499939  0.6610272505062723  0.0010177994159192975  1.0000
  S   S1        1.0  0.4423826673598583  0.5576287297573117  0.5000014180855032  1.0000
  S   S2        1.0  0.05791282214084959  0.9420834303002863  0.4999954718482584  1.0000
  N   N1        1.0  0.9580488262065289  0.22740841708983336  0.11913617251085637  1.0000
  N   N2        1.0  0.16143217919798764  0.8918888146554663  0.11929920655996538  1.0000
  N   N3        1.0  0.10810467319604557  0.8385706619510244  0.8807046117065055  1.0000
  N   N4        1.0  0.77258974692473  0.0419492747091255  0.8808633382751551  1.0000
  N   N5        1.0  0.8534051780668152  0.3684705426335597  0.23278734175038093  1.0000
  N   N6        1.0  0.37942155361583474  0.8649935163179947  0.2332395819424704  1.0000
  N   N7        1.0  0.1350007864878364  0.6205786443432473  0.7667618269113987  1.0000
  N   N8        1.0  0.6315290870427006  0.14658966177361785  0.7672094590610852  1.0000
  O   O1        1.0  0.4910356251168793  0.7299513441177368  0.5535696799995264  1.0000
  O   O2        1.0  0.06304903935884447  0.8235330280501997  0.5537406016499986  1.0000
  O   O3        1.0  0.17645331911752038  0.9369252583247415  0.4462643415949827  1.0000
  O   O4        1.0  0.2700536768790016  0.5089702009101272  0.446433386045463  1.0000
  O   O5        1.0  0.30754141138340435  0.16005172082670782  0.05046834391471582  1.0000
  O   O6        1.0  0.7431233353250803  0.8904211540028866  0.05081939225512848  1.0000
  O   O7        1.0  0.10958498702284912  0.2568784797088099  0.9491786003463858  1.0000
  O   O8        1.0  0.8399487699785624  0.6924605753919124  0.949532523841121  1.0000
