data_image0
_chemical_formula_structural       K4Cu4H24C40N24
_chemical_formula_sum              "K4 Cu4 H24 C40 N24"
_cell_length_a       8.053937253693917
_cell_length_b       8.661729754760163
_cell_length_c       17.20010017518598
_cell_angle_alpha    90.00039341384175
_cell_angle_beta     90.00022583924424
_cell_angle_gamma    107.91250624408043

_space_group_name_H-M_alt    "P 1"
_space_group_IT_number       1

loop_
  _space_group_symop_operation_xyz
  'x, y, z'

loop_
  _atom_site_type_symbol
  _atom_site_label
  _atom_site_symmetry_multiplicity
  _atom_site_fract_x
  _atom_site_fract_y
  _atom_site_fract_z
  _atom_site_occupancy
  K   K1        1.0  0.8340560450214554  0.7175953731198135  0.19418345125640715  1.0000
  K   K2        1.0  0.33405171891925517  0.7176075122555828  0.30581721880761153  1.0000
  K   K3        1.0  0.16595806534105145  0.28239301787520077  0.8058203706910592  1.0000
  K   K4        1.0  0.665958562033005  0.2823881397901928  0.6941813706212372  1.0000
  Cu  Cu1       1.0  0.864135891166491  0.22551100029755133  0.1652420952648441  1.0000
  Cu  Cu2       1.0  0.3641456968518356  0.2255200544864523  0.3347627349856382  1.0000
  Cu  Cu3       1.0  0.13586186039078288  0.7744918866063059  0.8347605639086383  1.0000
  Cu  Cu4       1.0  0.6358697011238378  0.774495006808401  0.6652393428334805  1.0000
  H   H1        1.0  0.7792036906226941  0.4267980416728818  0.843720972397968  1.0000
  H   H2        1.0  0.2792010762071868  0.4268002850994677  0.6562832259503752  1.0000
  H   H3        1.0  0.22079783990126606  0.5732012202923402  0.15627936120488786  1.0000
  H   H4        1.0  0.7208040821298031  0.5732062604837153  0.3437171076685176  1.0000
  H   H5        1.0  0.5650984166231936  0.4609665184960364  0.9409580565826093  1.0000
  H   H6        1.0  0.06509780663052564  0.460962210483295  0.5590429544144018  1.0000
  H   H7        1.0  0.43489853991413696  0.5390339417402429  0.05903937005824392  1.0000
  H   H8        1.0  0.9348980582331451  0.5390273374889533  0.4409573791662923  1.0000
  H   H9        1.0  0.608027756453062  0.3874056592538865  0.08348156749899972  1.0000
  H   H10       1.0  0.10803718040991582  0.38740766449806335  0.41651985951063614  1.0000
  H   H11       1.0  0.39196383114357053  0.6125935726678194  0.9165170219186439  1.0000
  H   H12       1.0  0.8919640030085249  0.6125867479725855  0.5834798926915072  1.0000
  H   H13       1.0  0.37771054931774023  0.10295904081940682  0.949282211474092  1.0000
  H   H14       1.0  0.8777245221298459  0.1029686515074388  0.5507187197362386  1.0000
  H   H15       1.0  0.622274577664534  0.8970280505237015  0.05072044766018281  1.0000
  H   H16       1.0  0.12228655378471129  0.8970294271342142  0.4492769627377557  1.0000
  H   H17       1.0  0.41127451454373454  0.0465600676678761  0.09428886855013023  1.0000
  H   H18       1.0  0.9112856600007152  0.0465746970125593  0.4057119394402308  1.0000
  H   H19       1.0  0.5887081267180251  0.953427016178438  0.9057149533657313  1.0000
  H   H20       1.0  0.08871507549918789  0.9534221382799616  0.594282580238037  1.0000
  H   H21       1.0  0.19715871335030502  0.1072264099109219  0.18629637805530316  1.0000
  H   H22       1.0  0.6971677104548277  0.10724062777689625  0.3137054043849474  1.0000
  H   H23       1.0  0.8028259153604367  0.8927667404788623  0.8137062810890259  1.0000
  H   H24       1.0  0.30283575711160177  0.8927683368900006  0.6862914408847871  1.0000
  C   C1        1.0  0.6830349813079412  0.029618124980530104  0.18558158396206187  1.0000
  C   C2        1.0  0.1830470350582019  0.0296231921301313  0.3144216466534148  1.0000
  C   C3        1.0  0.3169581962709315  0.9703859602046307  0.8144193310333494  1.0000
  C   C4        1.0  0.8169742301214669  0.9703870384223806  0.685578105594921  1.0000
  C   C5        1.0  0.9502208339670662  0.38067574395587667  0.24523907218132024  1.0000
  C   C6        1.0  0.4502229453212579  0.38067852043780454  0.25476413209085547  1.0000
  C   C7        1.0  0.04978223614497074  0.6193320074463815  0.7547630056136045  1.0000
  C   C8        1.0  0.5497858408369964  0.619335308773593  0.7452373643279986  1.0000
  C   C9        1.0  0.922943936847588  0.2867026401192732  0.9974112469355138  1.0000
  C   C10       1.0  0.42295430659437033  0.2867143426136138  0.5025915698179021  1.0000
  C   C11       1.0  0.07704362545692321  0.7132880948890943  0.002589086639503101  1.0000
  C   C12       1.0  0.5770570660644835  0.7132922217371629  0.4974087638068101  1.0000
  C   C13       1.0  0.78545647851697  0.38903355148320884  0.9038240509406423  1.0000
  C   C14       1.0  0.2854587793768247  0.3890371776115416  0.5961800278525757  1.0000
  C   C15       1.0  0.2145380426981234  0.6109632650878113  0.09617570125946173  1.0000
  C   C16       1.0  0.7145451360999148  0.6109693642232443  0.40382088715711023  1.0000
  C   C17       1.0  0.6681495122589071  0.41197046261284953  0.959039938940713  1.0000
  C   C18       1.0  0.16814899330100266  0.4119706855172183  0.5409616753063207  1.0000
  C   C19       1.0  0.3318474442866517  0.5880299976336758  0.04095865048406471  1.0000
  C   C20       1.0  0.8318496540068879  0.5880273556353474  0.45903923968368343  1.0000
  C   C21       1.0  0.6902714981415983  0.37070104400828546  0.03554817337167291  1.0000
  C   C22       1.0  0.1902778723303982  0.37070388251768793  0.46445393029334536  1.0000
  C   C23       1.0  0.30972093482796476  0.6292969783562015  0.9644504160446632  1.0000
  C   C24       1.0  0.8097278346805158  0.6292929678554842  0.5355481474851019  1.0000
  C   C25       1.0  0.060755296991551695  0.2166799089783922  0.021925886765785704  1.0000
  C   C26       1.0  0.5607700033773072  0.21669218461681083  0.4780783472907758  1.0000
  C   C27       1.0  0.9392302274656998  0.7833083956549771  0.9780744468031132  1.0000
  C   C28       1.0  0.43924385501440366  0.7833143872461222  0.5219225677282326  1.0000
  C   C29       1.0  0.29240625780075663  0.1266034129034637  0.9939772615730081  1.0000
  C   C30       1.0  0.7924179069232483  0.1266146552610508  0.5060259183490815  1.0000
  C   C31       1.0  0.7075797145585696  0.8733824688875487  0.006025978951910802  1.0000
  C   C32       1.0  0.20759272111394006  0.8733858462536901  0.4939703455206655  1.0000
  C   C33       1.0  0.3096419840546006  0.09429978092229162  0.0725581693733801  1.0000
  C   C34       1.0  0.8096576137305221  0.09431238152409802  0.42744261504650194  1.0000
  C   C35       1.0  0.6903398118218861  0.9056885124658792  0.9274439083679131  1.0000
  C   C36       1.0  0.19035052857792314  0.9056881124836025  0.5725536488209145  1.0000
  C   C37       1.0  0.191804781430001  0.12742405644400628  0.12397235253358474  1.0000
  C   C38       1.0  0.6918159040200892  0.12743937613191036  0.37603007150184453  1.0000
  C   C39       1.0  0.808179897662555  0.8725654577568278  0.876029143820553  1.0000
  C   C40       1.0  0.3081946232493706  0.8725683977556004  0.6239679365563264  1.0000
  N   N1        1.0  0.00732379325641827  0.47382651247138347  0.2959531761152406  1.0000
  N   N2        1.0  0.5073269154082071  0.47382181573277643  0.20404778204736834  1.0000
  N   N3        1.0  0.9926751003769071  0.5261836505331631  0.704048320288017  1.0000
  N   N4        1.0  0.49268271611886416  0.526190803916272  0.7959531329782056  1.0000
  N   N5        1.0  0.8183757308786995  0.30833593777197177  0.055360278334880816  1.0000
  N   N6        1.0  0.3183854523150345  0.308345710848009  0.4446430102273383  1.0000
  N   N7        1.0  0.18161511213332907  0.6916572313597911  0.9446394738554607  1.0000
  N   N8        1.0  0.6816222421448618  0.6916572060686266  0.5553579047795765  1.0000
  N   N9        1.0  0.9121993586029975  0.32537827398661534  0.9223983689049364  1.0000
  N   N10       1.0  0.41220338388374245  0.325387639425351  0.577606887761391  1.0000
  N   N11       1.0  0.0877944180192499  0.6746124797842157  0.07760138328394822  1.0000
  N   N12       1.0  0.5878046072957447  0.6746237631696843  0.4223951900444619  1.0000
  N   N13       1.0  0.0646734765707038  0.18603936140009136  0.09891434228281783  1.0000
  N   N14       1.0  0.5646882851395959  0.18605392054021763  0.4010897926169293  1.0000
  N   N15       1.0  0.935309511775998  0.8139525719151806  0.9010871540739489  1.0000
  N   N16       1.0  0.4353217438748018  0.813959912414454  0.5989105410191586  1.0000
  N   N17       1.0  0.1695622223971966  0.18958071288604117  0.9684070565770926  1.0000
  N   N18       1.0  0.6695771672443271  0.18958999038898133  0.5315955317870478  1.0000
  N   N19       1.0  0.8304225070854017  0.8104051651360821  0.0315944397707781  1.0000
  N   N20       1.0  0.3304367415250766  0.8104129452798856  0.46840363904979665  1.0000
  N   N21       1.0  0.5708247626627312  0.9081756922150318  0.19939513456920116  1.0000
  N   N22       1.0  0.07083030564963615  0.9081877695322262  0.3006028000617462  1.0000
  N   N23       1.0  0.42916846527325003  0.0918247567504551  0.8006011292842389  1.0000
  N   N24       1.0  0.9291813133058328  0.09183091663468451  0.6993940452324737  1.0000
