data_image0
_chemical_formula_structural       Na4H30C16N2O18
_chemical_formula_sum              "Na4 H30 C16 N2 O18"
_cell_length_a       7.953075956919796
_cell_length_b       7.8852652648498776
_cell_length_c       11.345320850396932
_cell_angle_alpha    73.05945152764404
_cell_angle_beta     76.14385188820835
_cell_angle_gamma    85.10377567467637

_space_group_name_H-M_alt    "P 1"
_space_group_IT_number       1

loop_
  _space_group_symop_operation_xyz
  'x, y, z'

loop_
  _atom_site_type_symbol
  _atom_site_label
  _atom_site_symmetry_multiplicity
  _atom_site_fract_x
  _atom_site_fract_y
  _atom_site_fract_z
  _atom_site_occupancy
  Na  Na1       1.0  0.3751199300928718  0.9724188979555279  0.6481209634342946  1.0000
  Na  Na2       1.0  0.6248865395513192  0.027581516474256808  0.35188082954188377  1.0000
  Na  Na3       1.0  0.0689959288336013  0.2693100387696035  0.5685175727367168  1.0000
  Na  Na4       1.0  0.9310081344828374  0.730684909333867  0.43148319356271275  1.0000
  H   H1        1.0  0.41195812273141996  0.3423668857677242  0.602635313348671  1.0000
  H   H2        1.0  0.5880484734792546  0.657629553390869  0.39736734583687655  1.0000
  H   H3        1.0  0.44474014056216765  0.31380073649320656  0.4648255025501413  1.0000
  H   H4        1.0  0.5552701845485116  0.6862009425281103  0.5351727234881807  1.0000
  H   H5        1.0  0.9720586546141731  0.014267953987726407  0.7937175584667104  1.0000
  H   H6        1.0  0.027950591563730098  0.9857270372289689  0.20628145715163274  1.0000
  H   H7        1.0  0.9911443137293076  0.9037228574682103  0.6942467593168474  1.0000
  H   H8        1.0  0.0088672730817478  0.0962800852177637  0.30574921183318793  1.0000
  H   H9        1.0  0.7197993263292233  0.1220195532288102  0.5580782761524432  1.0000
  H   H10       1.0  0.28020707762036057  0.8779833463439318  0.44191944567867847  1.0000
  H   H11       1.0  0.7513823327813114  0.9135607191951964  0.5971415406203918  1.0000
  H   H12       1.0  0.24862149608521375  0.08644201441281749  0.4028539995881531  1.0000
  H   H13       1.0  0.3388166174966116  0.005227040072249198  0.9216219446053131  1.0000
  H   H14       1.0  0.6611860388699213  0.9947707846755945  0.07838370404516577  1.0000
  H   H15       1.0  0.43391783852614907  0.16245707012672028  0.8102876994759853  1.0000
  H   H16       1.0  0.5660809482096382  0.8375405675632237  0.18971598686768232  1.0000
  H   H17       1.0  0.6786444077435122  0.366807058063543  0.6147992315823388  1.0000
  H   H18       1.0  0.3213621369368127  0.6331907887043612  0.3852048857028196  1.0000
  H   H19       1.0  0.8035230498375654  0.3999683138818427  0.4750281571765029  1.0000
  H   H20       1.0  0.1964795361635936  0.60003203726842  0.5249742937469648  1.0000
  H   H21       1.0  0.3166557824249309  0.2032129121759922  0.18735683295702193  1.0000
  H   H22       1.0  0.6833452605663554  0.7967953271640198  0.8126432314454207  1.0000
  H   H23       1.0  0.4739939390065898  0.24593865398126985  0.9657897198217216  1.0000
  H   H24       1.0  0.525997188174607  0.7540560006715465  0.034211492799265386  1.0000
  H   H25       1.0  0.19417972258749217  0.7369143211708503  0.8577776247302895  1.0000
  H   H26       1.0  0.8058139374879473  0.2630818245370889  0.1422254807768155  1.0000
  H   H27       1.0  0.9609536593646056  0.8002924339784983  0.015943475557790493  1.0000
  H   H28       1.0  0.039043621727401494  0.19971276182553044  0.9840508369205879  1.0000
  H   H29       1.0  0.9417188906614412  0.694303444651446  0.1734205674501511  1.0000
  H   H30       1.0  0.05827173959534799  0.30570702856721976  0.8265754334972755  1.0000
  C   C1        1.0  0.06278393292259918  0.402455386947473  0.2847222759573569  1.0000
  C   C2        1.0  0.9372033574751553  0.5975378380759649  0.7152790099293399  1.0000
  C   C3        1.0  0.426428506685994  0.5163983549666255  0.7597135430256259  1.0000
  C   C4        1.0  0.5735717948831364  0.48359259584558595  0.24028962084850047  1.0000
  C   C5        1.0  0.16386890051109046  0.4445339743700245  0.15105023799902287  1.0000
  C   C6        1.0  0.836122067256319  0.555465898125469  0.8489480728400667  1.0000
  C   C7        1.0  0.2873778129493161  0.31932082580326676  0.1147650299037295  1.0000
  C   C8        1.0  0.7126104017901652  0.6806833098527463  0.8852398407017859  1.0000
  C   C9        1.0  0.3746119198673626  0.34141964009982934  0.9901522652077975  1.0000
  C   C10       1.0  0.6253801268328231  0.6585869202002784  0.009845256051278308  1.0000
  C   C11       1.0  0.33890431254688747  0.4923059450164543  0.8963113991709903  1.0000
  C   C12       1.0  0.6610902248587108  0.5077034314291778  0.10368772623774453  1.0000
  C   C13       1.0  0.22167988223966256  0.6201642907251921  0.9305958121381509  1.0000
  C   C14       1.0  0.7783147957447055  0.3798409866708639  0.06940155922585234  1.0000
  C   C15       1.0  0.1342069980944842  0.6014750630778352  0.05705252490129452  1.0000
  C   C16       1.0  0.8657917041116789  0.3985261785481739  0.9429424344706946  1.0000
  N   N1        1.0  0.022629823827649897  0.736565435176203  0.08577519356632736  1.0000
  N   N2        1.0  0.977364816638655  0.2634411260507932  0.9142210156431861  1.0000
  O   O1        1.0  0.36104807720780496  0.2928397461231  0.5488342143685473  1.0000
  O   O2        1.0  0.6389625385539048  0.7071526985248936  0.4511669062430174  1.0000
  O   O3        1.0  0.049896666537449605  0.9908401588507586  0.7194684350369016  1.0000
  O   O4        1.0  0.9501124155559069  0.009160091468075409  0.2805285522175752  1.0000
  O   O5        1.0  0.6777090395746298  0.007613829994269807  0.5555166024803315  1.0000
  O   O6        1.0  0.3222934713904024  0.992389088817866  0.4444835241341496  1.0000
  O   O7        1.0  0.40410888344047885  0.0344660135821826  0.8345452555777017  1.0000
  O   O8        1.0  0.5958990261528854  0.9655293278764815  0.1654618401187166  1.0000
  O   O9        1.0  0.7797520575219321  0.31979110072919076  0.5621011561083833  1.0000
  O   O10       1.0  0.22025312691611273  0.6802092100884991  0.43789910934748383  1.0000
  O   O11       1.0  0.08399839460904698  0.24784801032400594  0.3594069163545442  1.0000
  O   O12       1.0  0.9159937646453358  0.752154698483288  0.6405940913680013  1.0000
  O   O13       1.0  0.9551998697092116  0.516303359070271  0.3215714060870882  1.0000
  O   O14       1.0  0.04477458761400749  0.4836867572838912  0.6784274099219516  1.0000
  O   O15       1.0  0.49389527451261017  0.3767140921812527  0.7285260011844699  1.0000
  O   O16       1.0  0.5061086810723621  0.6232837124003083  0.2714785547322123  1.0000
  O   O17       1.0  0.42904307014706683  0.6685599710026225  0.6821155917644719  1.0000
  O   O18       1.0  0.5709596469393716  0.3314373173722486  0.31787870245155864  1.0000
