data_image0
_chemical_formula_structural       Sm2CuH26C22N2O22
_chemical_formula_sum              "Sm2 Cu1 H26 C22 N2 O22"
_cell_length_a       6.096641742058584
_cell_length_b       8.989193364807095
_cell_length_c       13.55307016848531
_cell_angle_alpha    85.05046125346936
_cell_angle_beta     86.00178604171882
_cell_angle_gamma    87.49647127226274

_space_group_name_H-M_alt    "P 1"
_space_group_IT_number       1

loop_
  _space_group_symop_operation_xyz
  'x, y, z'

loop_
  _atom_site_type_symbol
  _atom_site_label
  _atom_site_symmetry_multiplicity
  _atom_site_fract_x
  _atom_site_fract_y
  _atom_site_fract_z
  _atom_site_occupancy
  Sm  Sm1       1.0  0.3905693036951945  0.6536928986346596  0.10774321378900707  1.0000
  Sm  Sm2       1.0  0.6094236957866244  0.3463145103516183  0.8922551304193433  1.0000
  Cu  Cu1       1.0  1.3925998274503832e-05  0.9999867112061054  0.49999956211880897  1.0000
  H   H1        1.0  0.051074439197535085  0.7716362540823598  0.2541157797532562  1.0000
  H   H2        1.0  0.9489268213681612  0.22837084552337222  0.7458859964187141  1.0000
  H   H3        1.0  0.9047601954420371  0.7973227606252068  0.15583344105092317  1.0000
  H   H4        1.0  0.09523745288032609  0.20269428169504528  0.8441703672470167  1.0000
  H   H5        1.0  0.8466894319018222  0.577399289101642  0.18267778453369488  1.0000
  H   H6        1.0  0.1532968202983795  0.4226127415189255  0.8173191630407002  1.0000
  H   H7        1.0  0.8079228849776497  0.4638232365122832  0.10389287934118129  1.0000
  H   H8        1.0  0.1920746164320306  0.5361956070666238  0.8960998022894272  1.0000
  H   H9        1.0  0.6006842782412392  0.9100788435360416  0.189205295696901  1.0000
  H   H10       1.0  0.39930054710564616  0.08992832691372143  0.8107984918264535  1.0000
  H   H11       1.0  0.6642006575451375  0.9601559749139811  0.07625391183649549  1.0000
  H   H12       1.0  0.3357789962839064  0.039857988018646005  0.9237491003075604  1.0000
  H   H13       1.0  0.2871030174547969  0.5894837227613295  0.5296167247989416  1.0000
  H   H14       1.0  0.7129105316816577  0.41050000235978246  0.4703824043998424  1.0000
  H   H15       1.0  0.5323965448354144  0.5810824810022697  0.6711676596587068  1.0000
  H   H16       1.0  0.46760359143878116  0.4189090970665533  0.32883314648053386  1.0000
  H   H17       1.0  0.8518814352766031  0.7506538757048846  0.6568321713206655  1.0000
  H   H18       1.0  0.14813059805981516  0.2493264252260517  0.3431685880121691  1.0000
  H   H19       1.0  0.10721900762074911  0.7863267691760999  0.79197323683168  1.0000
  H   H20       1.0  0.8927751616248187  0.21369499932499292  0.2080268495849964  1.0000
  H   H21       1.0  0.05770710588881658  0.9652413865415004  0.8337883525193062  1.0000
  H   H22       1.0  0.9422723475641989  0.03477909192615411  0.16621742263672695  1.0000
  H   H23       1.0  0.7012101898227672  0.8832168176233282  0.923026677148975  1.0000
  H   H24       1.0  0.29876960441855976  0.11679188311587305  0.07697132059440287  1.0000
  H   H25       1.0  0.7104708667456803  0.8723752337565148  0.7935113617748186  1.0000
  H   H26       1.0  0.2895205042543765  0.12763121206303651  0.20648484939673745  1.0000
  C   C1        1.0  0.6413068944348979  0.8574210601092034  0.4429018161810134  1.0000
  C   C2        1.0  0.3587116423326434  0.1425614086810043  0.5570986651584278  1.0000
  C   C3        1.0  0.4713335061754691  0.75878209110509  0.44118558518098167  1.0000
  C   C4        1.0  0.5286818098572611  0.2411982230528907  0.5588143281176414  1.0000
  C   C5        1.0  0.42680615589330273  0.6617745931397537  0.5261615913490161  1.0000
  C   C6        1.0  0.5732074624504122  0.3382069449164292  0.4738368633812939  1.0000
  C   C7        1.0  0.5613019785396176  0.6573696956309831  0.6051860416899189  1.0000
  C   C8        1.0  0.4386983488670851  0.3426163006261335  0.39481492729451867  1.0000
  C   C9        1.0  0.7373392008536686  0.752512207608092  0.598630294635086  1.0000
  C   C10       1.0  0.2626729089357482  0.24746586059816175  0.4013705298358231  1.0000
  C   C11       1.0  0.6879065776332284  0.9834668814602526  0.36464964032350616  1.0000
  C   C12       1.0  0.31210690754394227  0.016519873129610105  0.6353545684140298  1.0000
  C   C13       1.0  0.3380678803162027  0.7524484721764608  0.3520805017921589  1.0000
  C   C14       1.0  0.6619409230418968  0.24753060784558303  0.6479226153570251  1.0000
  C   C15       1.0  0.14180558156225231  0.7929219524601197  0.9455975435718214  1.0000
  C   C16       1.0  0.8581823425941836  0.2070907673686406  0.05440597467868708  1.0000
  C   C17       1.0  0.028984604808151515  0.847043402773828  0.8530624683663317  1.0000
  C   C18       1.0  0.9710048041675704  0.15297381194769602  0.1469401267876407  1.0000
  C   C19       1.0  0.7808046530446332  0.823786787863476  0.8622535751293511  1.0000
  C   C20       1.0  0.21918181202531167  0.17621952396611823  0.1377457541099005  1.0000
  C   C21       1.0  0.7217746067343499  0.662052896972064  0.8758982640916811  1.0000
  C   C22       1.0  0.2782217953712589  0.3379520185580489  0.1241037368598583  1.0000
  N   N1        1.0  0.7702144356120827  0.8522473141897892  0.5203478836725424  1.0000
  N   N2        1.0  0.22980276924217688  0.14772619425828282  0.47965365103959096  1.0000
  O   O1        1.0  0.0335911658062358  0.7424331770992725  0.18419165772108667  1.0000
  O   O2        1.0  0.9664065991934052  0.25757962807038126  0.8158085828202458  1.0000
  O   O3        1.0  0.8394194179768845  0.0709111968712861  0.38252790267308967  1.0000
  O   O4        1.0  0.16060748930606653  0.9290667710475379  0.6174717032668153  1.0000
  O   O5        1.0  0.7305910708367663  0.5233848494866962  0.1553344824034255  1.0000
  O   O6        1.0  0.26940163407433465  0.4766296686114159  0.8446570099317154  1.0000
  O   O7        1.0  0.5760799516641484  0.001444717611583707  0.2899723261842907  1.0000
  O   O8        1.0  0.42392344157357803  0.9985487867906858  0.7100327460285312  1.0000
  O   O9        1.0  0.636352872201357  0.8687723486339253  0.12317255957383814  1.0000
  O   O10       1.0  0.3636284503337279  0.13124057303951284  0.876828952712323  1.0000
  O   O11       1.0  0.14005316858110461  0.8000737618376734  0.358867536294845  1.0000
  O   O12       1.0  0.8599633936683873  0.1999186791104464  0.6411341843501857  1.0000
  O   O13       1.0  0.43508787287818507  0.6905154711549245  0.27899008994636176  1.0000
  O   O14       1.0  0.564918685126159  0.309479665094031  0.7210059679911324  1.0000
  O   O15       1.0  0.2681445567313219  0.8762167556937898  0.9865123738607122  1.0000
  O   O16       1.0  0.7318416552446011  0.12379727935268647  0.013488206608378997  1.0000
  O   O17       1.0  0.1134875388718726  0.6583849174554502  0.9826053022846322  1.0000
  O   O18       1.0  0.8865054006462075  0.341623744872429  0.01739079053501769  1.0000
  O   O19       1.0  0.5954940435310546  0.6150118761898612  0.9510887342751814  1.0000
  O   O20       1.0  0.40448734296330713  0.3849980160148405  0.04890769847222739  1.0000
  O   O21       1.0  0.7901032422096037  0.5719291791301656  0.8123405413315224  1.0000
  O   O22       1.0  0.20990121735366069  0.42808021208705344  0.18765958406161326  1.0000
