data_image0
_chemical_formula_structural       Cu4H28C52N4O16
_chemical_formula_sum              "Cu4 H28 C52 N4 O16"
_cell_length_a       11.973017424531859
_cell_length_b       13.712208519826902
_cell_length_c       13.784615275803164
_cell_angle_alpha    90.00060375155695
_cell_angle_beta     114.43810998383806
_cell_angle_gamma    89.99874497884386

_space_group_name_H-M_alt    "P 1"
_space_group_IT_number       1

loop_
  _space_group_symop_operation_xyz
  'x, y, z'

loop_
  _atom_site_type_symbol
  _atom_site_label
  _atom_site_symmetry_multiplicity
  _atom_site_fract_x
  _atom_site_fract_y
  _atom_site_fract_z
  _atom_site_occupancy
  Cu  Cu1       1.0  0.09797007184950249  0.554224095400663  0.5398992829864042  1.0000
  Cu  Cu2       1.0  0.902056338949876  0.05420289806998109  0.9601147756855822  1.0000
  Cu  Cu3       1.0  0.9020220414761226  0.44578122655931196  0.46009783627410883  1.0000
  Cu  Cu4       1.0  0.09797432424799267  0.9457790867492263  0.03990044395496988  1.0000
  H   H1        1.0  0.3435021152547789  0.47607426120792695  0.6139005667369303  1.0000
  H   H2        1.0  0.6564938480658709  0.9760723990735227  0.8860983227028497  1.0000
  H   H3        1.0  0.65649091544158  0.5239332485763838  0.38609687969110235  1.0000
  H   H4        1.0  0.34350652500349094  0.023931464272664  0.11390246762098852  1.0000
  H   H5        1.0  0.5612089849735895  0.5190013036594789  0.6566540161030615  1.0000
  H   H6        1.0  0.438784310566163  0.019000127391713292  0.8433420624697303  1.0000
  H   H7        1.0  0.4387840425896029  0.48100474756676437  0.34334270374930737  1.0000
  H   H8        1.0  0.5612151293517442  0.981003735942423  0.15665476781663304  1.0000
  H   H9        1.0  0.4561196564656313  0.8222721113467415  0.6397513093428485  1.0000
  H   H10       1.0  0.5438754484019268  0.3222712920135819  0.8602456718173029  1.0000
  H   H11       1.0  0.5438715489064379  0.1777339399088547  0.36024766247586376  1.0000
  H   H12       1.0  0.4561249026027029  0.6777333005830072  0.13975003248653914  1.0000
  H   H13       1.0  0.2425820172091449  0.7657527636430715  0.5973123071414932  1.0000
  H   H14       1.0  0.757411708795459  0.265751226868673  0.9026843189745151  1.0000
  H   H15       1.0  0.7574082518606318  0.2342532875966583  0.40268197806536676  1.0000
  H   H16       1.0  0.2425877468678195  0.734253365761674  0.0973161441843828  1.0000
  H   H17       1.0  0.6792037097307002  0.5842540211459235  0.5787329138316152  1.0000
  H   H18       1.0  0.3208008317353261  0.08425228051913793  0.9212642277787848  1.0000
  H   H19       1.0  0.32078748933084705  0.4157527593791599  0.42126460483898137  1.0000
  H   H20       1.0  0.6792105186014084  0.9157508534272549  0.07873322278761208  1.0000
  H   H21       1.0  0.005074466733169899  0.7494448606027362  0.7555111658716669  1.0000
  H   H22       1.0  0.9949288284953539  0.24945096176455908  0.7444887030183125  1.0000
  H   H23       1.0  0.9949314014350958  0.25054514642437903  0.2444894077102616  1.0000
  H   H24       1.0  0.0050697351188518  0.750541962469384  0.2555172455596946  1.0000
  H   H25       1.0  0.666400126679754  0.8249458107835537  0.7760450800682647  1.0000
  H   H26       1.0  0.33359766864666796  0.3249504866543233  0.7239536139042001  1.0000
  H   H27       1.0  0.3336103440786786  0.17505659393857081  0.2239607622244435  1.0000
  H   H28       1.0  0.6663889276744398  0.6750562938868753  0.27603863606660173  1.0000
  C   C1        1.0  0.37265771310413237  0.5520027026688226  0.6200278104670431  1.0000
  C   C2        1.0  0.6273320365134153  0.05200122529958409  0.8799687982177815  1.0000
  C   C3        1.0  0.6273325653916472  0.44800553641373847  0.3799686544648893  1.0000
  C   C4        1.0  0.3726701713327642  0.9480040965867714  0.12003264643850992  1.0000
  C   C5        1.0  0.49341849293200113  0.5764309952698027  0.6431217078671239  1.0000
  C   C6        1.0  0.5065752577990351  0.07642720725070258  0.8568780330657901  1.0000
  C   C7        1.0  0.5065745566782454  0.42357578526029727  0.3568800980065276  1.0000
  C   C8        1.0  0.4934269343282906  0.9235751975080644  0.14311977871603426  1.0000
  C   C9        1.0  0.5278710381650241  0.6750435601302198  0.6509661547979774  1.0000
  C   C10       1.0  0.47212396946115115  0.17504180647739528  0.8490299834655418  1.0000
  C   C11       1.0  0.4721238304855005  0.3249632203667048  0.34903267253495324  1.0000
  C   C12       1.0  0.5278772957987172  0.8249620568312037  0.15096532142885613  1.0000
  C   C13       1.0  0.43587437934941414  0.744431430826765  0.6356576512516554  1.0000
  C   C14       1.0  0.564118946126598  0.24443099693717577  0.8643386099301011  1.0000
  C   C15       1.0  0.5641186513734623  0.25557389112617557  0.3643397951744376  1.0000
  C   C16       1.0  0.43588232227528306  0.7555735956523719  0.13565742153932084  1.0000
  C   C17       1.0  0.3163947711810308  0.7132850201837683  0.6116350041511538  1.0000
  C   C18       1.0  0.6835974808577063  0.21328547272359796  0.8883620006747037  1.0000
  C   C19       1.0  0.6835964247385106  0.2867210310603738  0.3883617879444257  1.0000
  C   C20       1.0  0.31640471756245586  0.7867176613199264  0.11163726425651527  1.0000
  C   C21       1.0  0.6564226328829221  0.7008260519723849  0.6752163405362097  1.0000
  C   C22       1.0  0.34357447980315203  0.2008279586249557  0.824775738879019  1.0000
  C   C23       1.0  0.3435749910836634  0.2991829163386086  0.3247841948697854  1.0000
  C   C24       1.0  0.6564240111472159  0.7991810096179107  0.17521349850250795  1.0000
  C   C25       1.0  0.7233124992766377  0.6437658202398354  0.6335703342465919  1.0000
  C   C26       1.0  0.27669427222117793  0.1437636130820792  0.8664289480222108  1.0000
  C   C27       1.0  0.2766814583136892  0.3562380431632731  0.36642961906692045  1.0000
  C   C28       1.0  0.7233134054110835  0.856236603780168  0.13356646730489538  1.0000
  C   C29       1.0  0.8472715680610461  0.662399991819612  0.6597453677041968  1.0000
  C   C30       1.0  0.15273564692578387  0.1624071709716546  0.8402491887273413  1.0000
  C   C31       1.0  0.15272237385462967  0.33759730807027927  0.3402509527316155  1.0000
  C   C32       1.0  0.8472683769512699  0.8375864824437186  0.15974855080351363  1.0000
  C   C33       1.0  0.907444008917885  0.7368028379047756  0.7317649599861297  1.0000
  C   C34       1.0  0.0925577485463691  0.23680821727673865  0.7682320524542164  1.0000
  C   C35       1.0  0.0925600338818953  0.2631893569792538  0.26823713898969703  1.0000
  C   C36       1.0  0.9074426309484307  0.7631854361973326  0.2317701910093319  1.0000
  C   C37       1.0  0.8411256602875027  0.7949584350087164  0.7727681877669638  1.0000
  C   C38       1.0  0.15887102712770226  0.2949701337611899  0.7272297987594527  1.0000
  C   C39       1.0  0.15888575637602287  0.2050315720296183  0.2272445208497444  1.0000
  C   C40       1.0  0.84111650875262  0.7050278954741955  0.2727678643898201  1.0000
  C   C41       1.0  0.7157811654215108  0.7786995116013955  0.7426901980321645  1.0000
  C   C42       1.0  0.284217769954644  0.2787025681412487  0.7573127734621748  1.0000
  C   C43       1.0  0.28422747370211  0.22130216386150892  0.2573157165031077  1.0000
  C   C44       1.0  0.7157761718637943  0.7213027537970117  0.24268354698074288  1.0000
  C   C45       1.0  0.912412878008304  0.6016167678672772  0.6088059039170871  1.0000
  C   C46       1.0  0.08760502251430317  0.10160604195647949  0.8912005353725759  1.0000
  C   C47       1.0  0.08759114256763209  0.3983892832553977  0.391191109050375  1.0000
  C   C48       1.0  0.9124237964719056  0.8983730257568606  0.10881185021109724  1.0000
  C   C49       1.0  0.9045435678279716  0.8724286346254005  0.8532809639082685  1.0000
  C   C50       1.0  0.09547052260935368  0.37244069336259855  0.6467276632020712  1.0000
  C   C51       1.0  0.09548527947161739  0.1275540795079237  0.1467379608480357  1.0000
  C   C52       1.0  0.9045261966075556  0.627564628585084  0.353275451332614  1.0000
  N   N1        1.0  0.28421456953319074  0.6187359633108611  0.6033335875216395  1.0000
  N   N2        1.0  0.7157744796847679  0.1187358883394438  0.8966634665445667  1.0000
  N   N3        1.0  0.7157738710526188  0.3812693586734638  0.396661496502162  1.0000
  N   N4        1.0  0.2842314009277516  0.881267245691191  0.10334001334649662  1.0000
  O   O1        1.0  0.851662180010166  0.5292909999895911  0.5540489554329396  1.0000
  O   O2        1.0  0.1483409165073084  0.029288443560503197  0.9459412947207894  1.0000
  O   O3        1.0  0.1483161819153835  0.47070557076195035  0.4459454360592261  1.0000
  O   O4        1.0  0.8516841948853509  0.9707066682319194  0.05406106332223717  1.0000
  O   O5        1.0  0.0201201471289423  0.6268940940758866  0.6220568268495938  1.0000
  O   O6        1.0  0.979877853065467  0.1268953331372984  0.8779377007302923  1.0000
  O   O7        1.0  0.9798655067826587  0.3730966423450681  0.3779292833463971  1.0000
  O   O8        1.0  0.020131735167126397  0.873089568982877  0.12207580669948469  1.0000
  O   O9        1.0  0.0143881958973395  0.8545563487480333  0.9188821460167559  1.0000
  O   O10       1.0  0.9856106942920986  0.3545645439410876  0.5811121687229033  1.0000
  O   O11       1.0  0.9856286968628041  0.1454278239966982  0.08112598641887561  1.0000
  O   O12       1.0  0.0143667502980804  0.645426921877622  0.41888189559916356  1.0000
  O   O13       1.0  0.8417241748215571  0.9483411344521713  0.8503807676797805  1.0000
  O   O14       1.0  0.15827062910910428  0.4483447297954016  0.649618144880229  1.0000
  O   O15       1.0  0.1582946125018339  0.051651060399393586  0.149641824007297  1.0000
  O   O16       1.0  0.8416994636201878  0.5516532995584811  0.35037039582547175  1.0000
