data_image0
_chemical_formula_structural       Cd2H20C20Br4N4
_chemical_formula_sum              "Cd2 H20 C20 Br4 N4"
_cell_length_a       3.9154096371757836
_cell_length_b       8.525207910074666
_cell_length_c       18.361763021523732
_cell_angle_alpha    89.99996180374724
_cell_angle_beta     90.00089299062851
_cell_angle_gamma    90.00052629882036

_space_group_name_H-M_alt    "P 1"
_space_group_IT_number       1

loop_
  _space_group_symop_operation_xyz
  'x, y, z'

loop_
  _atom_site_type_symbol
  _atom_site_label
  _atom_site_symmetry_multiplicity
  _atom_site_fract_x
  _atom_site_fract_y
  _atom_site_fract_z
  _atom_site_occupancy
  Cd  Cd1       1.0  1.0702910000000004e-10  1.1729902737999995e-06  2.7230498532000005e-06  1.0000
  Cd  Cd2       1.0  0.49998524812704664  0.5000121153892465  0.4999995960353018  1.0000
  H   H1        1.0  0.9999974501431625  0.9844247158142138  0.8274716442374128  1.0000
  H   H2        1.0  0.4999988752994112  0.48442177527952196  0.6725244264679873  1.0000
  H   H3        1.0  0.4999997148535869  0.5155883796623189  0.327472042603226  1.0000
  H   H4        1.0  0.999998678781374  0.015565456965653401  0.1725319849299183  1.0000
  H   H5        1.0  2.1045873168999995e-06  0.7921409472788739  0.722258390042164  1.0000
  H   H6        1.0  0.5000008545526811  0.29213431898564585  0.7777382139194984  1.0000
  H   H7        1.0  0.5000028434584108  0.7078641060497547  0.22225662133251942  1.0000
  H   H8        1.0  6.609089275900002e-06  0.20784578913032456  0.2777494356942682  1.0000
  H   H9        1.0  1.8377476443700008e-05  0.5061068505232246  0.7502372360574726  1.0000
  H   H10       1.0  0.4999947144920468  0.006100256083890101  0.7497534795569223  1.0000
  H   H11       1.0  0.49999365924853106  0.9938969959275716  0.2502359095689144  1.0000
  H   H12       1.0  1.58765087761e-05  0.49388457790988144  0.24977494660199542  1.0000
  H   H13       1.0  1.71293066344e-05  0.4191364579826457  0.8815824823118915  1.0000
  H   H14       1.0  0.5000111204933049  0.9191279219060251  0.6184091747632365  1.0000
  H   H15       1.0  0.4999772532685681  0.08087167608928073  0.3815802143621739  1.0000
  H   H16       1.0  1.4570718612099998e-05  0.5808584894200024  0.11843024495259159  1.0000
  H   H17       1.0  2.0261504402999996e-06  0.6269870483751063  0.9788508826660872  1.0000
  H   H18       1.0  0.5000132596693662  0.12698542299455803  0.521140878919212  1.0000
  H   H19       1.0  0.4999751143425115  0.8730247319253907  0.4788528670844201  1.0000
  H   H20       1.0  4.133620819900002e-06  0.3730219748763518  0.021154220011915498  1.0000
  C   C1        1.0  0.9999966086402521  0.8578706122445184  0.8361413136761087  1.0000
  C   C2        1.0  0.5000025277537432  0.3578629902624614  0.663846633166919  1.0000
  C   C3        1.0  0.4999909542764769  0.6421424727009185  0.3361482020663331  1.0000
  C   C4        1.0  1.981507296000001e-06  0.14212194781588047  0.1638595122783499  1.0000
  C   C5        1.0  6.284645820600006e-06  0.751635156162145  0.7785819648541406  1.0000
  C   C6        1.0  0.4999933851352338  0.2516321150697608  0.7214070290543901  1.0000
  C   C7        1.0  0.49998988074062106  0.7483803858245681  0.2785829046699746  1.0000
  C   C8        1.0  1.0091029793100001e-05  0.24835627223371412  0.2214236824545281  1.0000
  C   C9        1.0  1.3053105355700008e-05  0.5915581121952586  0.7943745946650438  1.0000
  C   C10       1.0  0.4999990359217676  0.09155860920733973  0.7056220810812945  1.0000
  C   C11       1.0  0.499984230055091  0.9084480267247489  0.29437220952421933  1.0000
  C   C12       1.0  1.60927850033e-05  0.40842745126680313  0.2056370433767114  1.0000
  C   C13       1.0  7.516860478100007e-06  0.5430255275427953  0.8668747221164637  1.0000
  C   C14       1.0  0.5000139071705973  0.043016728517955016  0.6331170695228039  1.0000
  C   C15       1.0  0.499977020658271  0.9569805234980752  0.3668744980474585  1.0000
  C   C16       1.0  1.14130210989e-05  0.4569682468398214  0.133135826686285  1.0000
  C   C17       1.0  0.9999952437368124  0.6572842503401902  0.9211593294896118  1.0000
  C   C18       1.0  0.500007914512473  0.15726852044329584  0.5788341352334428  1.0000
  C   C19       1.0  0.49998045947208425  0.8427322505402943  0.4211612446019046  1.0000
  C   C20       1.0  7.927094003000008e-07  0.34272121262214483  0.0788469425582932  1.0000
  Br  Br1       1.0  0.5000038279107457  0.8271469165595778  0.07517704140741437  1.0000
  Br  Br2       1.0  0.9999772340688012  0.32717295376301087  0.4248197946787116  1.0000
  Br  Br3       1.0  9.241164207000004e-07  0.6728442390822809  0.5751783081862598  1.0000
  Br  Br4       1.0  0.4999998702637853  0.17283977855200316  0.9248254183868881  1.0000
  N   N1        1.0  0.9999986612935173  0.8113626132308058  0.9060561770459897  1.0000
  N   N2        1.0  0.5000021851519492  0.3113468650130287  0.5939361433224943  1.0000
  N   N3        1.0  0.4999861886358161  0.6886492140055227  0.4060548796335865  1.0000
  N   N4        1.0  1.0145088928899999e-05  0.1886381577945997  0.0939479165845896  1.0000
