data_image0
_chemical_formula_structural       Zn8H32C80N8O42
_chemical_formula_sum              "Zn8 H32 C80 N8 O42"
_cell_length_a       23.70909820456868
_cell_length_b       23.710729442633088
_cell_length_c       23.708915168132222
_cell_angle_alpha    65.9831587730744
_cell_angle_beta     72.75868272981347
_cell_angle_gamma    107.25112054354298

_space_group_name_H-M_alt    "P 1"
_space_group_IT_number       1

loop_
  _space_group_symop_operation_xyz
  'x, y, z'

loop_
  _atom_site_type_symbol
  _atom_site_label
  _atom_site_symmetry_multiplicity
  _atom_site_fract_x
  _atom_site_fract_y
  _atom_site_fract_z
  _atom_site_occupancy
  Zn  Zn1       1.0  0.056151241607807656  0.9561899317212549  0.48335739658256954  1.0000
  Zn  Zn2       1.0  0.056154821602199013  0.09995861777791498  0.46050030625702487  1.0000
  Zn  Zn3       1.0  0.9438434706304831  0.9833512100542446  0.4561845274967597  1.0000
  Zn  Zn4       1.0  0.9438537781601753  0.9604934368697895  0.5999663388752269  1.0000
  Zn  Zn5       1.0  0.9395402237081927  0.5395014404648392  0.016648937130924003  1.0000
  Zn  Zn6       1.0  0.06046426693946227  0.5166466332724866  0.039509206365394844  1.0000
  Zn  Zn7       1.0  0.9395361501965241  0.40003669248025614  0.043811161682619254  1.0000
  Zn  Zn8       1.0  0.06044863945931691  0.5438031247996591  0.9000412519982677  1.0000
  H   H1        1.0  0.9267112393170012  0.655143489741505  0.10601117253909809  1.0000
  H   H2        1.0  0.9257169233135377  0.7171648468476166  0.16959348849849917  1.0000
  H   H3        1.0  0.07429682354693792  0.6696050791305055  0.2171914787418672  1.0000
  H   H4        1.0  0.0733149211006607  0.6060228261937014  0.15517194928636255  1.0000
  H   H5        1.0  0.9226789054135272  0.8235176075026658  0.2835539683028756  1.0000
  H   H6        1.0  0.9225837704214336  0.8857320704528677  0.34689091833814695  1.0000
  H   H7        1.0  0.07736528822160701  0.8468399487057211  0.38581312283226055  1.0000
  H   H8        1.0  0.07726805415067892  0.7834931311025102  0.3236106649834696  1.0000
  H   H9        1.0  0.07330386805937657  0.46726985073446764  0.7715588908171754  1.0000
  H   H10       1.0  0.07429553393482288  0.4046780842085483  0.7085487380528834  1.0000
  H   H11       1.0  0.925719500246025  0.20853302558020897  0.9046884769970661  1.0000
  H   H12       1.0  0.9267012406272032  0.2715352211314724  0.9672875141453335  1.0000
  H   H13       1.0  0.07727955097283268  0.2937709309592975  0.5991406036295787  1.0000
  H   H14       1.0  0.07737149190128896  0.23052095707711828  0.5368409827901531  1.0000
  H   H15       1.0  0.9225866258316204  0.03685025955935113  0.7305156445714404  1.0000
  H   H16       1.0  0.9226815683941537  0.09915665087256505  0.793760929891022  1.0000
  H   H17       1.0  0.7326369378723002  0.463159072432262  0.11422081033360619  1.0000
  H   H18       1.0  0.6070872935512881  0.4008522136537919  0.1764389167790626  1.0000
  H   H19       1.0  0.6070845686941482  0.20623667129436263  0.21647118763618795  1.0000
  H   H20       1.0  0.7326356342432663  0.2694833105296298  0.1531256263332708  1.0000
  H   H21       1.0  0.3867784561409594  0.29146052079779855  0.28280546273020957  1.0000
  H   H22       1.0  0.26117621363948745  0.22845300155636755  0.34482231523769974  1.0000
  H   H23       1.0  0.2611716662000205  0.03272343664436754  0.39395305947833503  1.0000
  H   H24       1.0  0.38677385178571205  0.09531661490140647  0.33037313573397153  1.0000
  H   H25       1.0  0.2673704715936936  0.6142087937149724  0.9631671808882701  1.0000
  H   H26       1.0  0.39292067803867803  0.6764190951875123  0.9008602688882021  1.0000
  H   H27       1.0  0.3928983264856214  0.7164515162580541  0.7062393209526691  1.0000
  H   H28       1.0  0.26734769137325315  0.6531114306897621  0.7694830576990979  1.0000
  H   H29       1.0  0.6132356859680855  0.7828086986577103  0.7914633685147481  1.0000
  H   H30       1.0  0.7388361680078434  0.8448256068714455  0.7284521929541374  1.0000
  H   H31       1.0  0.738812084526707  0.8939584212943003  0.5327194235987348  1.0000
  H   H32       1.0  0.6132101871357495  0.8303750397449149  0.5953143705302253  1.0000
  C   C1        1.0  0.17916986466643448  0.0895849453417839  0.4104109105600672  1.0000
  C   C2        1.0  0.9999939345450388  0.1360148384280959  0.3639794144342688  1.0000
  C   C3        1.0  0.9999942575636142  0.9073524732704922  0.4073664933467927  1.0000
  C   C4        1.0  0.8208274757399542  0.9104065283426693  0.5895798033825059  1.0000
  C   C5        1.0  2.943727089955159e-06  0.8639818440933668  0.6360270629908983  1.0000
  C   C6        1.0  0.999995821539642  0.09264071603714527  0.5926441358939983  1.0000
  C   C7        1.0  1.655653380092485e-05  0.5895855530771713  0.08958574740361774  1.0000
  C   C8        1.0  1.270112953610304e-06  0.3639806253262066  0.13602335200881296  1.0000
  C   C9        1.0  0.8147144271128468  0.40736081052553885  0.09263391252800804  1.0000
  C   C10       1.0  0.999992921797926  0.4104069121595159  0.9104211819245619  1.0000
  C   C11       1.0  0.9999930309150998  0.636017167471813  0.8639817640894878  1.0000
  C   C12       1.0  0.1852813277314738  0.5926353577102857  0.9073604537577183  1.0000
  C   C13       1.0  0.9999994155652774  0.8053805571409924  0.6946271992689931  1.0000
  C   C14       1.0  0.9999920422487922  0.6946112781684873  0.8053862808878238  1.0000
  C   C15       1.0  0.9566601865311386  0.7760466701126346  0.765455882517635  1.0000
  C   C16       1.0  0.041492759115549  0.7221061200549528  0.7345567603043152  1.0000
  C   C17       1.0  0.9584966015980142  0.7239430514733054  0.8193970161696389  1.0000
  C   C18       1.0  0.04333228876490156  0.7778862172016617  0.6806182711597303  1.0000
  C   C19       1.0  0.9999998416262416  0.19461430644569327  0.30537845244253253  1.0000
  C   C20       1.0  2.566372998623423e-06  0.30537948207908266  0.19461650346412546  1.0000
  C   C21       1.0  0.9566615716464144  0.18061128662492376  0.2778790285230671  1.0000
  C   C22       1.0  0.04150215096152013  0.3193838338458619  0.22395299098347712  1.0000
  C   C23       1.0  0.9585037200054246  0.23455295761411324  0.2220981712009832  1.0000
  C   C24       1.0  0.04333865139529544  0.26544186623782207  0.2760541708429399  1.0000
  C   C25       1.0  1.3701916536633648e-05  0.6269386325847605  0.12694633567262767  1.0000
  C   C26       1.0  0.9585070958297809  0.6584310040176931  0.13085866104819396  1.0000
  C   C27       1.0  0.9581544921776345  0.6930499180717008  0.16600492117127888  1.0000
  C   C28       1.0  6.621320245921547e-06  0.6975637667695195  0.19757371381557226  1.0000
  C   C29       1.0  0.04186157712264581  0.6660057635806353  0.1930695974883817  1.0000
  C   C30       1.0  0.04151412144168641  0.630859690891647  0.1584506682176609  1.0000
  C   C31       1.0  7.711205258294394e-07  0.7331067586433165  0.2331210481407381  1.0000
  C   C32       1.0  0.9999903462846832  0.7638083488688706  0.2638412222146799  1.0000
  C   C33       1.0  0.999983657456156  0.7993389002039706  0.2993946428597099  1.0000
  C   C34       1.0  0.956278809728268  0.8285696002683665  0.3062218004019287  1.0000
  C   C35       1.0  0.956212031686157  0.8631879477999148  0.341371742093685  1.0000
  C   C36       1.0  0.9999785174626228  0.8699826730284456  0.37003884713289636  1.0000
  C   C37       1.0  0.04374146987649441  0.8413181954336438  0.3632599547854766  1.0000
  C   C38       1.0  0.0436736483262695  0.8061606012317172  0.32864969040851116  1.0000
  C   C39       1.0  0.9999995563396458  0.3730473982829848  0.8730676557469438  1.0000
  C   C40       1.0  0.04150671675672867  0.4106314209593476  0.8000698391045378  1.0000
  C   C41       1.0  0.041857998208641396  0.37583604662538056  0.7650993832372353  1.0000
  C   C42       1.0  4.103630836056141e-06  0.3024223676337243  0.8024388852895116  1.0000
  C   C43       1.0  0.9581513642007665  0.265081729527722  0.8758519016569509  1.0000
  C   C44       1.0  0.9585014846857051  0.3000495318715933  0.9106491207502786  1.0000
  C   C45       1.0  0.9999988074868186  0.2668818982246748  0.7668905004472607  1.0000
  C   C46       1.0  0.9999949737309707  0.23617796519332762  0.7361714810830693  1.0000
  C   C47       1.0  0.9999857344422056  0.2006382434875889  0.7006286160518514  1.0000
  C   C48       1.0  0.04367921949708631  0.23750806609022124  0.6276908590220317  1.0000
  C   C49       1.0  0.04374897734187758  0.2024175846708474  0.5930129119451878  1.0000
  C   C50       1.0  0.9999827233388958  0.12999154609452282  0.6299884465572634  1.0000
  C   C51       1.0  0.9562145006171721  0.09302145215224993  0.702412767422267  1.0000
  C   C52       1.0  0.9562829443706491  0.1277029539086456  0.7374985857484405  1.0000
  C   C53       1.0  0.7400196732633123  0.37001206446363  0.12998399289737253  1.0000
  C   C54       1.0  0.7045680542623033  0.4069855861600757  0.13677239103493127  1.0000
  C   C55       1.0  0.6347992275360994  0.3723033501605641  0.17138973671938373  1.0000
  C   C56       1.0  0.5987315667104058  0.29936762374246234  0.20063112790735724  1.0000
  C   C57       1.0  0.6347982689863373  0.2624992324906543  0.19380626636835538  1.0000
  C   C58       1.0  0.7045663775841006  0.297586468562933  0.15864617466147743  1.0000
  C   C59       1.0  0.5276523694559785  0.26382524888811776  0.23617052293570862  1.0000
  C   C60       1.0  0.4662202675467598  0.23310831539657786  0.2668759314669344  1.0000
  C   C61       1.0  0.3951377222471707  0.19756890204246952  0.30241471842968093  1.0000
  C   C62       1.0  0.359066250718577  0.23491093662550358  0.30692175900114194  1.0000
  C   C63       1.0  0.28930078239633167  0.19994097488461185  0.34153713486730913  1.0000
  C   C64       1.0  0.2538830800304126  0.12694282264185835  0.3730423616260765  1.0000
  C   C65       1.0  0.2892973720427676  0.08936048195398878  0.369114824050378  1.0000
  C   C66       1.0  0.3590626260945912  0.12415470940014474  0.33397023902739426  1.0000
  C   C67       1.0  0.2599762786401458  0.6299742876057906  0.8700146749249598  1.0000
  C   C68       1.0  0.2954337179346356  0.6367591858243741  0.9069919507421746  1.0000
  C   C69       1.0  0.36520275754473625  0.6713737865963764  0.8723080423413023  1.0000
  C   C70       1.0  0.40126345996440477  0.700618834877247  0.7993703048141613  1.0000
  C   C71       1.0  0.36518918161825575  0.6937896014997947  0.7625022139330612  1.0000
  C   C72       1.0  0.29542117551204705  0.6586320461159759  0.7975879953419281  1.0000
  C   C73       1.0  0.4723441988210057  0.73615750728424  0.7638294032632871  1.0000
  C   C74       1.0  0.5337842975459496  0.7668757231303188  0.7331071677602524  1.0000
  C   C75       1.0  0.6048650803038672  0.8024133624495563  0.6975700419211962  1.0000
  C   C76       1.0  0.6409412607002738  0.8069245219221203  0.734912575223504  1.0000
  C   C77       1.0  0.710707153472612  0.8415448098377283  0.699938821807244  1.0000
  C   C78       1.0  0.7461140395285142  0.873043238963376  0.626939201652384  1.0000
  C   C79       1.0  0.7106910893157236  0.8691186518668484  0.5893585627548039  1.0000
  C   C80       1.0  0.6409265458287695  0.833973384295888  0.6241557775916392  1.0000
  N   N1        1.0  0.9060948519467832  0.7989568086824334  0.785462593899432  1.0000
  N   N2        1.0  0.08440527562223843  0.691546786706688  0.7145499636864728  1.0000
  N   N3        1.0  0.9155712312304589  0.7010256530372558  0.8928722908258495  1.0000
  N   N4        1.0  0.0939013570084343  0.8084510430500983  0.6071435679058937  1.0000
  N   N5        1.0  0.9060916891102408  0.10714215750150645  0.30842612592607593  1.0000
  N   N6        1.0  0.08441732040778763  0.3928541620128811  0.20105563368233706  1.0000
  N   N7        1.0  0.9155840226496395  0.2145519295919341  0.1915318601925834  1.0000
  N   N8        1.0  0.09390874467841578  0.28544580513691636  0.29896785397142633  1.0000
  O   O1        1.0  0.9999999084140045  0.9999982773065309  0.5000004048896897  1.0000
  O   O2        1.0  0.14994630928428881  0.022339509174230398  0.44405939655843707  1.0000
  O   O3        1.0  0.021777050406470363  0.15196337470695204  0.4010033878721799  1.0000
  O   O4        1.0  0.9540548132668368  0.92538816860926  0.41874661365261545  1.0000
  O   O5        1.0  0.14994242221243337  0.12760300827827822  0.4059973489197973  1.0000
  O   O6        1.0  0.045941406330008906  0.9187504803153885  0.425397259520267  1.0000
  O   O7        1.0  0.9782097089267339  0.07721550444526304  0.3698072537662612  1.0000
  O   O8        1.0  0.850048788087975  0.94404575561893  0.5223323547876078  1.0000
  O   O9        1.0  0.9782278449258618  0.901002326164651  0.6519770539158075  1.0000
  O   O10       1.0  0.8500614570204664  0.9059963067405192  0.6275975573759355  1.0000
  O   O11       1.0  0.02178437335643233  0.8698137207477359  0.5772226485542761  1.0000
  O   O12       1.0  0.04594519954817146  0.1271845551374469  0.5286766069591665  1.0000
  O   O13       1.0  0.9540524252604572  0.028668135789047335  0.6271941046094582  1.0000
  O   O14       1.0  0.9999986175058244  0.49999756512917065  5.105397292535563e-06  1.0000
  O   O15       1.0  0.9664070647242583  0.5939991920902727  0.05594497211676947  1.0000
  O   O16       1.0  0.0529760717849826  0.42278193345710946  0.09900304503249663  1.0000
  O   O17       1.0  0.8441353091695023  0.3728107067566029  0.08124368446744502  1.0000
  O   O18       1.0  0.03362936016173291  0.5559534231145378  0.09399719734830828  1.0000
  O   O19       1.0  0.8441387755695758  0.4713314633197712  0.0746101662489522  1.0000
  O   O20       1.0  0.9470296495485614  0.34803534607940617  0.13019081444831235  1.0000
  O   O21       1.0  0.9663888268148997  0.3723911869493153  0.9776670282795623  1.0000
  O   O22       1.0  0.05295792958021655  0.6301777684440069  0.8480332330282182  1.0000
  O   O23       1.0  0.03359342005058623  0.47765297553224423  0.8723978835507255  1.0000
  O   O24       1.0  0.9470231220929081  0.5989950346992147  0.9227825208079142  1.0000
  O   O25       1.0  0.1558616509218853  0.5746100869396926  0.9713332158682279  1.0000
  O   O26       1.0  0.1558499139011645  0.5812372996683947  0.8728121274592979  1.0000
  O   O27       1.0  0.8589935784286172  0.78133906257942  0.773378254255924  1.0000
  O   O28       1.0  0.9151396524074759  0.8312816899831362  0.814342428611532  1.0000
  O   O29       1.0  0.054699711337065325  0.6323772554688533  0.7266126441656697  1.0000
  O   O30       1.0  0.1456102344399641  0.7294530742411212  0.6856966193660056  1.0000
  O   O31       1.0  0.9452707272893339  0.7186464913511089  0.9223553585506608  1.0000
  O   O32       1.0  0.854366894342597  0.6686883091973426  0.9161528663609747  1.0000
  O   O33       1.0  0.14100891973005528  0.8676229849059994  0.5776781980447794  1.0000
  O   O34       1.0  0.08485445698398328  0.7705435938795872  0.5838453634304275  1.0000
  O   O35       1.0  0.8589901930573661  0.07766469603975412  0.367601339261107  1.0000
  O   O36       1.0  0.9151332418438686  0.08385814241574956  0.27050524303421514  1.0000
  O   O37       1.0  0.05471085740532552  0.42232236073472507  0.2186858515130084  1.0000
  O   O38       1.0  0.1456237747460919  0.4161496607041641  0.16872257899748183  1.0000
  O   O39       1.0  0.9452864645593025  0.2266318048482673  0.1323541006117851  1.0000
  O   O40       1.0  0.8543788620056462  0.1856804254689736  0.22944416176273555  1.0000
  O   O41       1.0  0.14100965712638927  0.27337003570175256  0.28134405150498054  1.0000
  O   O42       1.0  0.08486847682286953  0.3143152841135404  0.3313023923096737  1.0000
