data_image0
_chemical_formula_structural       CoH46C66N6O4
_chemical_formula_sum              "Co1 H46 C66 N6 O4"
_cell_length_a       11.581943031654239
_cell_length_b       11.501508076060672
_cell_length_c       12.7257
_cell_angle_alpha    67.17261955776567
_cell_angle_beta     68.6094102659936
_cell_angle_gamma    73.33021725093339

_space_group_name_H-M_alt    "P 1"
_space_group_IT_number       1

loop_
  _space_group_symop_operation_xyz
  'x, y, z'

loop_
  _atom_site_type_symbol
  _atom_site_label
  _atom_site_symmetry_multiplicity
  _atom_site_fract_x
  _atom_site_fract_y
  _atom_site_fract_z
  _atom_site_occupancy
  Co  Co1       1.0  0.5000013122364494  0.499999169419901  0.5000025666919041  1.0000
  H   H1        1.0  0.1611655786768011  0.1630272477302839  0.18238304911947978  1.0000
  H   H2        1.0  0.8388306852388753  0.8369758769355043  0.8176028722443577  1.0000
  H   H3        1.0  0.10097392426140325  0.30486572950995583  0.3067846612830748  1.0000
  H   H4        1.0  0.8990291494046403  0.6951354808254351  0.6932028141071026  1.0000
  H   H5        1.0  0.8751240904433928  0.3835638519501643  0.3929676637257061  1.0000
  H   H6        1.0  0.12488247520722241  0.6164498015327807  0.607011932082244  1.0000
  H   H7        1.0  0.769646833545835  0.1757920027882065  0.23374127944390466  1.0000
  H   H8        1.0  0.23034754689038556  0.8242168648687525  0.7662511115466372  1.0000
  H   H9        1.0  0.9936257119638584  0.0997768143932376  0.14596000296027953  1.0000
  H   H10       1.0  0.006366045971766745  0.9002310960985225  0.8540304509221668  1.0000
  H   H11       1.0  0.6105368886114491  0.17110380765670638  0.3828264442154816  1.0000
  H   H12       1.0  0.38945937530423447  0.8288993170090819  0.6171673352622516  1.0000
  H   H13       1.0  0.21885737910240274  0.2957372450327966  0.6080606179187384  1.0000
  H   H14       1.0  0.7811485053316787  0.7042582223114167  0.3919515124930655  1.0000
  H   H15       1.0  0.060382100566137416  0.16499996519986837  0.6456525159218316  1.0000
  H   H16       1.0  0.939619886446181  0.8350022023007213  0.3543538440331984  1.0000
  H   H17       1.0  0.11073228437545883  0.0134271133737656  0.5327047323324621  1.0000
  H   H18       1.0  0.8892625452538995  0.9865846257787821  0.4672959324402937  1.0000
  H   H19       1.0  0.3203659086031507  0.9915886854250644  0.3838994132654461  1.0000
  H   H20       1.0  0.6796292397565012  0.0084211393970932  0.6160963162590676  1.0000
  H   H21       1.0  0.4775369020025266  0.1182051159177036  0.3485759276126998  1.0000
  H   H22       1.0  0.5224613469531647  0.8818027945740637  0.6514257304126757  1.0000
  H   H23       1.0  0.7344408798499488  0.41551881202881447  0.5882417922558785  1.0000
  H   H24       1.0  0.265559759582942  0.5844747409850086  0.41176882137391146  1.0000
  H   H25       1.0  0.842745698674982  0.2041805653454247  0.6996317949062102  1.0000
  H   H26       1.0  0.15725510012305224  0.7958120305031997  0.3003759581937615  1.0000
  H   H27       1.0  0.7158018587030099  0.0263823443057589  0.8256686692100599  1.0000
  H   H28       1.0  0.2841976940761555  0.9736121658732557  0.17434118369984472  1.0000
  H   H29       1.0  0.3978826722470927  0.2850150805037828  0.7157539112795419  1.0000
  H   H30       1.0  0.6021213865121241  0.7149746438492528  0.28424512262063206  1.0000
  H   H31       1.0  0.2957229950046881  0.7521614688909039  0.009104334098680035  1.0000
  H   H32       1.0  0.7042756015835961  0.24783878427928835  0.9908975360256846  1.0000
  H   H33       1.0  0.2884420873202487  0.1603002840860057  0.8656770999052624  1.0000
  H   H34       1.0  0.711560537152657  0.8396980547537963  0.1343233186102138  1.0000
  H   H35       1.0  0.6948685443239386  0.7271229845207542  0.80105280846967  1.0000
  H   H36       1.0  0.3051311389180711  0.27287631148423935  0.19894667912901542  1.0000
  H   H37       1.0  0.7754262509490744  0.3756911682105581  0.04715432967956451  1.0000
  H   H38       1.0  0.22457451894666042  0.6243071706292439  0.9528459186390135  1.0000
  H   H39       1.0  0.5665045654483124  0.4106717274747211  0.19499949561537722  1.0000
  H   H40       1.0  0.43349450923541616  0.5893256541998823  0.8050000794106393  1.0000
  H   H41       1.0  0.4208395320328577  0.6183995470376544  0.14276674514613313  1.0000
  H   H42       1.0  0.5791615565931707  0.38159687747175747  0.8572317111697456  1.0000
  H   H43       1.0  0.11254612311265791  0.8031956028275005  0.11716906679205152  1.0000
  H   H44       1.0  0.8874594136888306  0.1968075218382808  0.8828279211043718  1.0000
  H   H45       1.0  0.8825577996093873  0.8377339517709785  0.16831873478362508  1.0000
  H   H46       1.0  0.11744559278694311  0.1622653442340223  0.8316810932088712  1.0000
  C   C1        1.0  0.062072087909953735  0.19616909265234736  0.22150940368825184  1.0000
  C   C2        1.0  0.9379240166405796  0.8038349891786324  0.7784809498281787  1.0000
  C   C3        1.0  0.028594846605756213  0.2760359137972443  0.2910782907178556  1.0000
  C   C4        1.0  0.9714094441768566  0.7239691251989342  0.7089082240062722  1.0000
  C   C5        1.0  0.902353162324289  0.3204225354455019  0.3394382123470053  1.0000
  C   C6        1.0  0.09764585455483404  0.6795863322114569  0.6605487105503798  1.0000
  C   C7        1.0  0.8070349278861073  0.284385265804616  0.32078505492018644  1.0000
  C   C8        1.0  0.19296424835816592  0.7156226446871514  0.6792068655612693  1.0000
  C   C9        1.0  0.8416748959238163  0.20404560505274108  0.2507296127380838  1.0000
  C   C10       1.0  0.15831871658896557  0.7959623054390191  0.7492617971526627  1.0000
  C   C11       1.0  0.9683130877962401  0.1609425419327266  0.20106262960622695  1.0000
  C   C12       1.0  0.031684233870869626  0.8390653685590337  0.7989267632441609  1.0000
  C   C13       1.0  0.6735644345378873  0.3311198136794076  0.3775869781775184  1.0000
  C   C14       1.0  0.32643384332010333  0.668882353821175  0.6224103974584168  1.0000
  C   C15       1.0  0.5801950009923972  0.2599919107767761  0.4038496263014224  1.0000
  C   C16       1.0  0.4198045228844622  0.7400083423934163  0.5961487927701299  1.0000
  C   C17       1.0  0.45201099781490234  0.2926580445962799  0.4604765602895851  1.0000
  C   C18       1.0  0.5479903806391208  0.7073422085739125  0.5395243864130492  1.0000
  C   C19       1.0  0.35979836616213134  0.2145265639522833  0.47815217185661396  1.0000
  C   C20       1.0  0.6402030122918917  0.7854736892179089  0.5218534897143596  1.0000
  C   C21       1.0  0.24027369095526302  0.22756985408233274  0.560497130778856  1.0000
  C   C22       1.0  0.759729092882786  0.7724275275922706  0.4395114285662557  1.0000
  C   C23       1.0  0.15182113402276803  0.15544267071476267  0.5800905147446256  1.0000
  C   C24       1.0  0.8481794765078235  0.8445566252902379  0.4199173089721029  1.0000
  C   C25       1.0  0.1799541489079601  0.0699467610503888  0.5170629247223815  1.0000
  C   C26       1.0  0.8200436508545936  0.9300582779457826  0.4829391034460641  1.0000
  C   C27       1.0  0.2977486959153596  0.0572030636267868  0.4341790264842728  1.0000
  C   C28       1.0  0.7022460032511548  0.9428038896997819  0.5658225738630376  1.0000
  C   C29       1.0  0.3869509837002953  0.1284975132735724  0.4149525145308032  1.0000
  C   C30       1.0  0.6130460481388199  0.8715065685574074  0.5850501041606222  1.0000
  C   C31       1.0  0.6846423575654371  0.33534378369070333  0.645074568139712  1.0000
  C   C32       1.0  0.3153582818674536  0.6646497693231126  0.35493133062174564  1.0000
  C   C33       1.0  0.7433117723018796  0.2182145214536462  0.7070348651253012  1.0000
  C   C34       1.0  0.25668995378473625  0.7817780743949782  0.29297100854465424  1.0000
  C   C35       1.0  0.6737131116191224  0.1199318419318374  0.7767406264336782  1.0000
  C   C36       1.0  0.32628736844861816  0.8800626682471772  0.2232681328575978  1.0000
  C   C37       1.0  0.5459247110346085  0.1414278579104575  0.7834206695310044  1.0000
  C   C38       1.0  0.45407468237940674  0.8585676094337558  0.21658654322899912  1.0000
  C   C39       1.0  0.49511973766214384  0.2622824070915328  0.7182869841985493  1.0000
  C   C40       1.0  0.5048818290593289  0.7377111459222832  0.2817170351328855  1.0000
  C   C41       1.0  0.47049534425548256  0.0374471739750462  0.8504519284044605  1.0000
  C   C42       1.0  0.5295055850053958  0.9625502076995571  0.14955331749818873  1.0000
  C   C43       1.0  0.4731237142021742  0.8191266603548043  0.9360040637034003  1.0000
  C   C44       1.0  0.526875201116404  0.18087167848499766  0.06399837185243472  1.0000
  C   C45       1.0  0.3418498769288193  0.8358148355523838  0.9664593168239931  1.0000
  C   C46       1.0  0.6581488790246084  0.16418446045261695  0.03354126439332814  1.0000
  C   C47       1.0  0.2717972131231292  0.9596097962165118  0.9396524782962175  1.0000
  C   C48       1.0  0.7282035567726127  0.0403885426232904  0.060348555833741095  1.0000
  C   C49       1.0  0.3386175991333573  0.06210662092745879  0.882742254008761  1.0000
  C   C50       1.0  0.6613840980509594  0.9378917179123432  0.1172584723139563  1.0000
  C   C51       1.0  0.5494279089776911  0.6907440069047865  0.9686638507005297  1.0000
  C   C52       1.0  0.4505683838402916  0.309253374769817  0.03133821936999231  1.0000
  C   C53       1.0  0.6655346222898828  0.6585641130050063  0.8897487423312568  1.0000
  C   C54       1.0  0.33446461175898895  0.3414323115043985  0.11025190122189328  1.0000
  C   C55       1.0  0.7075170282698195  0.4630315352082022  0.02504577617526134  1.0000
  C   C56       1.0  0.2924809597601695  0.5369668036316  0.9749538239422648  1.0000
  C   C57       1.0  0.5917401687419286  0.4830717029232474  0.10832174936378881  1.0000
  C   C58       1.0  0.4082558053457604  0.5169275930817534  0.8916781836524805  1.0000
  C   C59       1.0  0.5109991196405161  0.5985431550403035  0.0792117098927321  1.0000
  C   C60       1.0  0.48899825983119183  0.40145326946910836  0.920789549274893  1.0000
  C   C61       1.0  0.13327884363767592  0.9804616400180207  0.9707209637149103  1.0000
  C   C62       1.0  0.8667240706632172  0.0195405274825688  0.029278801941757075  1.0000
  C   C63       1.0  0.06396624450903939  0.8893663139552643  0.06447499502131383  1.0000
  C   C64       1.0  0.9360366697918538  0.11063585354532529  0.9355255564467483  1.0000
  C   C65       1.0  0.9336030831399285  0.9085383328372528  0.09317702463361123  1.0000
  C   C66       1.0  0.06640014989125831  0.09146192033293939  0.9068248780773157  1.0000
  N   N1        1.0  0.5624927056943249  0.3563669600623527  0.6500345159819291  1.0000
  N   N2        1.0  0.4375079337385657  0.6436265929514704  0.34996981115674686  1.0000
  N   N3        1.0  0.5365644031758379  0.9179319520737933  0.876889518155131  1.0000
  N   N4        1.0  0.4634376127387726  0.0820644724356114  0.12311570265601544  1.0000
  N   N5        1.0  0.7433922492282934  0.5472113427276497  0.915887809341484  1.0000
  N   N6        1.0  0.2566097666863172  0.452785081781755  0.08410876754437883  1.0000
  O   O1        1.0  0.6539489163784893  0.4356164096556299  0.4014039718679283  1.0000
  O   O2        1.0  0.34604954974694385  0.5643790576885834  0.5986027628879211  1.0000
  O   O3        1.0  0.40511551672805274  0.38706324790785357  0.5030520443466386  1.0000
  O   O4        1.0  0.5948864991865578  0.6129331766015511  0.496953176464508  1.0000
