data_image0
_chemical_formula_structural       Zn4H44C60N4O16
_chemical_formula_sum              "Zn4 H44 C60 N4 O16"
_cell_length_a       6.925524179
_cell_length_b       9.387896678817079
_cell_length_c       21.8416
_cell_angle_alpha    90.0
_cell_angle_beta     90.0
_cell_angle_gamma    111.10945174870395

_space_group_name_H-M_alt    "P 1"
_space_group_IT_number       1

loop_
  _space_group_symop_operation_xyz
  'x, y, z'

loop_
  _atom_site_type_symbol
  _atom_site_label
  _atom_site_symmetry_multiplicity
  _atom_site_fract_x
  _atom_site_fract_y
  _atom_site_fract_z
  _atom_site_occupancy
  Zn  Zn1       1.0  0.6724453892299707  0.4488260685209653  0.7456207420701801  1.0000
  Zn  Zn2       1.0  0.8275411426282631  0.0511662951284322  0.2456161636510146  1.0000
  Zn  Zn3       1.0  0.3275495531835518  0.5511655097244842  0.254386583400482  1.0000
  Zn  Zn4       1.0  0.17244513618111054  0.9488252831170243  0.7543801736136545  1.0000
  H   H1        1.0  0.667718446063418  0.7116146804961048  0.8258712731668042  1.0000
  H   H2        1.0  0.8322813149565179  0.7883818214676239  0.3258717310087178  1.0000
  H   H3        1.0  0.33227938421815406  0.2883768977493517  0.1741264376236202  1.0000
  H   H4        1.0  0.1677129693547599  0.2116143240756045  0.6741250640978649  1.0000
  H   H5        1.0  0.40642516523793404  0.7675400999041813  0.8898519339242555  1.0000
  H   H6        1.0  0.09357720057750638  0.7324575438839886  0.3898510182404209  1.0000
  H   H7        1.0  0.5935837868039117  0.2324594711123709  0.1101462347080826  1.0000
  H   H8        1.0  0.9064145249168476  0.2675363180103503  0.6101453190242481  1.0000
  H   H9        1.0  0.9951687750393461  0.3009518103433422  0.85804702952165  1.0000
  H   H10       1.0  0.5048184419898689  0.1990508297260476  0.3580410775767362  1.0000
  H   H11       1.0  0.004814085529261472  0.6990534697954303  0.1419575488975156  1.0000
  H   H12       1.0  0.49517118146820854  0.8009475994660704  0.6419543440041053  1.0000
  H   H13       1.0  0.2657515075605161  0.2679393820388327  0.793632792469417  1.0000
  H   H14       1.0  0.2342242039750744  0.23206211620610873  0.2936318767855823  1.0000
  H   H15       1.0  0.7342182298723402  0.7320567635043886  0.2063690388982522  1.0000
  H   H16       1.0  0.7657610876809287  0.7679363129860093  0.706365834004835  1.0000
  H   H17       1.0  0.0721163347667471  0.6791583206954854  0.9412616291846732  1.0000
  H   H18       1.0  0.42788392901241684  0.8208438903904565  0.4412584242912629  1.0000
  H   H19       1.0  0.9278812941932273  0.3208446757944046  0.058742491392571615  1.0000
  H   H20       1.0  0.572116916866733  0.179156822450544  0.5587383708153268  1.0000
  H   H21       1.0  0.7756345704138852  0.3603209722723903  0.9011926781920749  1.0000
  H   H22       1.0  0.7243650845801001  0.1396805259725511  0.40118901545674396  1.0000
  H   H23       1.0  0.2243662754652647  0.6396797405686101  0.09881052670134241  1.0000
  H   H24       1.0  0.2756283132385988  0.8603167613951186  0.5988022855468458  1.0000
  H   H25       1.0  0.8344121163012801  0.7196154443702625  0.9951674785729949  1.0000
  H   H26       1.0  0.6655969934937787  0.7803913340134514  0.4951624423119157  1.0000
  H   H27       1.0  0.16559306137994412  0.280385268470738  0.0048380155299981  1.0000
  H   H28       1.0  0.3344102126316457  0.2196253643697545  0.5048352684785016  1.0000
  H   H29       1.0  0.45069674809123944  0.2620041785825933  0.9421164200424883  1.0000
  H   H30       1.0  0.04929753326508291  0.2380087379067817  0.4421187092520711  1.0000
  H   H31       1.0  0.5493028822442128  0.7379999597317308  0.057884495641346206  1.0000
  H   H32       1.0  0.9507091154189027  0.762006818651983  0.5578812907479289  1.0000
  H   H33       1.0  0.8342342313312159  0.4593205769792803  0.5079005201084144  1.0000
  H   H34       1.0  0.6657747453691627  0.0406763539678892  0.0078945681635076  1.0000
  H   H35       1.0  0.16578151066882907  0.5406869868083817  0.4921058896784133  1.0000
  H   H36       1.0  0.33423309178978405  0.9593209333997805  0.9921026847849959  1.0000
  H   H37       1.0  0.31536151370981713  0.5243577554448393  0.594961907552559  1.0000
  H   H38       1.0  0.18464685623204966  0.9756433138166615  0.0949591605010625  1.0000
  H   H39       1.0  0.6846570154974856  0.4756555174650359  0.4050435865504341  1.0000
  H   H40       1.0  0.8153604234854512  0.0243528317265671  0.9050385502893548  1.0000
  H   H41       1.0  0.1343762873982541  0.5420925726980741  0.7206056332869366  1.0000
  H   H42       1.0  0.36560573561131093  0.9578959364945446  0.2206038019192746  1.0000
  H   H43       1.0  0.8656042156750202  0.4578990055473753  0.2793961980807254  1.0000
  H   H44       1.0  0.6343832026757851  0.0420922162775739  0.7793948245549771  1.0000
  C   C1        1.0  0.515087745316201  0.6247047129948129  0.8336655739506256  1.0000
  C   C2        1.0  0.984910014328257  0.8752906471444746  0.3336628268991291  1.0000
  C   C3        1.0  0.484909755914245  0.375289148899526  0.1663367152589572  1.0000
  C   C4        1.0  0.015087486902189107  0.1247032147498714  0.6663335103655399  1.0000
  C   C5        1.0  0.3697326909166421  0.654006211858615  0.8701963226137295  1.0000
  C   C6        1.0  0.13027023234024435  0.8459925737540033  0.37019174419456397  1.0000
  C   C7        1.0  0.6302704853891044  0.3459933591579443  0.1298068822796878  1.0000
  C   C8        1.0  0.8697281553827736  0.1540001463158944  0.629802761702436  1.0000
  C   C9        1.0  0.17448433616723244  0.5392323024676244  0.8802390850487144  1.0000
  C   C10       1.0  0.3255153701704856  0.9607687667938762  0.3802313017361385  1.0000
  C   C11       1.0  0.8255181820362693  0.46077183584670683  0.1197677825800341  1.0000
  C   C12       1.0  0.6744821310599676  0.0392250951004627  0.6197604571093721  1.0000
  C   C13       1.0  0.13979554185274173  0.3967360374179094  0.8523711632847438  1.0000
  C   C14       1.0  0.3602044881709432  0.10326203535370133  0.3523675005494127  1.0000
  C   C15       1.0  0.8602004147828808  0.6032635335986427  0.1476329572925081  1.0000
  C   C16       1.0  0.6397938995520818  0.8967306847161964  0.6476274631895081  1.0000
  C   C17       1.0  0.290441969196813  0.3766433526892712  0.8159493809977293  1.0000
  C   C18       1.0  0.2095405052282473  0.1233512946090087  0.3159466339462327  1.0000
  C   C19       1.0  0.7095394203690333  0.623347083731737  0.1840538238956881  1.0000
  C   C20       1.0  0.7904463310225793  0.876641425460889  0.6840487876346089  1.0000
  C   C21       1.0  0.020604434018089503  0.5688535121755507  0.9180124166727737  1.0000
  C   C22       1.0  0.47940104805572764  0.93114755708595  0.4180087539374427  1.0000
  C   C23       1.0  0.9793967409121862  0.4311449170165673  0.0819912460625574  1.0000
  C   C24       1.0  0.5206039012351696  0.0688497302817197  0.5819857519595644  1.0000
  C   C25       1.0  0.8240478766940528  0.46921220213152987  0.9256982089224266  1.0000
  C   C26       1.0  0.6759543371168562  0.0307915797623011  0.425695461870923  1.0000
  C   C27       1.0  0.17595552800202094  0.530790794358353  0.074304538129077  1.0000
  C   C28       1.0  0.3240496250206705  0.9692125585520303  0.5742981283422495  1.0000
  C   C29       1.0  0.66379595189062  0.4889372193894275  0.9636240019046198  1.0000
  C   C30       1.0  0.8362041598840193  0.0110711298021755  0.4636240019046198  1.0000
  C   C31       1.0  0.33620101896710963  0.5110703443982345  0.0363759980953802  1.0000
  C   C32       1.0  0.1638040333947828  0.9889387176343689  0.5363732510438766  1.0000
  C   C33       1.0  0.6884701821829253  0.6230319401853848  0.9969269650575043  1.0000
  C   C34       1.0  0.811534595810059  0.8769748381983291  0.4969246758479215  1.0000
  C   C35       1.0  0.3115288907110738  0.3769710563044981  0.003072577100582  1.0000
  C   C36       1.0  0.18847438330051605  0.12303957653598731  0.5030721192586611  1.0000
  C   C37       1.0  0.4716999486012625  0.3665005261594985  0.9676639989744376  1.0000
  C   C38       1.0  0.028298107115681096  0.1335112485054353  0.4676644568163511  1.0000
  C   C39       1.0  0.5282953499321152  0.6335036121548328  0.0323350853417352  1.0000
  C   C40       1.0  0.9717094280608691  0.8665031662288811  0.5323327961321525  1.0000
  C   C41       1.0  0.6799465645011367  0.4842408954541638  0.618927642663543  1.0000
  C   C42       1.0  0.8200589668897464  0.0157548936685643  0.11892031719288101  1.0000
  C   C43       1.0  0.3200729518595367  0.5157655265090568  0.3810805984909535  1.0000
  C   C44       1.0  0.17994519656937769  0.9842378264013334  0.8810741887041261  1.0000
  C   C45       1.0  0.5850847177776332  0.4918899773997865  0.5576665628891675  1.0000
  C   C46       1.0  0.9149318347127249  0.0081195136162577  0.0576619844700019  1.0000
  C   C47       1.0  0.41494893594089194  0.508133571930081  0.4423407625814946  1.0000
  C   C48       1.0  0.08508167752152222  0.9918834828736253  0.9423366420042499  1.0000
  C   C49       1.0  0.6877091833009885  0.4771307546457706  0.5040006226650036  1.0000
  C   C50       1.0  0.8123113719403178  0.0228810200191631  0.003995586403924301  1.0000
  C   C51       1.0  0.3123201386154619  0.5228927946840969  0.49600624496373774  1.0000
  C   C52       1.0  0.18770702953745655  0.9771231182951681  0.9960016665445722  1.0000
  C   C53       1.0  0.3960005062092407  0.5145197960414194  0.5532566295509511  1.0000
  C   C54       1.0  0.10401022122795203  0.9854949751133971  0.05325067760603731  1.0000
  C   C55       1.0  0.6040203804933884  0.48550717876177174  0.4467511537616319  1.0000
  C   C56       1.0  0.8960000740871197  0.014510305025375198  0.9467456596586318  1.0000
  C   C57       1.0  0.1051417250347839  0.6445975784458753  0.7357634056113085  1.0000
  C   C58       1.0  0.3948417419088059  0.8553909307467507  0.23576294776939483  1.0000
  C   C59       1.0  0.8948422233479931  0.3553951416240224  0.26423705223060523  1.0000
  C   C60       1.0  0.605149197753761  0.1445983638498163  0.7642365943886915  1.0000
  N   N1        1.0  0.4766377152918508  0.4883548889233467  0.8061332503113334  1.0000
  N   N2        1.0  0.0233499774278627  0.011638616550492  0.3061318767855852  1.0000
  N   N3        1.0  0.5233501081123464  0.5116309801998895  0.1938690388982494  1.0000
  N   N4        1.0  0.9766414190153654  0.9883575289927364  0.6938640026371701  1.0000
  O   O1        1.0  0.5546200465584121  0.4631434052154262  0.6653802834957149  1.0000
  O   O2        1.0  0.9453838395768486  0.0368638021517356  0.1653770786022974  1.0000
  O   O3        1.0  0.4453991407511354  0.536865300396677  0.3346252106072782  1.0000
  O   O4        1.0  0.05461543463874118  0.9631277760937209  0.8346220057138682  1.0000
  O   O5        1.0  0.8661170007285224  0.49783659910045946  0.6223930481283446  1.0000
  O   O6        1.0  0.6338712770461256  0.0021386371822913  0.1223861804995963  1.0000
  O   O7        1.0  0.13388726339139376  0.5021504118472251  0.3776147351842384  1.0000
  O   O8        1.0  0.36612553901333916  0.9978449482920625  0.8776092410812382  1.0000
  O   O9        1.0  0.2521680812109395  0.7723814355437497  0.7299286682294337  1.0000
  O   O10       1.0  0.2478226054027743  0.7276070736488762  0.2299309574390165  1.0000
  O   O11       1.0  0.7478178685473084  0.2276124263505892  0.270066295509487  1.0000
  O   O12       1.0  0.7521706646863962  0.2723810791232495  0.770069958244818  1.0000
  O   O13       1.0  0.9303302260213256  0.6313067419259326  0.7582310819720135  1.0000
  O   O14       1.0  0.5696545382169164  0.8686886182133478  0.2582315398139343  1.0000
  O   O15       1.0  0.069657396061281  0.3686905454417371  0.2417721229213967  1.0000
  O   O16       1.0  0.4303331845264822  0.1313029600321087  0.7417693758699002  1.0000
