data_image0
_chemical_formula_structural       Na4H18C18N2O22
_chemical_formula_sum              "Na4 H18 C18 N2 O22"
_cell_length_a       5.563640524244019
_cell_length_b       6.656048958620078
_cell_length_c       18.54502570489878
_cell_angle_alpha    81.62545822835315
_cell_angle_beta     85.62131501750956
_cell_angle_gamma    67.26264366300316

_space_group_name_H-M_alt    "P 1"
_space_group_IT_number       1

loop_
  _space_group_symop_operation_xyz
  'x, y, z'

loop_
  _atom_site_type_symbol
  _atom_site_label
  _atom_site_symmetry_multiplicity
  _atom_site_fract_x
  _atom_site_fract_y
  _atom_site_fract_z
  _atom_site_occupancy
  Na  Na1       1.0  0.28901509475543463  0.40905063261534014  0.4457227947661336  1.0000
  Na  Na2       1.0  0.7108914685395505  0.591008293397401  0.5542909864209234  1.0000
  Na  Na3       1.0  0.6963174877732001  0.05218160647299189  0.05338248740611109  1.0000
  Na  Na4       1.0  0.30380715558339244  0.9477196894790721  0.9466164825129224  1.0000
  H   H1        1.0  0.03573826984859353  0.5779946913173432  0.10236552212197131  1.0000
  H   H2        1.0  0.9643474400309062  0.4219754185652035  0.8976187090368267  1.0000
  H   H3        1.0  0.8644902948984594  0.07944657812966228  0.2618053113151433  1.0000
  H   H4        1.0  0.1354771263293485  0.9205609524598515  0.7382013668325696  1.0000
  H   H5        1.0  0.5104407402579697  0.8512690371775943  0.20737449975595004  1.0000
  H   H6        1.0  0.489593904082902  0.1487166918183149  0.7926341723716348  1.0000
  H   H7        1.0  0.8536768880709572  0.19968299240544235  0.46390035079219405  1.0000
  H   H8        1.0  0.1462484399870263  0.8003543847419363  0.536107730748263  1.0000
  H   H9        1.0  0.743403657767061  0.11027889150835789  0.5357221924871354  1.0000
  H   H10       1.0  0.2565107638476078  0.8897585996063812  0.4642871749610719  1.0000
  H   H11       1.0  0.8752916906389104  0.8215694909341451  0.4019129944256363  1.0000
  H   H12       1.0  0.12466649758858495  0.17846272739596705  0.5980963346411272  1.0000
  H   H13       1.0  0.737798128962467  0.6567847255945762  0.40327046307791653  1.0000
  H   H14       1.0  0.26208643095473155  0.3432792660780634  0.5967418630919993  1.0000
  H   H15       1.0  0.2525726708811503  0.41000496320716445  0.9706591637791746  1.0000
  H   H16       1.0  0.7475308691629294  0.5899555864926144  0.029346794646634984  1.0000
  H   H17       1.0  0.13170470824491795  0.29243533210739503  0.03525593347917069  1.0000
  H   H18       1.0  0.8683622784080001  0.7075515513453041  0.9647412594095922  1.0000
  C   C1        1.0  0.11056738879777582  0.32120680057175116  0.2751672247160428  1.0000
  C   C2        1.0  0.889403800501675  0.6788217492035571  0.7248269442176252  1.0000
  C   C3        1.0  0.03020460279793724  0.3692661260505189  0.2014918472014386  1.0000
  C   C4        1.0  0.9698043609875453  0.6307342398431786  0.7985003756974223  1.0000
  C   C5        1.0  0.09691586195755522  0.5306559167492465  0.15853526907714868  1.0000
  C   C6        1.0  0.9031136224401878  0.46933108465434253  0.8414518658604919  1.0000
  C   C7        1.0  0.23848843462383246  0.6385718831486995  0.18351684631908677  1.0000
  C   C8        1.0  0.7615333608977366  0.36140243407298556  0.8164889053479385  1.0000
  C   C9        1.0  0.31617522503541556  0.5736338969511933  0.25690268357551815  1.0000
  C   C10       1.0  0.6838318754824542  0.4263535717019947  0.7430994249720513  1.0000
  C   C11       1.0  0.05805848500309453  0.16011675712100265  0.33598362589139436  1.0000
  C   C12       1.0  0.9418921300680768  0.8399333570459004  0.6640162772706759  1.0000
  C   C13       1.0  0.879232702925499  0.27167481693511764  0.16253706743732718  1.0000
  C   C14       1.0  0.12077983032528297  0.7283466513843276  0.8374469599151197  1.0000
  C   C15       1.0  0.2847437863958858  0.810403142194694  0.12671172122513497  1.0000
  C   C16       1.0  0.7153885289399682  0.1894944901612661  0.8732700354724086  1.0000
  C   C17       1.0  0.48099410049434255  0.6552654820132489  0.2982109114854694  1.0000
  C   C18       1.0  0.5189565142042057  0.34474240681721097  0.7018074012760279  1.0000
  N   N1        1.0  0.24746186074760604  0.42311857911615636  0.2992590545301397  1.0000
  N   N2        1.0  0.7524905139509528  0.5769104276662844  0.700751097266746  1.0000
  O   O1        1.0  0.13509940494005693  0.14902293575081416  0.3984427414006504  1.0000
  O   O2        1.0  0.8648623222567835  0.8509826715499855  0.6015463537925498  1.0000
  O   O3        1.0  0.9357281926721653  0.040222771791050584  0.32155517606344824  1.0000
  O   O4        1.0  0.0642023317541104  0.9598241717980399  0.6784415128155812  1.0000
  O   O5        1.0  0.7984382227978273  0.12737628109478288  0.19736255174795755  1.0000
  O   O6        1.0  0.20157581322698817  0.8726337032655989  0.8026209745317414  1.0000
  O   O7        1.0  0.8363286968840812  0.3331235059404846  0.0953528617828212  1.0000
  O   O8        1.0  0.1637023439037222  0.666843811602547  0.9046331258148894  1.0000
  O   O9        1.0  0.16680984139387806  0.8565054403613883  0.06803129035111512  1.0000
  O   O10       1.0  0.8333906459190459  0.14339660620301936  0.9319537527403767  1.0000
  O   O11       1.0  0.44159472412285794  0.9000952586436171  0.14046376580615316  1.0000
  O   O12       1.0  0.5585284917899429  0.09984544152832336  0.8595401602532035  1.0000
  O   O13       1.0  0.5625054688227991  0.8050764066040584  0.2662461662620075  1.0000
  O   O14       1.0  0.43745003158835505  0.19493775932676263  0.7337598551974054  1.0000
  O   O15       1.0  0.5360266436705671  0.5723705608130273  0.3622374440321607  1.0000
  O   O16       1.0  0.4638677538477225  0.42768008669191443  0.6377662272081961  1.0000
  O   O17       1.0  0.7018267396397205  0.2366376789326381  0.49742092153744005  1.0000
  O   O18       1.0  0.29809656760046005  0.7633963827796462  0.5025841391103539  1.0000
  O   O19       1.0  0.8598126732647274  0.6918656020041993  0.43101687163994734  1.0000
  O   O20       1.0  0.14010215434437612  0.3081833159234008  0.5689908054653827  1.0000
  O   O21       1.0  0.28545876439348933  0.27105819933036196  0.002676620482020598  1.0000
  O   O22       1.0  0.7146085030857207  0.7288910988161772  0.9973247102129077  1.0000
