data_image0
_chemical_formula_structural       Zn2H28C28N12O8
_chemical_formula_sum              "Zn2 H28 C28 N12 O8"
_cell_length_a       7.893860787594607
_cell_length_b       10.093176545373533
_cell_length_c       10.55072589902582
_cell_angle_alpha    79.49099662563758
_cell_angle_beta     72.48325680075715
_cell_angle_gamma    84.48299321790107

_space_group_name_H-M_alt    "P 1"
_space_group_IT_number       1

loop_
  _space_group_symop_operation_xyz
  'x, y, z'

loop_
  _atom_site_type_symbol
  _atom_site_label
  _atom_site_symmetry_multiplicity
  _atom_site_fract_x
  _atom_site_fract_y
  _atom_site_fract_z
  _atom_site_occupancy
  Zn  Zn1       1.0  0.47369437404775266  0.5166233810832923  0.13941429804322072  1.0000
  Zn  Zn2       1.0  0.5263155465472308  0.483385830396557  0.8605838554255031  1.0000
  H   H1        1.0  0.2645077357167692  0.6744937845828715  0.5992458325016871  1.0000
  H   H2        1.0  0.7354753712060004  0.32548779663995486  0.4007579863332325  1.0000
  H   H3        1.0  0.9303543690490343  0.376253151168889  0.11627513278947536  1.0000
  H   H4        1.0  0.0696499826348145  0.6237589735789228  0.8837247755457226  1.0000
  H   H5        1.0  0.0316102254604615  0.2402278994827256  0.20200450960686567  1.0000
  H   H6        1.0  0.96838759754403  0.7597830246275165  0.7980008590885034  1.0000
  H   H7        1.0  0.09714722472343601  0.1152570274762255  0.012917060881704898  1.0000
  H   H8        1.0  0.9028561915862098  0.8847508671241544  0.9870922534852439  1.0000
  H   H9        1.0  0.032782379547398884  0.25544134465570784  0.9084659137277881  1.0000
  H   H10       1.0  0.9672266699696764  0.7445627447196586  0.0915360829252593  1.0000
  H   H11       1.0  0.8003946494820228  0.08231289186956303  0.998168481494531  1.0000
  H   H12       1.0  0.19961141214921702  0.9176950874557264  0.0018383237687302906  1.0000
  H   H13       1.0  0.7802780351213701  0.10495557806621755  0.1662566472135225  1.0000
  H   H14       1.0  0.21972341736694997  0.895059428432575  0.8337482074225163  1.0000
  H   H15       1.0  0.28341520677314236  0.26383856761341923  0.3329554591452536  1.0000
  H   H16       1.0  0.7165926845123494  0.73616293914386  0.6670244528896133  1.0000
  H   H17       1.0  0.0621638112925353  0.1415136145102167  0.5300116982642676  1.0000
  H   H18       1.0  0.9378396836298181  0.858477020081807  0.4699557447813304  1.0000
  H   H19       1.0  0.9219994662771142  0.24589188900635855  0.7353230782064557  1.0000
  H   H20       1.0  0.07800142760854098  0.7540833211512848  0.2646587446611335  1.0000
  H   H21       1.0  0.0076034861509412955  0.4694260694276977  0.7544803441283463  1.0000
  H   H22       1.0  0.9923880685501487  0.5305498136444198  0.24551202309088171  1.0000
  H   H23       1.0  0.5649412771303017  0.7714611813836072  0.42112939849400993  1.0000
  H   H24       1.0  0.43504849638761556  0.2285354863934046  0.5788790790156071  1.0000
  H   H25       1.0  0.6221704241265158  0.7154145315878111  0.26191881631765307  1.0000
  H   H26       1.0  0.37782696312029873  0.28458626817052146  0.7380891838358109  1.0000
  H   H27       1.0  0.5496448658503681  0.8890845360817253  0.07508802930450281  1.0000
  H   H28       1.0  0.4503568689715536  0.11092736832564037  0.9249210387621147  1.0000
  C   C1        1.0  0.2101916646101998  0.36768833226800274  0.047483548025780885  1.0000
  C   C2        1.0  0.7898142237060809  0.6323216440815286  0.9525239319459046  1.0000
  C   C3        1.0  0.03641803978688068  0.2960901122892637  0.10128981336988829  1.0000
  C   C4        1.0  0.9635889734812366  0.7039220196888608  0.8987113862203272  1.0000
  C   C5        1.0  0.0039084647796911905  0.20340197894025647  0.012925285520850597  1.0000
  C   C6        1.0  0.9960949312016043  0.7966060125283718  0.9870792783977151  1.0000
  C   C7        1.0  0.8124403815537987  0.15469945428370838  0.060629099692746956  1.0000
  C   C8        1.0  0.18756557919012107  0.8453095913614774  0.9393747176108603  1.0000
  C   C9        1.0  0.6824245498766005  0.2733883465967182  0.04615180529028605  1.0000
  C   C10       1.0  0.31758147922928975  0.726619787717766  0.9538473992555652  1.0000
  C   C11       1.0  0.2724438374317089  0.43468659612670285  0.4345797901684918  1.0000
  C   C12       1.0  0.7275553355014069  0.5653085261524282  0.5654116300523883  1.0000
  C   C13       1.0  0.22621703070281277  0.30737662255339865  0.4243361045418439  1.0000
  C   C14       1.0  0.7737836178777044  0.6926166419321832  0.5756486359703814  1.0000
  C   C15       1.0  0.10195688709470829  0.24031073906136416  0.5351758967982007  1.0000
  C   C16       1.0  0.8980427569952455  0.7596786246288117  0.4648020982212841  1.0000
  C   C17       1.0  0.0240255392497062  0.2986411471898264  0.6523011520190352  1.0000
  C   C18       1.0  0.9759708545116793  0.7013399850741282  0.34768360836033463  1.0000
  C   C19       1.0  0.07163004188310397  0.4238507104160336  0.6651112353205235  1.0000
  C   C20       1.0  0.92836743286216  0.5761333725653234  0.3348775579731864  1.0000
  C   C21       1.0  0.19961373988719805  0.48940955879365333  0.5550119017846525  1.0000
  C   C22       1.0  0.8003809284185196  0.5105763783660963  0.444982925590203  1.0000
  C   C23       1.0  0.3929691652844483  0.6285068894496463  0.4039259181545205  1.0000
  C   C24       1.0  0.6070247454651537  0.3714879277641289  0.5960771709014664  1.0000
  C   C25       1.0  0.5111773660790745  0.744687467471941  0.34491068416270554  1.0000
  C   C26       1.0  0.4888136454749911  0.2553102314928212  0.6550973511941222  1.0000
  C   C27       1.0  0.45046832652279545  0.9239095696070833  0.1601536976804709  1.0000
  C   C28       1.0  0.5495337508633753  0.07609836012544241  0.8398530708796201  1.0000
  N   N1        1.0  0.38976214359101385  0.5252906578709968  0.34189497290466164  1.0000
  N   N2        1.0  0.610238211213293  0.47470634880564705  0.6581034681902053  1.0000
  N   N3        1.0  0.2809547557211971  0.6108709956138085  0.5317092262950212  1.0000
  N   N4        1.0  0.7190315534965136  0.38911963149769957  0.4682971903861457  1.0000
  N   N5        1.0  0.4219961725089902  0.864460863504661  0.2892357705802553  1.0000
  N   N6        1.0  0.5779974119390444  0.13553785088936368  0.7107734183409634  1.0000
  N   N7        1.0  0.28719591812887296  0.9333253830561717  0.36776752601969787  1.0000
  N   N8        1.0  0.7127951861811823  0.06667128833598923  0.6322415971174279  1.0000
  N   N9        1.0  0.236865631207877  0.031553024950525796  0.2865346156327817  1.0000
  N   N10       1.0  0.763127796187881  0.9684476089731434  0.7134790483555663  1.0000
  N   N11       1.0  0.3366517136350566  0.0291752223844242  0.1561838459157414  1.0000
  N   N12       1.0  0.6633476460018815  0.9708335533275447  0.8438290944161153  1.0000
  O   O1        1.0  0.2571779650633913  0.41856432589744946  0.1326320490618258  1.0000
  O   O2        1.0  0.7428195113111897  0.5814505922612838  0.8673746690503918  1.0000
  O   O3        1.0  0.29457569481609625  0.37755837247016905  0.9223322817079164  1.0000
  O   O4        1.0  0.7054387868881804  0.6224446262986376  0.07767718559416184  1.0000
  O   O5        1.0  0.6536772801016539  0.30674989276347736  0.9317848870415232  1.0000
  O   O6        1.0  0.34633909674504076  0.6932614500582872  0.06821146873510738  1.0000
  O   O7        1.0  0.6185333485664657  0.3353089603335917  0.14679795707552054  1.0000
  O   O8        1.0  0.38146224004263735  0.6646969930461991  0.8532030084592532  1.0000
