data_image0
_chemical_formula_structural       Zn16H48C112S8O56F8
_chemical_formula_sum              "Zn16 H48 C112 S8 O56 F8"
_cell_length_a       18.54481037469472
_cell_length_b       19.721301972031533
_cell_length_c       32.80203324911986
_cell_angle_alpha    85.99728486159898
_cell_angle_beta     73.5886510295351
_cell_angle_gamma    61.96878368258964

_space_group_name_H-M_alt    "P 1"
_space_group_IT_number       1

loop_
  _space_group_symop_operation_xyz
  'x, y, z'

loop_
  _atom_site_type_symbol
  _atom_site_label
  _atom_site_symmetry_multiplicity
  _atom_site_fract_x
  _atom_site_fract_y
  _atom_site_fract_z
  _atom_site_occupancy
  Zn  Zn1       1.0  0.8737123024789143  0.5561750073848301  0.5186761703523287  1.0000
  Zn  Zn2       1.0  0.038441521152776804  0.48486692561749567  0.4379799920591123  1.0000
  Zn  Zn3       1.0  0.04192806175282024  0.39818579874454946  0.5232165325069642  1.0000
  Zn  Zn4       1.0  0.04593403981049706  0.5604663723109341  0.5184277692952717  1.0000
  Zn  Zn5       1.0  0.6254400079885017  0.19175743232403158  0.73170804584943  1.0000
  Zn  Zn6       1.0  0.463134521118903  0.35067976680068114  0.7254386887062764  1.0000
  Zn  Zn7       1.0  0.4579680241150256  0.2661902102653002  0.8125831861435129  1.0000
  Zn  Zn8       1.0  0.45259006277384384  0.1932873114131368  0.7297765849945106  1.0000
  Zn  Zn9       1.0  0.46206586890800605  0.7636855000678794  0.31237064218554866  1.0000
  Zn  Zn10      1.0  0.452655493383503  0.6915992629494595  0.23109167078772688  1.0000
  Zn  Zn11      1.0  0.6257919841487267  0.6919700214735939  0.2294269260429188  1.0000
  Zn  Zn12      1.0  0.4589969553461233  0.850699587314196  0.22582269279251205  1.0000
  Zn  Zn13      1.0  0.03726368276456797  0.8990736304774598  0.024093986584460863  1.0000
  Zn  Zn14      1.0  0.04877670695818639  0.0572806933979493  0.0189938071430831  1.0000
  Zn  Zn15      1.0  0.8751968333468199  0.05795588445798931  0.019378402755385996  1.0000
  Zn  Zn16      1.0  0.037283309688455044  0.9857825079238366  0.9374503630858793  1.0000
  H   H1        1.0  0.8032419139366027  0.9657722489382793  0.6552667749495666  1.0000
  H   H2        1.0  0.3112389271517416  0.9761426213651416  0.4015275544306149  1.0000
  H   H3        1.0  0.8139271872550039  0.24306146105445242  0.6521684033144907  1.0000
  H   H4        1.0  0.5424173874926694  0.48453422531024154  0.6209635182596641  1.0000
  H   H5        1.0  0.5475926873776302  0.5247415167506873  0.666376949536115  1.0000
  H   H6        1.0  0.6458585353956326  0.5710377494108698  0.6181644044761467  1.0000
  H   H7        1.0  0.6404341748277601  0.5308942463299003  0.5728470841235306  1.0000
  H   H8        1.0  0.2914371477640856  0.6008001547793002  0.29611705162706403  1.0000
  H   H9        1.0  0.35222989987611447  0.6743176086884476  0.43277520779487577  1.0000
  H   H10       1.0  0.261462262514087  0.762614538799191  0.430147254134951  1.0000
  H   H11       1.0  0.16492151894551207  0.7136981648888182  0.4772363179380789  1.0000
  H   H12       1.0  0.25548554085531816  0.6254177832469948  0.47983810875645355  1.0000
  H   H13       1.0  0.8125058672430401  0.6005243089228712  0.29559348056974943  1.0000
  H   H14       1.0  0.5462308087806422  0.7626779833886489  0.42950159472713517  1.0000
  H   H15       1.0  0.5409374319237941  0.6744865262039141  0.4320406741540308  1.0000
  H   H16       1.0  0.6392183515554708  0.6252782430371936  0.47916270834102886  1.0000
  H   H17       1.0  0.644631627782566  0.7133395645169145  0.4766275046398716  1.0000
  H   H18       1.0  0.30474157919634604  0.4587537328943868  0.6453238494118024  1.0000
  H   H19       1.0  0.3324814805403308  0.1779492743588094  0.6304787268677217  1.0000
  H   H20       1.0  0.24184122669292663  0.2180945118792721  0.675932337827767  1.0000
  H   H21       1.0  0.1455524906395383  0.268223364625662  0.6277147259826775  1.0000
  H   H22       1.0  0.2362386539908883  0.2281107902206472  0.582344144563322  1.0000
  H   H23       1.0  0.18884302332373448  0.6595247642259848  0.9623733340916867  1.0000
  H   H24       1.0  0.686751372167798  0.1498652093465722  0.9544215254324153  1.0000
  H   H25       1.0  0.9577141135085016  0.0763516033791305  0.8178570554346505  1.0000
  H   H26       1.0  0.9527719258219423  0.9880085371932595  0.820416568180981  1.0000
  H   H27       1.0  0.8545793168880705  0.03687095510358059  0.773296831499344  1.0000
  H   H28       1.0  0.8594856245995501  0.12519720896066394  0.7707725079448905  1.0000
  H   H29       1.0  0.195277273451083  0.05240219237042959  0.8435800324378204  1.0000
  H   H30       1.0  0.16737271343092897  0.2152354246661403  0.9765872724623316  1.0000
  H   H31       1.0  0.258221952611926  0.12701838825800135  0.9791783340002734  1.0000
  H   H32       1.0  0.3541966615264585  0.1743893822333789  0.9299577256606208  1.0000
  H   H33       1.0  0.26341887592825947  0.2625239397472328  0.9274600444144594  1.0000
  H   H34       1.0  0.9256671279591089  0.28355509130636136  0.09443724616136956  1.0000
  H   H35       1.0  0.19503698692629012  0.7918934827835002  0.10420593488202456  1.0000
  H   H36       1.0  0.2580498561267603  0.03265324843821559  0.07372354062319889  1.0000
  H   H37       1.0  0.16711783298374167  0.07281599850109188  0.11911470519648047  1.0000
  H   H38       1.0  0.26301704036807655  0.0227541550686894  0.16738392827776488  1.0000
  H   H39       1.0  0.35390005004289554  0.9825305476756159  0.12209139812514981  1.0000
  H   H40       1.0  0.6869244722265078  0.0063236128929489  0.09773553148931308  1.0000
  H   H41       1.0  0.9529865497223683  0.7244079030302188  0.08369410687831896  1.0000
  H   H42       1.0  0.9580636298721431  0.7647154795534448  0.12912374901348028  1.0000
  H   H43       1.0  0.859834230231691  0.7186349244755165  0.1771513562144235  1.0000
  H   H44       1.0  0.85485305494629  0.6781491770573209  0.13179795146639606  1.0000
  H   H45       1.0  0.621867675183218  0.8214339132837053  0.6070649095320276  1.0000
  H   H46       1.0  0.21376020741212196  0.261127854652095  0.31177992656204606  1.0000
  H   H47       1.0  0.28584799900445296  0.6522728307367345  0.7752267942958467  1.0000
  H   H48       1.0  0.5509993961797974  0.4296301046958463  0.14324408392958077  1.0000
  C   C1        1.0  0.8621482478291966  0.5681958302974836  0.4306415608229981  1.0000
  C   C2        1.0  0.12374916532078115  0.31593850589192135  0.4378500400941262  1.0000
  C   C3        1.0  0.8639168122303147  0.42940105503915754  0.5684557060655137  1.0000
  C   C4        1.0  0.1380851844111319  0.4325523037153545  0.5684459950622694  1.0000
  C   C5        1.0  0.8740730929858245  0.6842388565041232  0.560954404513559  1.0000
  C   C6        1.0  0.13732747066757175  0.5695388906015423  0.430920059700078  1.0000
  C   C7        1.0  0.6399267563094782  0.3172388665053916  0.6809565622856011  1.0000
  C   C8        1.0  0.3769145819975323  0.4352921934988743  0.8103708138040131  1.0000
  C   C9        1.0  0.6360607475621193  0.18159958360183737  0.819585506037569  1.0000
  C   C10       1.0  0.3614173509253433  0.18122210319602058  0.8182490582620827  1.0000
  C   C11       1.0  0.6234944833533191  0.06596116206099369  0.688632528283321  1.0000
  C   C12       1.0  0.3629203545208029  0.3198443112583647  0.6803879223421914  1.0000
  C   C13       1.0  0.36225188409206055  0.6809349851598016  0.3190974354039183  1.0000
  C   C14       1.0  0.6220844622055849  0.5655529750660406  0.18833202275925484  1.0000
  C   C15       1.0  0.6385093972382806  0.6808543662469119  0.31820549408558907  1.0000
  C   C16       1.0  0.636439691018062  0.819579196314912  0.18070488553862407  1.0000
  C   C17       1.0  0.376831649459142  0.9331823539378091  0.311654008192967  1.0000
  C   C18       1.0  0.36116380548277505  0.818458463156496  0.1811214521896431  1.0000
  C   C19       1.0  0.13769486760747163  0.9304244015525928  0.06874338576523796  1.0000
  C   C20       1.0  0.8787686105511414  0.1839158748689655  0.061246975858452346  1.0000
  C   C21       1.0  0.8609193150667735  0.9318310151477293  0.06897690185692083  1.0000
  C   C22       1.0  0.8608295406841863  0.06967806616835759  0.9314650216621981  1.0000
  C   C23       1.0  0.12183812343075592  0.8158127301866926  0.9388908761319852  1.0000
  C   C24       1.0  0.1377079827755523  0.06855355821003428  0.9306081258917513  1.0000
  C   C25       1.0  0.7354413686709409  0.8027922175313408  0.6009229191038015  1.0000
  C   C26       1.0  0.7602084615720913  0.9473514816028299  0.6491586692064927  1.0000
  C   C27       1.0  0.8238146815305214  0.7585105085352878  0.586034030639773  1.0000
  C   C28       1.0  0.6725971857121498  0.9911018179702393  0.6637215471269327  1.0000
  C   C29       1.0  0.7834808020722122  0.87872580104915  0.6262088820939054  1.0000
  C   C30       1.0  0.7126535097829887  0.8716483136359302  0.623863829117603  1.0000
  C   C31       1.0  0.20196398558864812  0.22768472737255513  0.3683725144236546  1.0000
  C   C32       1.0  0.29880189913575356  0.0223473406680554  0.3801199403411743  1.0000
  C   C33       1.0  0.17294975719846659  0.241962290000437  0.41267333312482174  1.0000
  C   C34       1.0  0.32744690618119426  0.008271213835371298  0.336273247895086  1.0000
  C   C35       1.0  0.2530909612500167  0.1021362505310393  0.39197413952534527  1.0000
  C   C36       1.0  0.24786918743116362  0.14737030622694652  0.35670544910185936  1.0000
  C   C37       1.0  0.6964101188796266  0.3458510246082724  0.6525399221889997  1.0000
  C   C38       1.0  0.8083966783623493  0.39987273077096575  0.5971271765723499  1.0000
  C   C39       1.0  0.6652403227645891  0.4181993191202409  0.6363490787420429  1.0000
  C   C40       1.0  0.8385256425103195  0.32673136657673046  0.6140725237634468  1.0000
  C   C41       1.0  0.7195898441053217  0.4436651630908059  0.6097119744708974  1.0000
  C   C42       1.0  0.7854929205936615  0.300178954196788  0.6406154450238188  1.0000
  C   C43       1.0  0.585343476160908  0.4916010167879745  0.635461712871489  1.0000
  C   C44       1.0  0.6467699089368683  0.5206068725910953  0.6053007039893855  1.0000
  C   C45       1.0  0.3055577304535718  0.6526494572123127  0.3475305362034219  1.0000
  C   C46       1.0  0.19444812568296754  0.5970174734274211  0.40199894360804217  1.0000
  C   C47       1.0  0.28044667719777305  0.6644759588819794  0.3917820591175171  1.0000
  C   C48       1.0  0.2209697713193038  0.5855149128751407  0.3569240278232825  1.0000
  C   C49       1.0  0.22695234635620673  0.6375462259255825  0.4177320180810467  1.0000
  C   C50       1.0  0.2742124513525681  0.6119411203464652  0.33048050314618377  1.0000
  C   C51       1.0  0.2877736923112907  0.6996882010323375  0.4290094199320364  1.0000
  C   C52       1.0  0.22723362170138733  0.6690946550945825  0.4584894524485817  1.0000
  C   C53       1.0  0.6949265364006507  0.6525886572952758  0.34677777682423977  1.0000
  C   C54       1.0  0.8067707060940846  0.5963946421293542  0.4015463183781378  1.0000
  C   C55       1.0  0.6637143974936348  0.6644559574946386  0.39106531440797426  1.0000
  C   C56       1.0  0.8370692998269719  0.585125922244039  0.3564808136754535  1.0000
  C   C57       1.0  0.7180349442316113  0.637183952413892  0.4171094110817179  1.0000
  C   C58       1.0  0.7840103561787474  0.6117805185106134  0.3299329220532527  1.0000
  C   C59       1.0  0.5839011678513304  0.6997384663255274  0.42829034872404725  1.0000
  C   C60       1.0  0.6454195457376956  0.6689081350614144  0.45783044046027743  1.0000
  C   C61       1.0  0.3054649648351456  0.34835273314990894  0.6523679820551107  1.0000
  C   C62       1.0  0.19455364517738624  0.40541527578178455  0.5970869348401775  1.0000
  C   C63       1.0  0.27271117295148883  0.30496250023459487  0.6399691815682969  1.0000
  C   C64       1.0  0.2283413923728475  0.4485365143392386  0.610286353635004  1.0000
  C   C65       1.0  0.21944937994010877  0.332842460180153  0.6133613796792614  1.0000
  C   C66       1.0  0.2815243031057549  0.42185332151007765  0.6367535171326748  1.0000
  C   C67       1.0  0.2707302003195339  0.22884966566351037  0.6436769184675198  1.0000
  C   C68       1.0  0.2104584459792705  0.2602434091250032  0.6135280094613902  1.0000
  C   C69       1.0  0.29839441880608303  0.5836708794738359  0.8199474731604111  1.0000
  C   C70       1.0  0.20120878371479736  0.6685230793004776  0.9285471032722439  1.0000
  C   C71       1.0  0.32761981088869874  0.5100401828596831  0.8348286319423648  1.0000
  C   C72       1.0  0.17208359366567547  0.7413261058226369  0.9136652931665308  1.0000
  C   C73       1.0  0.24717424764671142  0.610856891049515  0.8945502691542939  1.0000
  C   C74       1.0  0.25222493650106514  0.6412121003456406  0.8543111898589258  1.0000
  C   C75       1.0  0.8041604434604039  0.09793300333261361  0.9030544196327593  1.0000
  C   C76       1.0  0.6917942033183592  0.15374464967766238  0.8485554710624611  1.0000
  C   C77       1.0  0.8350945164575097  0.08605887450168129  0.8587920159200021  1.0000
  C   C78       1.0  0.66186638769495  0.1650191441751332  0.8936134155427238  1.0000
  C   C79       1.0  0.7806026771455734  0.113143407427799  0.8328141292448519  1.0000
  C   C80       1.0  0.71507351395627  0.13861815211311065  0.92007397618638  1.0000
  C   C81       1.0  0.9149113266827769  0.05093380574507479  0.8216077769025674  1.0000
  C   C82       1.0  0.8533704139835265  0.08154248878944509  0.7920896956519525  1.0000
  C   C83       1.0  0.19462610280697135  0.09691187682576438  0.9023324890806703  1.0000
  C   C84       1.0  0.30499261160316854  0.15185228601796305  0.8461369779302428  1.0000
  C   C85       1.0  0.22712651640014056  0.1374613176406996  0.9178180354039609  1.0000
  C   C86       1.0  0.2713446082807565  0.1103651619130801  0.8311621524991748  1.0000
  C   C87       1.0  0.2801296391663683  0.16368026737566044  0.890568063920419  1.0000
  C   C88       1.0  0.21840074718985383  0.0837790348917764  0.8577579024028593  1.0000
  C   C89       1.0  0.2291236769098504  0.1700149351320093  0.957715415052078  1.0000
  C   C90       1.0  0.28924101178411393  0.19968161481910576  0.9269145778243483  1.0000
  C   C91       1.0  0.6409620428991474  0.4470159257762417  0.14909629731889842  1.0000
  C   C92       1.0  0.8580818985942855  0.3020824988073088  0.10063878311812856  1.0000
  C   C93       1.0  0.6709047463932765  0.4910975571620142  0.16364457749176597  1.0000
  C   C94       1.0  0.82836488480379  0.2586123323935112  0.0861567419877503  1.0000
  C   C95       1.0  0.7901114919251384  0.3707501709544517  0.12354918867760033  1.0000
  C   C96       1.0  0.7096590147112919  0.378069714637121  0.1260945411364105  1.0000
  C   C97       1.0  0.1945235994878943  0.9022150408933314  0.09704577009432565  1.0000
  C   C98       1.0  0.30468511729031905  0.8455620133197641  0.1525851083322606  1.0000
  C   C99       1.0  0.22695209219539  0.9457930099041078  0.10956608294549135  1.0000
  C   C100      1.0  0.2711083931247772  0.8022477995595594  0.13937500253223328  1.0000
  C   C101      1.0  0.27989066573574933  0.9180610815305172  0.13630318282633877  1.0000
  C   C102      1.0  0.21820052561460573  0.8288313235480373  0.11277590434795562  1.0000
  C   C103      1.0  0.22889963049424009  0.021934722506088602  0.10593795302430206  1.0000
  C   C104      1.0  0.2889483444789037  0.9905781026805016  0.13620383727013763  1.0000
  C   C105      1.0  0.8043771503895556  0.9033125850002507  0.0973628979347366  1.0000
  C   C106      1.0  0.6921547009213571  0.8493385330318545  0.15251305470033566  1.0000
  C   C107      1.0  0.8354080244062914  0.8310023127846549  0.1135593179208739  1.0000
  C   C108      1.0  0.6621483896667045  0.9226308739515404  0.13569771118154958  1.0000
  C   C109      1.0  0.780954721114064  0.8055319192055421  0.14009244673395216  1.0000
  C   C110      1.0  0.7152858125578736  0.9491676803322944  0.10925948953747161  1.0000
  C   C111      1.0  0.9152132829688073  0.7576490300433036  0.11457504686776325  1.0000
  C   C112      1.0  0.8536893325384656  0.7286946559478977  0.14466524379974288  1.0000
  S   S1        1.0  0.8781878407188728  0.801067208028023  0.6001737267136987  1.0000
  S   S2        1.0  0.6176069610765256  0.9493180548810257  0.6497130326949472  1.0000
  S   S3        1.0  0.2017664339567702  0.1577898376637492  0.43954118755065946  1.0000
  S   S4        1.0  0.29914596954536415  0.0918076998447148  0.30901587360880706  1.0000
  S   S5        1.0  0.2988111861620554  0.5116724992136383  0.8903810321590127  1.0000
  S   S6        1.0  0.20039793426435887  0.7404921717838562  0.8582618047749617  1.0000
  S   S7        1.0  0.7819107733083759  0.44827932684592037  0.1492799923243736  1.0000
  S   S8        1.0  0.7176319596275961  0.3006166767771602  0.10026965104024294  1.0000
  O   O1        1.0  0.9989306896302925  0.5003853817639126  0.5004979753808241  1.0000
  O   O2        1.0  0.8233307496925166  0.5828625748329798  0.4705461876120863  1.0000
  O   O3        1.0  0.10273266716525606  0.3764773330497703  0.41740412925567216  1.0000
  O   O4        1.0  0.9440908579109506  0.38655244770538383  0.5589316086263094  1.0000
  O   O5        1.0  0.9422004723156617  0.5323871690042452  0.41381457607845107  1.0000
  O   O6        1.0  0.8245902200431136  0.4964962881340965  0.5559200753650301  1.0000
  O   O7        1.0  0.10619568117502355  0.3129934320857685  0.47854638233825136  1.0000
  O   O8        1.0  0.11583335221190795  0.38443327997119775  0.559313701736748  1.0000
  O   O9        1.0  0.9552767285747094  0.657124170979465  0.5510278138825839  1.0000
  O   O10       1.0  0.11699198957168742  0.4997756652227707  0.5555608856148451  1.0000
  O   O11       1.0  0.8335280377158513  0.6534203723532741  0.5512504669851238  1.0000
  O   O12       1.0  0.11218383643154094  0.5315993289945239  0.4140590764474437  1.0000
  O   O13       1.0  0.11854388501200239  0.5868680007447863  0.47076662439720696  1.0000
  O   O14       1.0  0.5005422803670143  0.2500306397995047  0.7499884603467135  1.0000
  O   O15       1.0  0.6755453212977756  0.2502077342609113  0.6941088800273716  1.0000
  O   O16       1.0  0.39864472852785593  0.435497562998698  0.7698391333132972  1.0000
  O   O17       1.0  0.5559340625611142  0.2185901597618169  0.8361781966973607  1.0000
  O   O18       1.0  0.5600561605621908  0.3630187443649716  0.6896632877460858  1.0000
  O   O19       1.0  0.6751946661288387  0.16517309588677154  0.7797640527801589  1.0000
  O   O20       1.0  0.39376680336528125  0.3759060599211281  0.8322780073170504  1.0000
  O   O21       1.0  0.3839261781692755  0.21896935283650276  0.8375784056335644  1.0000
  O   O22       1.0  0.5423526998586469  0.0958039320760804  0.6975384631258235  1.0000
  O   O23       1.0  0.38243985371355654  0.16678601018575276  0.7781941830671355  1.0000
  O   O24       1.0  0.6658991326379678  0.09409689934184229  0.6990301068569947  1.0000
  O   O25       1.0  0.38908178477781524  0.3646399913743678  0.6895377598743407  1.0000
  O   O26       1.0  0.3811350924705225  0.252305006963894  0.6928162594539484  1.0000
  O   O27       1.0  0.5006988723081067  0.7498684564203728  0.24989359268290195  1.0000
  O   O28       1.0  0.38745863456911434  0.7174486456372547  0.3374299906810946  1.0000
  O   O29       1.0  0.5411179368995818  0.5950711699009333  0.19883673716788047  1.0000
  O   O30       1.0  0.6741833416530627  0.6666484329942719  0.2781588996600631  1.0000
  O   O31       1.0  0.3807382742486143  0.6664827186581447  0.27910570123767525  1.0000
  O   O32       1.0  0.5585989936770945  0.7171402134011018  0.33675103140785706  1.0000
  O   O33       1.0  0.6657161899897588  0.5944480142931354  0.1971813472103249  1.0000
  O   O34       1.0  0.6752494773229218  0.7516173780964905  0.19235769580094328  1.0000
  O   O35       1.0  0.39490410642849844  0.9350226696862904  0.27105523329708336  1.0000
  O   O36       1.0  0.5563136407683658  0.8631339638303502  0.19070573018557002  1.0000
  O   O37       1.0  0.39693051047004263  0.8734714304254537  0.33288608101420164  1.0000
  O   O38       1.0  0.381756522044249  0.751443016652594  0.19413715557081446  1.0000
  O   O39       1.0  0.3842169114062699  0.8661521206691064  0.1900510358635756  1.0000
  O   O40       1.0  4.838449903135157e-05  0.9999419460464695  0.9999417547937378  1.0000
  O   O41       1.0  0.11172579686655142  0.8854587053095173  0.05956685935180417  1.0000
  O   O42       1.0  0.9597369033708105  0.15494793519067676  0.05149651615409571  1.0000
  O   O43       1.0  0.8252656364202201  0.999460687299148  0.056559770704751496  1.0000
  O   O44       1.0  0.11985397637224814  0.997770312136481  0.05609427473344646  1.0000
  O   O45       1.0  0.9408215704149044  0.8855847916055524  0.05947708900984588  1.0000
  O   O46       1.0  0.8362122233820843  0.1548963456189227  0.0516367365840722  1.0000
  O   O47       1.0  0.8252564302193833  0.08495000638073687  0.9714821014016972  1.0000
  O   O48       1.0  0.10221632976893606  0.8758580161010626  0.9177060658990255  1.0000
  O   O49       1.0  0.940723077289057  0.032310514420110806  0.9130353644793484  1.0000
  O   O50       1.0  0.10242867011522375  0.8137884517713657  0.9793623864267714  1.0000
  O   O51       1.0  0.11986461020151044  0.0832426484161388  0.9706013940439674  1.0000
  O   O52       1.0  0.1117034470468923  0.03233273989907559  0.9127059969441758  1.0000
  O   O53       1.0  0.6798010986556521  0.7816132958139832  0.5939097998041445  1.0000
  O   O54       1.0  0.1872955033175998  0.2841784905404482  0.34096972759757443  1.0000
  O   O55       1.0  0.3129785853918533  0.5968999087441774  0.7779991182587479  1.0000
  O   O56       1.0  0.5571081746831796  0.46871204089912055  0.15641065540356885  1.0000
  F   F1        1.0  0.9234614793084932  0.27790162786278216  0.6047332726016491  1.0000
  F   F2        1.0  0.19443151346634835  0.5470361830878117  0.3371178000039876  1.0000
  F   F3        1.0  0.9218918412905028  0.5464879824431037  0.33676565433066935  1.0000
  F   F4        1.0  0.209605683564945  0.5201955326726307  0.5969866548240288  1.0000
  F   F5        1.0  0.5769627446136454  0.20338150451992482  0.9133957909322987  1.0000
  F   F6        1.0  0.29002892350165865  0.0945030263685069  0.7886922828148143  1.0000
  F   F7        1.0  0.28978179663263876  0.730724847091942  0.15270436879118413  1.0000
  F   F8        1.0  0.5772410456938601  0.9715885457380581  0.1450497556112181  1.0000
