data_image0
_chemical_formula_structural       Cu2Mo4H12C14N8O14
_chemical_formula_sum              "Cu2 Mo4 H12 C14 N8 O14"
_cell_length_a       5.189139032263448
_cell_length_b       9.487338150073162
_cell_length_c       12.300677336140389
_cell_angle_alpha    109.81145477224774
_cell_angle_beta     92.96100120305934
_cell_angle_gamma    91.35526708353339

_space_group_name_H-M_alt    "P 1"
_space_group_IT_number       1

loop_
  _space_group_symop_operation_xyz
  'x, y, z'

loop_
  _atom_site_type_symbol
  _atom_site_label
  _atom_site_symmetry_multiplicity
  _atom_site_fract_x
  _atom_site_fract_y
  _atom_site_fract_z
  _atom_site_occupancy
  Cu  Cu1       1.0  0.7483835355195936  0.0686846203411804  0.11778239071647788  1.0000
  Cu  Cu2       1.0  0.251631765038006  0.9313207877004362  0.8822229223859562  1.0000
  Mo  Mo1       1.0  0.8846608734145179  0.12585031800833957  0.442754000639958  1.0000
  Mo  Mo2       1.0  0.11534642648553019  0.8741495575924318  0.557243126571805  1.0000
  Mo  Mo3       1.0  0.31847150616955133  0.925980509443541  0.2750181283000259  1.0000
  Mo  Mo4       1.0  0.6815397051239174  0.0740204743260691  0.7249810176852092  1.0000
  H   H1        1.0  0.8945436743333987  0.6278249936483888  0.21608208734664192  1.0000
  H   H2        1.0  0.10545220653806099  0.3721802406060918  0.7839308392731181  1.0000
  H   H3        1.0  0.3402703628231905  0.25417312951348964  0.2964251949685631  1.0000
  H   H4        1.0  0.6597244269485287  0.7458121841547085  0.7035644606106215  1.0000
  H   H5        1.0  0.5767834072850135  0.7106145792350914  0.3380810328376354  1.0000
  H   H6        1.0  0.4232002010176359  0.2893794691080771  0.6619245229388395  1.0000
  H   H7        1.0  0.2862773047405797  0.536788806377544  0.3941361434410168  1.0000
  H   H8        1.0  0.7137020006139494  0.4631974656395884  0.6058615254071851  1.0000
  H   H9        1.0  0.4670794367021358  0.25850541502036617  0.9248951963183385  1.0000
  H   H10       1.0  0.5329143529819547  0.7414944228147391  0.07510159377933681  1.0000
  H   H11       1.0  0.2391734854865675  0.5072108333991566  0.07198432180341997  1.0000
  H   H12       1.0  0.7608168046536435  0.49279353894737454  0.9280095381550877  1.0000
  C   C1        1.0  0.7757651286027282  0.5416376005727699  0.23303916575333253  1.0000
  C   C2        1.0  0.2242285058904372  0.4583620814752932  0.7669681479858778  1.0000
  C   C3        1.0  0.46708062832650654  0.3371710709976341  0.28062496730536407  1.0000
  C   C4        1.0  0.5329145410621409  0.6628208988441457  0.7193713659395014  1.0000
  C   C5        1.0  0.9987019276520072  0.326211952881323  0.10065641186373134  1.0000
  C   C6        1.0  0.001297968472073309  0.673793447950388  0.8993460874328105  1.0000
  C   C7        1.0  0.43457311533489207  0.4907076074945564  0.33361556504679857  1.0000
  C   C8        1.0  0.56541214246446  0.509280935383245  0.6663820456347691  1.0000
  C   C9        1.0  0.30653877998495455  0.26481306971729174  0.9788141401874524  1.0000
  C   C10       1.0  0.6934572918907165  0.7351923562750784  0.021185834258112404  1.0000
  C   C11       1.0  0.1929227223203043  0.3888881176074719  0.053375278264184076  1.0000
  C   C12       1.0  0.8070715818767837  0.6111195576651838  0.9466244453781341  1.0000
  C   C13       1.0  0.8090694791651599  0.38813486425736693  0.1825054433113208  1.0000
  C   C14       1.0  0.190930405021156  0.611870524590721  0.8174978654961078  1.0000
  N   N1        1.0  0.0002221019336587995  0.1739760238423074  0.05535591219407368  1.0000
  N   N2        1.0  0.999785466562777  0.8260293506353094  0.9446500177826278  1.0000
  N   N3        1.0  0.6540909840018685  0.2876937051535223  0.20775198709147694  1.0000
  N   N4        1.0  0.3459103395778342  0.7123038756193479  0.792246817308694  1.0000
  N   N5        1.0  0.5909270693832127  0.5871629959752411  0.30714324273318977  1.0000
  N   N6        1.0  0.4090586313025497  0.4128333124384086  0.6928621585583342  1.0000
  N   N7        1.0  0.1857246674581816  0.13696036896182306  0.9818003716646043  1.0000
  N   N8        1.0  0.8142772100284787  0.863046134643625  0.018204098246258068  1.0000
  O   O1        1.0  0.1501529823525871  0.9517482615928117  0.42994666317313335  1.0000
  O   O2        1.0  0.8498545551069795  0.048254990029228416  0.5700505648279159  1.0000
  O   O3        1.0  0.4502791421523966  0.9979211256539172  0.1712468781541715  1.0000
  O   O4        1.0  0.5497421741195155  0.0020876626106342997  0.8287594897259041  1.0000
  O   O5        1.0  0.023600294168105104  0.0764816651460265  0.29549088444753113  1.0000
  O   O6        1.0  0.9764090229078093  0.9235193491793438  0.7045057848458922  1.0000
  O   O7        1.0  0.0180823943598583  0.3027589499492649  0.5156051865170708  1.0000
  O   O8        1.0  0.9819194007582084  0.6972443334219564  0.4843886589629704  1.0000
  O   O9        1.0  0.595747503758858  0.8621997908991335  0.3344962457072355  1.0000
  O   O10       1.0  0.4042575927375296  0.13779666733442747  0.6655031610887432  1.0000
  O   O11       1.0  0.5613481532749773  0.1577250201720446  0.41407247722739254  1.0000
  O   O12       1.0  0.43865706617970796  0.8422726073418688  0.5859239949584277  1.0000
  O   O13       1.0  0.16798310946232684  0.7574900882417454  0.18977056886334503  1.0000
  O   O14       1.0  0.8320244757482911  0.2425132113147654  0.8102234210941572  1.0000
