data_image0
_chemical_formula_structural       Cu4H32C56N8O16F16
_chemical_formula_sum              "Cu4 H32 C56 N8 O16 F16"
_cell_length_a       10.474353421623363
_cell_length_b       10.474368773001952
_cell_length_c       14.85302068826784
_cell_angle_alpha    105.45064130233587
_cell_angle_beta     105.44975950192985
_cell_angle_gamma    104.12889222810783

_space_group_name_H-M_alt    "P 1"
_space_group_IT_number       1

loop_
  _space_group_symop_operation_xyz
  'x, y, z'

loop_
  _atom_site_type_symbol
  _atom_site_label
  _atom_site_symmetry_multiplicity
  _atom_site_fract_x
  _atom_site_fract_y
  _atom_site_fract_z
  _atom_site_occupancy
  Cu  Cu1       1.0  0.48215301650209597  0.177399456767283  0.8738577929500339  1.0000
  Cu  Cu2       1.0  0.8225881533884376  0.5178374498390712  0.12613861026353848  1.0000
  Cu  Cu3       1.0  0.9465733351200141  0.14175367282510362  0.373884685476753  1.0000
  Cu  Cu4       1.0  0.858250228091059  0.053436395082684406  0.6261163897062687  1.0000
  H   H1        1.0  0.7551130337158298  0.11450123162126147  0.9053986722198815  1.0000
  H   H2        1.0  0.8855064233424342  0.24488816039310993  0.09460305970140581  1.0000
  H   H3        1.0  0.04115307379942127  0.9004545688044489  0.40560563739214933  1.0000
  H   H4        1.0  0.09954941279151806  0.9588512638073681  0.5943966544488007  1.0000
  H   H5        1.0  0.8307859798327398  0.9160266128864551  0.9399758732209523  1.0000
  H   H6        1.0  0.08398123925353218  0.1692192262669536  0.06002718724055711  1.0000
  H   H7        1.0  0.27426280680931103  0.8594792840693727  0.44034364811586363  1.0000
  H   H8        1.0  0.14051982048971473  0.7257365934233206  0.5596533040425343  1.0000
  H   H9        1.0  0.6500507848769955  0.7084407511273837  0.9408617205802303  1.0000
  H   H10       1.0  0.2915586079870849  0.3499506235773496  0.05913753715068992  1.0000
  H   H11       1.0  0.48265104116555335  0.0410329776895111  0.44111107932167937  1.0000
  H   H12       1.0  0.9589628000828441  0.5173504733053492  0.5588855092978948  1.0000
  H   H13       1.0  0.4038393291114772  0.706128161349568  0.9072546268138596  1.0000
  H   H14       1.0  0.2938732948567165  0.5961599209968825  0.09274189131605237  1.0000
  H   H15       1.0  0.45133103057960267  0.25355559906722647  0.40740369539621213  1.0000
  H   H16       1.0  0.7464486059365426  0.5486782626413813  0.5926006190413562  1.0000
  H   H17       1.0  0.19672587441364442  0.7249965116090422  0.8801820028527775  1.0000
  H   H18       1.0  0.27500089741158723  0.8032705645086582  0.11981847999796716  1.0000
  H   H19       1.0  0.4053854521345032  0.4335058752429291  0.3802524030823663  1.0000
  H   H20       1.0  0.5665024428654064  0.594628067112808  0.6197607539988114  1.0000
  H   H21       1.0  0.973746092304019  0.775966469714419  0.8573549971768629  1.0000
  H   H22       1.0  0.2240320783606009  0.026248442465430302  0.1426448038890911  1.0000
  H   H23       1.0  0.3316401805277707  0.6336820498124426  0.35736773513978193  1.0000
  H   H24       1.0  0.36632334944707884  0.6683671709624834  0.6426397996188558  1.0000
  H   H25       1.0  0.9667739468959411  0.009618273878359701  0.8390649232300407  1.0000
  H   H26       1.0  0.990381538113347  0.0332155214980929  0.1609341187869262  1.0000
  H   H27       1.0  0.0798126364707557  0.6225101607313805  0.33922541284626123  1.0000
  H   H28       1.0  0.37748900514332473  0.9201895756925185  0.6607731976578892  1.0000
  H   H29       1.0  0.18415381741570508  0.1756770574856219  0.8423712353229931  1.0000
  H   H30       1.0  0.8243276062761425  0.8158438581371996  0.15763267130849812  1.0000
  H   H31       1.0  0.9169972413998196  0.4085099243572401  0.3425803266031977  1.0000
  H   H32       1.0  0.5914841184080403  0.08300728146256378  0.6574141221812796  1.0000
  C   C1        1.0  0.6823044922419045  0.0229035483796949  0.9086667700864552  1.0000
  C   C2        1.0  0.9771019422223617  0.3176863485647701  0.09133183298602184  1.0000
  C   C3        1.0  0.13598992556081416  0.9765369505017604  0.40886917806157913  1.0000
  C   C4        1.0  0.023469936338322808  0.8640135868281931  0.5911347506943728  1.0000
  C   C5        1.0  0.7220523948961812  0.911596111013168  0.9260397375263595  1.0000
  C   C6        1.0  0.0884094702886458  0.2779465924975497  0.07396026714783943  1.0000
  C   C7        1.0  0.2647124915316185  0.9542198867181857  0.42632150141575675  1.0000
  C   C8        1.0  0.045780470318341315  0.735286542483344  0.5736788712985829  1.0000
  C   C9        1.0  0.6219713498185087  0.7969199451736911  0.9270685312761701  1.0000
  C   C10       1.0  0.2030843360610746  0.37803016221685243  0.07293229852808744  1.0000
  C   C11       1.0  0.3803573575491015  0.0552772194196578  0.42727901587502265  1.0000
  C   C12       1.0  0.9447228260245666  0.6196481282563298  0.5727217689215538  1.0000
  C   C13       1.0  0.4841130384277932  0.7958327033766608  0.9087005038807663  1.0000
  C   C14       1.0  0.20417221470119534  0.5158866911398691  0.09129949935920935  1.0000
  C   C15       1.0  0.3630718485215069  0.17475300898950508  0.4088648917579506  1.0000
  C   C16       1.0  0.8252472123814767  0.6369311007301661  0.5911375309387239  1.0000
  C   C17       1.0  0.4506892277304146  0.9108905498074051  0.8926488914275482  1.0000
  C   C18       1.0  0.08911282795430964  0.5493065105740486  0.10734884997289389  1.0000
  C   C19       1.0  0.2319438091008408  0.19209268985807884  0.39276203637312085  1.0000
  C   C20       1.0  0.8079130527704237  0.7680638283027221  0.6072457980845771  1.0000
  C   C21       1.0  0.3100863741294689  0.9243791526230893  0.8753489961669774  1.0000
  C   C22       1.0  0.07562308859673555  0.6899124824888433  0.12465129313147129  1.0000
  C   C23       1.0  0.201132799068894  0.3153709006231225  0.3754228688865312  1.0000
  C   C24       1.0  0.6846292516913123  0.7988707175668354  0.6245839675375537  1.0000
  C   C25       1.0  0.19189443726015307  0.8244320293073599  0.8726918791400564  1.0000
  C   C26       1.0  0.17556965970673846  0.8081087723262996  0.1273072033976917  1.0000
  C   C27       1.0  0.29847908033043774  0.4308815621984651  0.37276956848665327  1.0000
  C   C28       1.0  0.5691168533178868  0.7015303004188952  0.6272408350218301  1.0000
  C   C29       1.0  0.06654070747038077  0.853511409074734  0.85990625378102  1.0000
  C   C30       1.0  0.14648787056949433  0.9334596299732567  0.14009603207260576  1.0000
  C   C31       1.0  0.2566418648053315  0.5434586266045827  0.359944509443423  1.0000
  C   C32       1.0  0.4565418567559974  0.7433645415436347  0.6400611677512915  1.0000
  C   C33       1.0  0.061605860226258455  0.9810472879322063  0.8498239977664213  1.0000
  C   C34       1.0  0.01895374059817825  0.9383935491825499  0.1501757884936695  1.0000
  C   C35       1.0  0.11908722475889999  0.5383979953628356  0.3499523804277517  1.0000
  C   C36       1.0  0.46160231632817517  0.8809170656292334  0.650051559133871  1.0000
  C   C37       1.0  0.18249538483175337  0.07544149860110849  0.8514047270524827  1.0000
  C   C38       1.0  0.924560587327754  0.8175088944240939  0.14859873351386452  1.0000
  C   C39       1.0  0.02621136858230243  0.41914045782856146  0.3515433461292546  1.0000
  C   C40       1.0  0.5808562859685793  0.9737894454576548  0.6484564335182839  1.0000
  C   C41       1.0  0.3600399113215714  0.2653728930677488  0.7267172585118831  1.0000
  C   C42       1.0  0.7346334959529485  0.6399519508929288  0.2732840691482822  1.0000
  C   C43       1.0  0.7113911170552782  0.1166768248341867  0.22676486051875597  1.0000
  C   C44       1.0  0.8833133291994029  0.2886074743776135  0.7732306437743334  1.0000
  C   C45       1.0  0.33474645218056764  0.38920326135900757  0.6936181529135156  1.0000
  C   C46       1.0  0.6107999548311156  0.6652484914804688  0.30637857334593843  1.0000
  C   C47       1.0  0.5545157633026249  0.10893894871183821  0.19373854191033504  1.0000
  C   C48       1.0  0.8910573182538996  0.4454827791978531  0.8062609247302037  1.0000
  C   C49       1.0  0.19242880804644366  0.40877932273012624  0.6908329287172706  1.0000
  C   C50       1.0  0.5912206052790551  0.8075652245747733  0.3091632049757393  1.0000
  C   C51       1.0  0.5321082003568449  0.248455363789077  0.19092868828991533  1.0000
  C   C52       1.0  0.7515352751937526  0.46788862009955073  0.8090695932955684  1.0000
  C   C53       1.0  0.0634783597198876  0.2789098811302253  0.613800027239954  1.0000
  C   C54       1.0  0.7210928748867643  0.9365213165511649  0.3861990415354272  1.0000
  C   C55       1.0  0.5848992445749913  0.30035912428903094  0.11383299852452207  1.0000
  C   C56       1.0  0.6996269868813556  0.41509360534170275  0.8861569471429152  1.0000
  N   N1        1.0  0.3021770953683927  0.04644032902470489  0.8634027848746513  1.0000
  N   N2        1.0  0.9535663107906913  0.6978282653131557  0.13659824309818452  1.0000
  N   N3        1.0  0.06715005691017245  0.3113825820690367  0.3634920696636784  1.0000
  N   N4        1.0  0.6886146185742562  0.9328528915887875  0.6365080710828509  1.0000
  N   N5        1.0  0.5502688986468414  0.022675244616841905  0.8939139683886594  1.0000
  N   N6        1.0  0.9773328481956937  0.44972258406189514  0.1060859536507834  1.0000
  N   N7        1.0  0.12142450052225941  0.09376348046087198  0.39402840990435106  1.0000
  N   N8        1.0  0.9062382201461006  0.8785780847801592  0.6059750864726967  1.0000
  O   O1        1.0  0.3945107354141014  0.3003847233737389  0.8219498005430168  1.0000
  O   O2        1.0  0.6996121065290097  0.6054757085862903  0.17804871285428453  1.0000
  O   O3        1.0  0.7717481884844802  0.1775602495819939  0.32198266243378987  1.0000
  O   O4        1.0  0.8224323620602689  0.2282564928861461  0.678013105934973  1.0000
  O   O5        1.0  0.3477944787098579  0.1543813741790316  0.6635224688331933  1.0000
  O   O6        1.0  0.8456192345328476  0.6522014293361166  0.3364753085625481  1.0000
  O   O7        1.0  0.7590491381294413  0.06548277824763461  0.16355663646692167  1.0000
  O   O8        1.0  0.9345144127636188  0.24095110318548765  0.8364379504313959  1.0000
  O   O9        1.0  0.0473047943197287  0.1729450562063803  0.6425824713062482  1.0000
  O   O10       1.0  0.8270595218792565  0.9526892680936998  0.3574194409763651  1.0000
  O   O11       1.0  0.7196347282159011  0.3452790204218275  0.14258389848468067  1.0000
  O   O12       1.0  0.6547062644410743  0.28035895339942124  0.8574042187090426  1.0000
  O   O13       1.0  0.9956648488202969  0.2905564854032434  0.5358713713237364  1.0000
  O   O14       1.0  0.7094539881462296  0.0043415887215161  0.46413355001598694  1.0000
  O   O15       1.0  0.4953433902638693  0.29019321542444493  0.03588793059499554  1.0000
  O   O16       1.0  0.7098032963179434  0.504644372341808  0.964108827449941  1.0000
  F   F1        1.0  0.44069970589235646  0.5142276764702912  0.7571046576393599  1.0000
  F   F2        1.0  0.48577409606350125  0.5593003063791856  0.24289689261287617  1.0000
  F   F3        1.0  0.49294929602321946  0.0664465866386337  0.2572119170566083  1.0000
  F   F4        1.0  0.9335475795881081  0.5070524273893825  0.7427851622865235  1.0000
  F   F5        1.0  0.3404633480816059  0.3710845261065502  0.5994225353947016  1.0000
  F   F6        1.0  0.628920934571262  0.6595390370954136  0.40058127072133237  1.0000
  F   F7        1.0  0.47848825703634656  0.009096720809239402  0.09952093385373224  1.0000
  F   F8        1.0  0.9908806992472208  0.5215073282680861  0.9004756500234806  1.0000
  F   F9        1.0  0.1871776261477437  0.4365434691378242  0.7855603458586702  1.0000
  F   F10       1.0  0.5634689820923243  0.8128206750964111  0.21443979709541605  1.0000
  F   F11       1.0  0.5989950777335907  0.3484317000037365  0.2856275421056084  1.0000
  F   F12       1.0  0.651563768260779  0.40100027428825774  0.7143675099749986  1.0000
  F   F13       1.0  0.19098994313207385  0.5284123166352616  0.6680062958341609  1.0000
  F   F14       1.0  0.4715976576931595  0.8090166952170108  0.3319967694657465  1.0000
  F   F15       1.0  0.38966364832369754  0.22701840078193666  0.16812003322898053  1.0000
  F   F16       1.0  0.7729667165203012  0.6103374327751396  0.83187866187901  1.0000
