data_image0
_chemical_formula_structural       Na2Gd2H24C24O24
_chemical_formula_sum              "Na2 Gd2 H24 C24 O24"
_cell_length_a       6.858214066984301
_cell_length_b       7.510224332013723
_cell_length_c       15.658832267595422
_cell_angle_alpha    90.00021831279943
_cell_angle_beta     102.65413519469783
_cell_angle_gamma    89.99992050973587

_space_group_name_H-M_alt    "P 1"
_space_group_IT_number       1

loop_
  _space_group_symop_operation_xyz
  'x, y, z'

loop_
  _atom_site_type_symbol
  _atom_site_label
  _atom_site_symmetry_multiplicity
  _atom_site_fract_x
  _atom_site_fract_y
  _atom_site_fract_z
  _atom_site_occupancy
  Na  Na1       1.0  0.8602719352894964  0.24987237364083373  0.7206280177125495  1.0000
  Na  Na2       1.0  0.13973221377343492  0.7498707745113932  0.2793727422328162  1.0000
  Gd  Gd1       1.0  0.6952611024570176  0.7501118724458067  0.3904469762575148  1.0000
  Gd  Gd2       1.0  0.30473557724037886  0.2501079592029924  0.6095524228754741  1.0000
  H   H1        1.0  0.7629544319764392  0.25558003495524423  0.8986902797544263  1.0000
  H   H2        1.0  0.2370467190076084  0.7555835443655639  0.10131147773250863  1.0000
  H   H3        1.0  0.1358274953778462  0.2443038047233657  0.8987103988854204  1.0000
  H   H4        1.0  0.8641706880598575  0.7442998625893226  0.1012878579582406  1.0000
  H   H5        1.0  0.8446977666157595  0.26047262448425096  0.06175823096124592  1.0000
  H   H6        1.0  0.155298898008148  0.7604762817136077  0.938243101363753  1.0000
  H   H7        1.0  0.2171821041796065  0.23933650262429035  0.06178288255271272  1.0000
  H   H8        1.0  0.7828130936574239  0.7393340392986684  0.9382150764415588  1.0000
  H   H9        1.0  0.019532483684393795  0.9142075934657826  0.8049811706298443  1.0000
  H   H10       1.0  0.9804715622022401  0.41420749454746897  0.19501923872559254  1.0000
  H   H11       1.0  0.7855229110000863  0.5856470162392072  0.8049522217135847  1.0000
  H   H12       1.0  0.2144723775539248  0.08564655558249258  0.19504738321028017  1.0000
  H   H13       1.0  0.48754886264919145  0.269552571772401  0.41904216792239174  1.0000
  H   H14       1.0  0.5124507849247805  0.7695502528662245  0.5809594694494393  1.0000
  H   H15       1.0  0.9313422963363819  0.2306333471811257  0.4191034331184583  1.0000
  H   H16       1.0  0.06865737074229371  0.7306289264804989  0.5808994127982177  1.0000
  H   H17       1.0  0.7859932147324499  0.9031261723738949  0.7944946533841135  1.0000
  H   H18       1.0  0.2140108355052845  0.4031204699816159  0.20550637491025736  1.0000
  H   H19       1.0  0.008539487379280798  0.5965858874171558  0.7944262157572342  1.0000
  H   H20       1.0  0.9914572857265254  0.09658319607429178  0.205574191243187  1.0000
  H   H21       1.0  0.5413465779407574  0.11946467182407622  0.30123604448078123  1.0000
  H   H22       1.0  0.45865316921534566  0.6194607013339137  0.6987646917328194  1.0000
  H   H23       1.0  0.7599294212778888  0.3806884216798779  0.301275537541578  1.0000
  H   H24       1.0  0.2400716518278685  0.8806860590624838  0.698725800661457  1.0000
  C   C1        1.0  0.3958853941582491  0.2500021105785422  0.7920040446118649  1.0000
  C   C2        1.0  0.6041157716095356  0.7500046781627746  0.20799514971598407  1.0000
  C   C3        1.0  0.44458358659858277  0.2499412189492958  0.8891662289454845  1.0000
  C   C4        1.0  0.5554175736171773  0.7499377440548541  0.11083424196601756  1.0000
  C   C5        1.0  0.6235685236717642  0.18763619331770084  0.42794943993683193  1.0000
  C   C6        1.0  0.37643267392512303  0.6876326437283212  0.5720515602241677  1.0000
  C   C7        1.0  0.804195502209275  0.31253514452200903  0.42797923285819917  1.0000
  C   C8        1.0  0.195801137233957  0.8125318233179611  0.5720202755805773  1.0000
  C   C9        1.0  0.6494881623517799  0.087371874301212  0.5142443182408344  1.0000
  C   C10       1.0  0.35051159711060365  0.5873650034625585  0.48575827681800393  1.0000
  C   C11       1.0  0.8645740356948294  0.4128080891555753  0.5142980713270974  1.0000
  C   C12       1.0  0.13543000829503168  0.91281613682024  0.4857029739326749  1.0000
  C   C13       1.0  0.644587565865187  0.2536215919151132  0.9349666167190877  1.0000
  C   C14       1.0  0.3554106031722028  0.7536233294892368  0.0650335714886552  1.0000
  C   C15       1.0  0.2904599219732019  0.24624387413452095  0.9350078821015375  1.0000
  C   C16       1.0  0.7095382602134706  0.7462398370639391  0.06499037813917141  1.0000
  C   C17       1.0  0.5361800980854098  0.24993788980557244  0.07216396862688161  1.0000
  C   C18       1.0  0.4638180761240136  0.7499397416786023  0.9278355747828898  1.0000
  C   C19       1.0  0.6896867073791382  0.2556964233781258  0.025890944241609794  1.0000
  C   C20       1.0  0.31030996871542277  0.7556975085758638  0.974108464674494  1.0000
  C   C21       1.0  0.3363424669068422  0.24416569999208093  0.02593136228100691  1.0000
  C   C22       1.0  0.6636542194218505  0.7441610115485773  0.9740673880915767  1.0000
  C   C23       1.0  0.5851118274685732  0.2500021631824794  0.1699375527948987  1.0000
  C   C24       1.0  0.4148848550941436  0.7500046255599386  0.8300612078037802  1.0000
  O   O1        1.0  0.5360627546451724  0.24355197863715708  0.7497164540709705  1.0000
  O   O2        1.0  0.4639399068890668  0.7435484046894913  0.25028351188127124  1.0000
  O   O3        1.0  0.21344904918254312  0.25653182179836875  0.7497348101080663  1.0000
  O   O4        1.0  0.7865580955740653  0.7565358284584959  0.2502636972647707  1.0000
  O   O5        1.0  0.603504004975889  0.0591537503665833  0.3592878849578797  1.0000
  O   O6        1.0  0.39649727827089265  0.5591480621654837  0.6407122518763588  1.0000
  O   O7        1.0  0.7556729921351033  0.44102240705170453  0.3592986581877256  1.0000
  O   O8        1.0  0.2443265588493304  0.9410182428845602  0.6407000876930767  1.0000
  O   O9        1.0  0.8983210054914467  0.9861236549852349  0.8027186766871426  1.0000
  O   O10       1.0  0.10168149682234429  0.486120691952209  0.1972823523646454  1.0000
  O   O11       1.0  0.9044030770513132  0.5136623977893037  0.802691670867745  1.0000
  O   O12       1.0  0.0955952439294876  0.013660774189169398  0.19730873550815894  1.0000
  O   O13       1.0  0.44764263715935465  0.21143898481300027  0.21071238496948305  1.0000
  O   O14       1.0  0.5523555646737391  0.7114382836384296  0.7892864526773808  1.0000
  O   O15       1.0  0.7633461182481439  0.2886122454604488  0.21072678166666495  1.0000
  O   O16       1.0  0.2366535254251616  0.7886092807359473  0.7892729740353845  1.0000
  O   O17       1.0  0.6080313294459428  0.1682259389547838  0.579646980022396  1.0000
  O   O18       1.0  0.3919683890617875  0.6682251494954485  0.4203532032288423  1.0000
  O   O19       1.0  0.9715055718857429  0.33196515884212374  0.5796766992535185  1.0000
  O   O20       1.0  0.028489557830390297  0.8319595031388332  0.4203233369772193  1.0000
  O   O21       1.0  0.7123725798906763  0.9291802531046898  0.5165143879858578  1.0000
  O   O22       1.0  0.28763893394228995  0.4291806780693861  0.48348549377404043  1.0000
  O   O23       1.0  0.8039942131622766  0.5710244490804824  0.5165625409359154  1.0000
  O   O24       1.0  0.19600258482178393  0.07100634837833301  0.4834359062487153  1.0000
