data_image0
_chemical_formula_structural       Cd2H36C28Br4N4
_chemical_formula_sum              "Cd2 H36 C28 Br4 N4"
_cell_length_a       3.957009115447351
_cell_length_b       14.320913766403006
_cell_length_c       14.320806953000439
_cell_angle_alpha    89.99998390069668
_cell_angle_beta     90.00002002666979
_cell_angle_gamma    89.99833652100324

_space_group_name_H-M_alt    "P 1"
_space_group_IT_number       1

loop_
  _space_group_symop_operation_xyz
  'x, y, z'

loop_
  _atom_site_type_symbol
  _atom_site_label
  _atom_site_symmetry_multiplicity
  _atom_site_fract_x
  _atom_site_fract_y
  _atom_site_fract_z
  _atom_site_occupancy
  Cd  Cd1       1.0  0.4999995297547173  0.4999938101388252  0.9999980678122424  1.0000
  Cd  Cd2       1.0  0.4999991034148082  0.9999989860669841  0.5000003352116664  1.0000
  H   H1        1.0  0.7029488576510374  0.5267609223643319  0.2146037828502756  1.0000
  H   H2        1.0  0.7029823166898409  0.47322934165931224  0.7853886649102149  1.0000
  H   H3        1.0  0.2970673882734047  0.2146120996785967  0.47325473779297766  1.0000
  H   H4        1.0  0.29708905702016614  0.7853892180349007  0.5267544361475628  1.0000
  H   H5        1.0  0.7029338042525098  0.026754410273440492  0.28538757379384794  1.0000
  H   H6        1.0  0.7029746251847158  0.9732449314763725  0.7146146499498727  1.0000
  H   H7        1.0  0.29705183841093696  0.7146179664313763  0.026739326579978205  1.0000
  H   H8        1.0  0.29708186277039067  0.2853763685848064  0.9732495971051094  1.0000
  H   H9        1.0  0.4999758532330603  0.8076286068780688  0.30759500343115315  1.0000
  H   H10       1.0  0.4999870870437563  0.19237451626272417  0.6923925400062885  1.0000
  H   H11       1.0  0.4999935157131645  0.3076207242342193  0.192399749428489  1.0000
  H   H12       1.0  0.5000326032622056  0.692389381434623  0.8076171219667785  1.0000
  H   H13       1.0  0.8872740136282857  0.6974859681272817  0.4009549969684301  1.0000
  H   H14       1.0  0.8872992224155923  0.30251254024080493  0.5990318793407496  1.0000
  H   H15       1.0  0.1126736120149943  0.4009655236649151  0.3025345759339828  1.0000
  H   H16       1.0  0.1127093583096226  0.5990450072363345  0.6974829625888218  1.0000
  H   H17       1.0  0.8872864839489197  0.19747811175142968  0.09903702484107409  1.0000
  H   H18       1.0  0.8873322407986849  0.8025245861018107  0.900968705155506  1.0000
  H   H19       1.0  0.1126532598766303  0.9009713424438528  0.197457326414316  1.0000
  H   H20       1.0  0.11267916751916832  0.0990329041565232  0.8025294875817365  1.0000
  H   H21       1.0  0.9027488619017063  0.5767149834668429  0.3691188197395618  1.0000
  H   H22       1.0  0.9027543004478743  0.4232819998395384  0.6308722475219  1.0000
  H   H23       1.0  0.09720403276299548  0.36913170843597237  0.4233064053974758  1.0000
  H   H24       1.0  0.09723890264846351  0.6308796492891274  0.5767097353114252  1.0000
  H   H25       1.0  0.90275379763699  0.07670921301026816  0.1308760303714109  1.0000
  H   H26       1.0  0.902792326112575  0.9232947529098181  0.8691324940076226  1.0000
  H   H27       1.0  0.09718855650076821  0.8691403542646723  0.0766862029314126  1.0000
  H   H28       1.0  0.09720889019921941  0.13086681397675184  0.9233006098199821  1.0000
  H   H29       1.0  0.5309353275827604  0.6250570119871808  0.4190426606911259  1.0000
  H   H30       1.0  0.5309506441904689  0.3749458538863663  0.580947678375665  1.0000
  H   H31       1.0  0.46900248161577457  0.41905785056469813  0.3749662602843173  1.0000
  H   H32       1.0  0.469034899954309  0.5809469264086643  0.6250478154797463  1.0000
  H   H33       1.0  0.5309604070426559  0.1250484623640205  0.0809521459346172  1.0000
  H   H34       1.0  0.5309862165395385  0.8749557998145007  0.919052158827881  1.0000
  H   H35       1.0  0.46897696821866935  0.9190636897275013  0.1250263639311626  1.0000
  H   H36       1.0  0.4690022891199063  0.0809313115783681  0.8749625735837157  1.0000
  C   C1        1.0  0.6109313116593568  0.5977805174680596  0.2035527159416901  1.0000
  C   C2        1.0  0.6109745094098501  0.4022112093907494  0.7964418192708962  1.0000
  C   C3        1.0  0.3890692000545002  0.203560756617307  0.4022384935184462  1.0000
  C   C4        1.0  0.3891075441539584  0.7964397965612873  0.5977699895390458  1.0000
  C   C5        1.0  0.6109339648859659  0.09777051079873897  0.29644419963305063  1.0000
  C   C6        1.0  0.6109769102663235  0.9022261039937545  0.7035615081338236  1.0000
  C   C7        1.0  0.389063863716828  0.7035659050840761  0.09775208993627868  1.0000
  C   C8        1.0  0.3890850819877372  0.29642906197684477  0.9022382377193807  1.0000
  C   C9        1.0  0.6163892036693496  0.6640339386398039  0.2751024458745732  1.0000
  C   C10       1.0  0.6164263722637885  0.3359605360114343  0.7248885983530611  1.0000
  C   C11       1.0  0.38358158666551395  0.2751127872127839  0.3359859317622592  1.0000
  C   C12       1.0  0.38362475059891915  0.7248892081018637  0.6640281371311687  1.0000
  C   C13       1.0  0.6163993326382666  0.16402604689250205  0.2248937532472581  1.0000
  C   C14       1.0  0.6164490959776642  0.8359768069736687  0.7751126532433259  1.0000
  C   C15       1.0  0.3835662395349573  0.7751172188157865  0.16400812257869293  1.0000
  C   C16       1.0  0.3836047177013811  0.22487988869313105  0.8359808080657698  1.0000
  C   C17       1.0  0.49997348744052766  0.7537710176115339  0.2537537712838116  1.0000
  C   C18       1.0  0.5000020888926002  0.24622721752002252  0.7462372635781946  1.0000
  C   C19       1.0  0.4999937563972807  0.25376661121754307  0.24624378983985906  1.0000
  C   C20       1.0  0.500034889841821  0.7462413996030861  0.7537681935630971  1.0000
  C   C21       1.0  0.7422128322285318  0.6392654297871659  0.37103489764162123  1.0000
  C   C22       1.0  0.7422246051740159  0.3607321891469439  0.6289554584214301  1.0000
  C   C23       1.0  0.25774433339582714  0.3710492239334612  0.3607582602877315  1.0000
  C   C24       1.0  0.25777696287541835  0.6289594032729157  0.6392592899050553  1.0000
  C   C25       1.0  0.7422228194568632  0.13925965984837063  0.12895922370368137  1.0000
  C   C26       1.0  0.7422702151184737  0.8607456399260228  0.871051382616045  1.0000
  C   C27       1.0  0.25772894954879183  0.8710564556189553  0.1392336621323977  1.0000
  C   C28       1.0  0.2577443312378377  0.12894030104032336  0.8607531635345109  1.0000
  Br  Br1       1.0  7.4953596183000065e-06  0.40222501840644037  0.0977793497060233  1.0000
  Br  Br2       1.0  5.7653807061999955e-06  0.5977606124837751  0.9022172312154594  1.0000
  Br  Br3       1.0  3.070023687700003e-06  0.09776951523251398  0.5977777531310123  1.0000
  Br  Br4       1.0  1.0190261420500003e-05  0.9022251932898584  0.4022251123512532  1.0000
  N   N1        1.0  0.5000030518134437  0.6171512628358116  0.11713160106241109  1.0000
  N   N2        1.0  0.5000407582618608  0.3828392909381434  0.8828594338034179  1.0000
  N   N3        1.0  0.5000058324506469  0.1171447232685381  0.38286111044020277  1.0000
  N   N4        1.0  0.5000405043737787  0.882854209846144  0.6171466832567063  1.0000
