data_image0
_chemical_formula_structural       Cu4H12C14S2I4N4
_chemical_formula_sum              "Cu4 H12 C14 S2 I4 N4"
_cell_length_a       6.10862624336298
_cell_length_b       10.931877434844052
_cell_length_c       11.398648024768148
_cell_angle_alpha    106.41605806998903
_cell_angle_beta     105.6285572778921
_cell_angle_gamma    89.93244607325593

_space_group_name_H-M_alt    "P 1"
_space_group_IT_number       1

loop_
  _space_group_symop_operation_xyz
  'x, y, z'

loop_
  _atom_site_type_symbol
  _atom_site_label
  _atom_site_symmetry_multiplicity
  _atom_site_fract_x
  _atom_site_fract_y
  _atom_site_fract_z
  _atom_site_occupancy
  Cu  Cu1       1.0  0.9724317391948601  0.8987154117145622  0.394698921127656  1.0000
  Cu  Cu2       1.0  0.578241238915801  0.10121399414492771  0.6051864333189485  1.0000
  Cu  Cu3       1.0  0.027566694748053087  0.10128124468939596  0.6052975873735278  1.0000
  Cu  Cu4       1.0  0.42176069829761786  0.8987836278477204  0.3948126117065414  1.0000
  H   H1        1.0  0.8219176130048425  0.8636324459870578  0.642631178889424  1.0000
  H   H2        1.0  0.1780881693661769  0.13636804030799954  0.35736745084698646  1.0000
  H   H3        1.0  0.7025242864438965  0.496310662847719  0.4049283743363077  1.0000
  H   H4        1.0  0.29747588343427367  0.5036869732935401  0.5950739193685096  1.0000
  H   H5        1.0  0.7994353548027104  0.357364436279866  0.5982460027716741  1.0000
  H   H6        1.0  0.20056725164688058  0.642637973315402  0.40175529669417637  1.0000
  H   H7        1.0  0.9168144445658797  0.4035852794991185  0.8325961916347923  1.0000
  H   H8        1.0  0.08318460802732365  0.5964161756397245  0.16740519875415322  1.0000
  H   H9        1.0  0.9886510838961654  0.6284218559942686  0.975445165408516  1.0000
  H   H10       1.0  0.011346131590016689  0.37157864167180316  0.0245556946716263  1.0000
  H   H11       1.0  0.9442096449453741  0.8127188193709785  0.8860196893210742  1.0000
  H   H12       1.0  0.055794644529655095  0.1872835946294416  0.1139827405444791  1.0000
  C   C1        1.0  0.7441651741942649  0.6946779439373358  0.48793730754366027  1.0000
  C   C2        1.0  0.255837020596445  0.30532159532280895  0.5120631647474596  1.0000
  C   C3        1.0  0.8058941723955328  0.5599188369812751  0.6108499343970877  1.0000
  C   C4        1.0  0.19410989322612685  0.44008165233013585  0.38914931657122753  1.0000
  C   C5        1.0  0.8302581695603664  0.4558308830454436  0.65970416369926  1.0000
  C   C6        1.0  0.16974065917946748  0.5441686474043976  0.3402940477924545  1.0000
  C   C7        1.0  0.8966268336584804  0.4834747791816554  0.7921680191782201  1.0000
  C   C8        1.0  0.10337051904732415  0.5165266752627885  0.2078331166268299  1.0000
  C   C9        1.0  0.9370002805133308  0.6100035700403835  0.872401607389982  1.0000
  C   C10       1.0  0.06300230907429949  0.38999884326563006  0.127600567891669  1.0000
  C   C11       1.0  0.9129402822060442  0.7146144832504147  0.8238420242738796  1.0000
  C   C12       1.0  0.08705889074482799  0.28538793237755294  0.17616051765577373  1.0000
  C   C13       1.0  0.8464963320515435  0.6871857506759013  0.6916339761180553  1.0000
  C   C14       1.0  0.15350599995879577  0.3128147453626156  0.3083667718979727  1.0000
  S   S1        1.0  0.677828221985713  0.745999515017786  0.3558771774003305  1.0000
  S   S2        1.0  0.3221718612587167  0.2539971532128362  0.6441222131321638  1.0000
  I   I1        1.0  0.09567962260557282  0.8948198862433681  0.19259395369763146  1.0000
  I   I2        1.0  0.9043176266045306  0.10518060400119822  0.8074051547509029  1.0000
  I   I3        1.0  0.29885190524127125  0.8954193451550906  0.5970169121732312  1.0000
  I   I4        1.0  0.7011467694169794  0.10457923222712397  0.402981899409383  1.0000
  N   N1        1.0  0.7436692968031833  0.5693379262805961  0.4870342050289053  1.0000
  N   N2        1.0  0.2563310271565768  0.4306606629282825  0.5129674885850193  1.0000
  N   N3        1.0  0.8066906003685828  0.7654289872561079  0.6123024724751787  1.0000
  N   N4        1.0  0.19331159442212706  0.2345705520040369  0.3876979998159413  1.0000
