data_image0
_chemical_formula_structural       Cu2H32C32N12O8
_chemical_formula_sum              "Cu2 H32 C32 N12 O8"
_cell_length_a       8.604182602411806
_cell_length_b       9.005833861432563
_cell_length_c       13.555498384340636
_cell_angle_alpha    109.37944490438014
_cell_angle_beta     90.05042453562918
_cell_angle_gamma    118.43811294757849

_space_group_name_H-M_alt    "P 1"
_space_group_IT_number       1

loop_
  _space_group_symop_operation_xyz
  'x, y, z'

loop_
  _atom_site_type_symbol
  _atom_site_label
  _atom_site_symmetry_multiplicity
  _atom_site_fract_x
  _atom_site_fract_y
  _atom_site_fract_z
  _atom_site_occupancy
  Cu  Cu1       1.0  0.4999976271937712  0.999996500168919  0.99999917002728  1.0000
  Cu  Cu2       1.0  0.5000001511268621  3.5562521110013397e-07  0.5000002975172038  1.0000
  H   H1        1.0  0.1452903523436078  0.6920553979923555  0.5747731538248075  1.0000
  H   H2        1.0  0.4536332195524935  0.3080430241587138  0.9251082907201607  1.0000
  H   H3        1.0  0.8547111534108822  0.3079464758605965  0.4252274951219732  1.0000
  H   H4        1.0  0.546374981814445  0.6919629502880155  0.07489179984960259  1.0000
  H   H5        1.0  0.9223044133738226  0.5726899084291901  0.5945072516721694  1.0000
  H   H6        1.0  0.35005305811623094  0.4277126139433209  0.905355316732468  1.0000
  H   H7        1.0  0.07769593065636828  0.4273119664286185  0.4054933971725561  1.0000
  H   H8        1.0  0.6499532977049683  0.5722919911266616  0.09464520541634162  1.0000
  H   H9        1.0  0.9780692614152218  0.32674204203395624  0.6060751588430477  1.0000
  H   H10       1.0  0.6515072779075693  0.6736335411263569  0.8942343647809637  1.0000
  H   H11       1.0  0.02193040704081267  0.67325848203712  0.3939237129086166  1.0000
  H   H12       1.0  0.34849676271230107  0.32637108554821725  0.10576394838958689  1.0000
  H   H13       1.0  0.2026011413137638  0.451433647657943  0.5869909133223814  1.0000
  H   H14       1.0  0.7511732165651207  0.5483522876892905  0.9132391574052221  1.0000
  H   H15       1.0  0.7973978460699198  0.5485655125631509  0.4130076538523255  1.0000
  H   H16       1.0  0.24883102447514466  0.4516550676901049  0.08675976481719523  1.0000
  H   H17       1.0  0.08753377211042583  0.6667082013547584  0.9691119634529315  1.0000
  H   H18       1.0  0.42064351297747044  0.334098011715092  0.5311771253199425  1.0000
  H   H19       1.0  0.9124700025491705  0.3332772645965393  0.0308887127790243  1.0000
  H   H20       1.0  0.5793541095124298  0.665898414274409  0.4688215689588873  1.0000
  H   H21       1.0  0.4231222336053547  0.7671584659479508  0.7436133809508334  1.0000
  H   H22       1.0  0.656783392968542  0.23319976405186787  0.7562568030637068  1.0000
  H   H23       1.0  0.5768748284214028  0.23284614716087765  0.2563871403815696  1.0000
  H   H24       1.0  0.343222962852657  0.7668048410181143  0.24374371908509568  1.0000
  H   H25       1.0  0.9790241917538651  0.9686544183229843  0.061130528090522836  1.0000
  H   H26       1.0  0.010156658250252797  0.031268025626779695  0.43850342554191  1.0000
  H   H27       1.0  0.020972667103407595  0.0313474595494014  0.9388701204480585  1.0000
  H   H28       1.0  0.989840000186632  0.9687311235407703  0.5614966139447972  1.0000
  H   H29       1.0  0.7382894384569738  0.9863559359148937  0.15484603713782258  1.0000
  H   H30       1.0  0.7512179182391918  0.0126565813792254  0.3443727458533203  1.0000
  H   H31       1.0  0.26170741765120203  0.013645935425856197  0.8451553476588102  1.0000
  H   H32       1.0  0.24878078066563353  0.9873466528066502  0.6556289436223253  1.0000
  C   C1        1.0  0.031098775140350195  0.5551206977748536  0.5599072093123993  1.0000
  C   C2        1.0  0.476244756197559  0.4450751061359171  0.9400757386197611  1.0000
  C   C3        1.0  0.9689022499621842  0.4448825409329445  0.4400937441092907  1.0000
  C   C4        1.0  0.523760435150237  0.5549294934072934  0.059925519685044996  1.0000
  C   C5        1.0  0.08879474337995671  0.46329773889226544  0.6168632019926293  1.0000
  C   C6        1.0  0.6257251994273147  0.5369194154428599  0.8833391005092112  1.0000
  C   C7        1.0  0.9112049250760775  0.5367027851788181  0.3831356697590351  1.0000
  C   C8        1.0  0.3742806812401157  0.46308656754521144  0.11666025359840401  1.0000
  C   C9        1.0  0.13497068348131339  0.6572100803912947  0.8944658167600608  1.0000
  C   C10       1.0  0.47783299827853654  0.3434901754901746  0.6057257324833644  1.0000
  C   C11       1.0  0.8650316547206032  0.342779493187777  0.1055343003805262  1.0000
  C   C12       1.0  0.5221683070555728  0.6565089696579564  0.39427430741154984  1.0000
  C   C13       1.0  0.31121921177731326  0.7112096919038321  0.7833034358341708  1.0000
  C   C14       1.0  0.6005767759930902  0.28915647158526525  0.7166378577964423  1.0000
  C   C15       1.0  0.688778127731922  0.2887908211137074  0.2166969082294941  1.0000
  C   C16       1.0  0.39942958257720573  0.7108481400163387  0.28336192809431543  1.0000
  C   C17       1.0  0.1321730256618209  0.9912700988912065  0.19623259893501202  1.0000
  C   C18       1.0  0.14104459143836584  0.0091067532001148  0.303739129523116  1.0000
  C   C19       1.0  0.8678217954766012  0.008727700494475202  0.8037656633565788  1.0000
  C   C20       1.0  0.858948183733922  0.9908869481039844  0.6962589552956473  1.0000
  C   C21       1.0  0.9867300981072588  0.9842980092253129  0.1444066182602057  1.0000
  C   C22       1.0  0.002282908281024696  0.015642043184108393  0.3552622021991425  1.0000
  C   C23       1.0  0.013265873759088699  0.015699763029005  0.8555945891656407  1.0000
  C   C24       1.0  0.9977130690835165  0.9843557421334665  0.6447375327106002  1.0000
  C   C25       1.0  0.8502275584373467  0.9924727868096426  0.19691000846864878  1.0000
  C   C26       1.0  0.8572638536554179  0.0068267232224741015  0.302507089239235  1.0000
  C   C27       1.0  0.1497692976708294  0.0075290845311073  0.8030913763279841  1.0000
  C   C28       1.0  0.14273396650577286  0.9931724249402264  0.6974929503495204  1.0000
  C   C29       1.0  0.2666630410666571  0.9671575012509095  0.1324897793274218  1.0000
  C   C30       1.0  0.2997896541725211  0.0332907941411804  0.3675411615618529  1.0000
  C   C31       1.0  0.7333315769022875  0.032837562898315305  0.8675086101703471  1.0000
  C   C32       1.0  0.7002070070134677  0.9667083615579983  0.6324581416668025  1.0000
  N   N1        1.0  0.14835259647713875  0.5679150290228208  0.7315858852667105  1.0000
  N   N2        1.0  0.5809155658246254  0.4325225581193592  0.7685303278780823  1.0000
  N   N3        1.0  0.8516468660603138  0.4320827532801773  0.2684138499491837  1.0000
  N   N4        1.0  0.41908894719992423  0.5674806841054975  0.23146988959170767  1.0000
  N   N5        1.0  0.03383475067145979  0.5308129570459101  0.80103446117149  1.0000
  N   N6        1.0  0.5031470613250588  0.46980456254725306  0.6992257696682173  1.0000
  N   N7        1.0  0.9661671068785013  0.4691779813880074  0.19896596044401346  1.0000
  N   N8        1.0  0.49685560890283403  0.5301973168324707  0.30077414312256684  1.0000
  N   N9        1.0  0.3070976513622909  0.7719644232995365  0.8874981853279137  1.0000
  N   N10       1.0  0.5354008289654146  0.2285325005977157  0.6124675809654292  1.0000
  N   N11       1.0  0.6929016080056839  0.22803062376701896  0.11250167709416563  1.0000
  N   N12       1.0  0.464601154691941  0.7714680018687758  0.38753349976449414  1.0000
  O   O1        1.0  0.3144985291991063  0.05254666076820771  0.0675945143857604  1.0000
  O   O2        1.0  0.2624679158843363  0.948134776906933  0.43256297118108483  1.0000
  O   O3        1.0  0.6854997716140403  0.947451122539647  0.9324052207280858  1.0000
  O   O4        1.0  0.7375310660011607  0.05186437025090379  0.5674370685097189  1.0000
  O   O5        1.0  0.32230330034647636  0.8642255127020846  0.13923044274199733  1.0000
  O   O6        1.0  0.45794204263145843  0.1358763408295189  0.36053314500482975  1.0000
  O   O7        1.0  0.6776908424687064  0.13577092936524343  0.8607667787145844  1.0000
  O   O8        1.0  0.5420527785069708  0.8641214585561557  0.6394651172867611  1.0000
