data_image0
_chemical_formula_structural       Zn2H18C34N6O12
_chemical_formula_sum              "Zn2 H18 C34 N6 O12"
_cell_length_a       14.101060338039009
_cell_length_b       16.03852251721266
_cell_length_c       17.276784009149523
_cell_angle_alpha    93.5215588093959
_cell_angle_beta     91.64033951510466
_cell_angle_gamma    98.0384103275005

_space_group_name_H-M_alt    "P 1"
_space_group_IT_number       1

loop_
  _space_group_symop_operation_xyz
  'x, y, z'

loop_
  _atom_site_type_symbol
  _atom_site_label
  _atom_site_symmetry_multiplicity
  _atom_site_fract_x
  _atom_site_fract_y
  _atom_site_fract_z
  _atom_site_occupancy
  Zn  Zn1       1.0  0.4954881514574296  0.41094039379924396  0.4997533670816026  1.0000
  Zn  Zn2       1.0  0.5045043862647702  0.5890536234570972  0.5002469514440762  1.0000
  H   H1        1.0  0.9826941889544896  0.4033662370789415  0.50524856989864  1.0000
  H   H2        1.0  0.4444494574272753  0.629633557943265  0.744322226472633  1.0000
  H   H3        1.0  0.4429415532920871  0.09193516392296887  0.39747133922559635  1.0000
  H   H4        1.0  0.5570895557437083  0.9080613966068327  0.6025227167946241  1.0000
  H   H5        1.0  0.4087121343113793  0.8468209503823444  0.3802205949408019  1.0000
  H   H6        1.0  0.5912924409328255  0.15317768003495047  0.6197830523570431  1.0000
  H   H7        1.0  0.4308976735626117  0.6942488946737482  0.3947472947750582  1.0000
  H   H8        1.0  0.5690971024942755  0.30574579085044457  0.6052542512749068  1.0000
  H   H9        1.0  0.401765021112503  0.25115614350526266  0.26652495282155536  1.0000
  H   H10       1.0  0.598239355502777  0.7488317784053463  0.7334693889296061  1.0000
  H   H11       1.0  0.017300788625370014  0.5966863581820334  0.4947511223007339  1.0000
  H   H12       1.0  0.5764963703926681  0.4045111413670597  0.750491269487277  1.0000
  H   H13       1.0  0.4234903096577797  0.5954815172864014  0.24950946775762614  1.0000
  H   H14       1.0  0.57005310679164  0.4113316397448301  0.8959792054779001  1.0000
  H   H15       1.0  0.4299656627570199  0.5886773035540143  0.10402407865162637  1.0000
  H   H16       1.0  0.564079061780582  0.3643930456973975  0.10970138178952027  1.0000
  H   H17       1.0  0.43594349489309536  0.6356178493905629  0.8902997526184036  1.0000
  H   H18       1.0  0.5555465332289417  0.3703649240868003  0.2556778197378903  1.0000
  C   C1        1.0  0.4892356299828933  0.49051780228146674  0.34782401535422025  1.0000
  C   C2        1.0  0.4702621794216596  0.13745791227357523  0.4449040292398223  1.0000
  C   C3        1.0  0.484511723806662  0.8884819312129366  0.489316779556674  1.0000
  C   C4        1.0  0.5155023487525838  0.1115143396464973  0.5106793381529114  1.0000
  C   C5        1.0  0.4464051530029707  0.8280602313478125  0.4307780090647028  1.0000
  C   C6        1.0  0.5535991332375971  0.17193650489031848  0.5692237879885409  1.0000
  C   C7        1.0  0.4587439423866186  0.7443432419857884  0.4383994610773313  1.0000
  C   C8        1.0  0.541255117670552  0.2556515172880225  0.5616033065247945  1.0000
  C   C9        1.0  0.3149647049985305  0.49068590157187225  0.5059275622065229  1.0000
  C   C10       1.0  0.6850299774936134  0.5093182243448523  0.4940751079957194  1.0000
  C   C11       1.0  0.7884218385333314  0.5207240926825704  0.49370293551758937  1.0000
  C   C12       1.0  0.5107505052351229  0.509471069789697  0.652175337367481  1.0000
  C   C13       1.0  0.2115767702718543  0.47928765452913774  0.5063019671189934  1.0000
  C   C14       1.0  0.9760471171535768  0.5339491374801069  0.49733224706653795  1.0000
  C   C15       1.0  0.02395026888279969  0.46609594222623224  0.5026606761202358  1.0000
  C   C16       1.0  0.12425465808172477  0.47305764237991343  0.5047632532463736  1.0000
  C   C17       1.0  0.8757428164157088  0.5269773704249016  0.4952342979464318  1.0000
  C   C18       1.0  0.48972548323119713  0.4837471540072754  0.2609162919309611  1.0000
  C   C19       1.0  0.5102639122517446  0.5162449200515056  0.7390815549791794  1.0000
  C   C20       1.0  0.4540519204392269  0.5451535514555558  0.21812081344433654  1.0000
  C   C21       1.0  0.545942320463851  0.45484238382314146  0.7818807975241668  1.0000
  C   C22       1.0  0.457727126611033  0.5417484021081264  0.13791164742468703  1.0000
  C   C23       1.0  0.532868874507585  0.41420090386738895  0.14141036746396196  1.0000
  C   C24       1.0  0.5422832828086898  0.4582566214728274  0.8620907146296729  1.0000
  C   C25       1.0  0.4990451649728342  0.4767651314587127  0.09902775961620588  1.0000
  C   C26       1.0  0.500971823032735  0.5232462992055245  0.9009756437555436  1.0000
  C   C27       1.0  0.4030678586689547  0.24976009490292475  0.37581635122896256  1.0000
  C   C28       1.0  0.5969473906312928  0.7502286463267891  0.6241862930828076  1.0000
  C   C29       1.0  0.46714537179943955  0.5858060741667187  0.858593318817803  1.0000
  C   C30       1.0  0.5280852203640691  0.4175923065321996  0.22187769655221956  1.0000
  C   C31       1.0  0.47191280766402594  0.582405580535621  0.7781217646946812  1.0000
  C   C32       1.0  0.5398373987462719  0.7777593074667379  0.5575899191158058  1.0000
  C   C33       1.0  0.4601700500397712  0.22223496347318417  0.44240888492743835  1.0000
  C   C34       1.0  0.5297533321959662  0.8625383837610696  0.5550932676424836  1.0000
  N   N1        1.0  0.5099594499283953  0.46886185353462645  0.018013990323360898  1.0000
  N   N2        1.0  0.4900647384727606  0.531150329514652  0.9819895567536814  1.0000
  N   N3        1.0  0.5060422698023999  0.7196775184020936  0.4998063417153061  1.0000
  N   N4        1.0  0.4939572124865991  0.28031535883615527  0.5001945862370788  1.0000
  N   N5        1.0  0.47249789290377453  0.9733155667736211  0.47839096095196243  1.0000
  N   N6        1.0  0.5275206397374177  0.026682039733515198  0.5216064538231818  1.0000
  O   O1        1.0  0.4950396947905773  0.4232804913812132  0.3822210047491054  1.0000
  O   O2        1.0  0.4414434919610812  0.23057908572616975  0.3067973646700395  1.0000
  O   O3        1.0  0.670332864009289  0.7196991854901283  0.6165318332421277  1.0000
  O   O4        1.0  0.5585606454128466  0.7694069446693134  0.6931986007855286  1.0000
  O   O5        1.0  0.5049642379017527  0.5767086851679365  0.6177797708270986  1.0000
  O   O6        1.0  0.48441048167168793  0.5630914831719592  0.38041871884343686  1.0000
  O   O7        1.0  0.5155680378277268  0.4368934831009311  0.6195820383639655  1.0000
  O   O8        1.0  0.35511823950741933  0.42461513779547727  0.5102057982499204  1.0000
  O   O9        1.0  0.6448713385457835  0.5753838605631927  0.4897872424655532  1.0000
  O   O10       1.0  0.3560561885241923  0.5660888521013091  0.501192909254982  1.0000
  O   O11       1.0  0.6439404616915496  0.43390838683433935  0.49881575690950086  1.0000
  O   O12       1.0  0.3296709336497301  0.2802994292315261  0.3834671715288564  1.0000
