data_image0
_chemical_formula_structural       Cd2H32C32N20
_chemical_formula_sum              "Cd2 H32 C32 N20"
_cell_length_a       6.971910969994973
_cell_length_b       10.474324370478374
_cell_length_c       13.7003963721736
_cell_angle_alpha    105.05659763221831
_cell_angle_beta     103.18238691436973
_cell_angle_gamma    96.00746348103952

_space_group_name_H-M_alt    "P 1"
_space_group_IT_number       1

loop_
  _space_group_symop_operation_xyz
  'x, y, z'

loop_
  _atom_site_type_symbol
  _atom_site_label
  _atom_site_symmetry_multiplicity
  _atom_site_fract_x
  _atom_site_fract_y
  _atom_site_fract_z
  _atom_site_occupancy
  Cd  Cd1       1.0  0.6761997238351896  0.4040941135516931  0.44756795775327163  1.0000
  Cd  Cd2       1.0  0.3237915715564198  0.5959161282990733  0.5524373252555037  1.0000
  H   H1        1.0  0.4651697399908483  0.517912235060365  0.26272377204687564  1.0000
  H   H2        1.0  0.5348298802640201  0.48208479100176765  0.7372765042685714  1.0000
  H   H3        1.0  0.5175308734447768  0.6306848649647419  0.1925846373889186  1.0000
  H   H4        1.0  0.482467018714594  0.3693112492007344  0.807417465209717  1.0000
  H   H5        1.0  0.7239773792571497  0.7868908775180259  0.5385651169777574  1.0000
  H   H6        1.0  0.27601925882539996  0.2131171686174581  0.4614360252496326  1.0000
  H   H7        1.0  0.5474064859544399  0.0180388176121724  0.3239842068566787  1.0000
  H   H8        1.0  0.452591890552199  0.9819588581868713  0.6760072751835223  1.0000
  H   H9        1.0  0.9444374680338965  0.8243050134753317  0.9414623063175186  1.0000
  H   H10       1.0  0.055579554171828194  0.1756909483162943  0.058539098928307  1.0000
  H   H11       1.0  0.7474597929153646  0.8659726163868627  0.22250906209755075  1.0000
  H   H12       1.0  0.2525398093934683  0.1340242314597049  0.7774867992449828  1.0000
  H   H13       1.0  0.19811648476140686  0.9016966654629784  0.2851911661728296  1.0000
  H   H14       1.0  0.8018815016356841  0.09830526488362777  0.7148068634792609  1.0000
  H   H15       1.0  0.8200569597772753  0.9565043959039199  0.4501194616718323  1.0000
  H   H16       1.0  0.17994315678889447  0.043494310602163494  0.5498731374004535  1.0000
  H   H17       1.0  0.11858393430052422  0.6423741555201801  0.9768004869517668  1.0000
  H   H18       1.0  0.8814261575771524  0.35761798046925725  0.023203808453914107  1.0000
  H   H19       1.0  0.10526978483146374  0.5669945535920392  0.136206142172604  1.0000
  H   H20       1.0  0.8947302674070485  0.43299863375887787  0.8637978881344139  1.0000
  H   H21       1.0  0.6521353384336734  0.4567253453719787  0.07583818171968194  1.0000
  H   H22       1.0  0.34786923440259426  0.5432737395224336  0.9241645014262757  1.0000
  H   H23       1.0  0.40564458182090846  0.3919691794450769  0.07542084118985311  1.0000
  H   H24       1.0  0.5943603960799348  0.6080257994147543  0.9245789734883019  1.0000
  H   H25       1.0  0.6147961797121867  0.34368796107157346  0.1504507109214259  1.0000
  H   H26       1.0  0.385208134499912  0.6563101796417782  0.8495532354452493  1.0000
  H   H27       1.0  0.7282327467570365  0.9850177991611627  0.9836115123552672  1.0000
  H   H28       1.0  0.27178371931726275  0.014975888134621597  0.016382853557352903  1.0000
  H   H29       1.0  0.8149344694326215  0.06936672877680651  0.12051588059849647  1.0000
  H   H30       1.0  0.1850707521373637  0.9306290457511042  0.8794789917148549  1.0000
  H   H31       1.0  0.5811520483139674  0.9617125872935688  0.0704061202661279  1.0000
  H   H32       1.0  0.4188526260976032  0.038281001846271985  0.9295839202004643  1.0000
  C   C1        1.0  0.7691867989316847  0.5936670420274838  0.2932920281136192  1.0000
  C   C2        1.0  0.23080893613955303  0.4063320286551644  0.7067088826054616  1.0000
  C   C3        1.0  0.5673952151956312  0.5459875424331244  0.21883873238261486  1.0000
  C   C4        1.0  0.43260294456093346  0.4540096050211985  0.7811643144817637  1.0000
  C   C5        1.0  0.08140804056242254  0.6952446588645104  0.36470377599535914  1.0000
  C   C6        1.0  0.9185898173403044  0.3047624999133022  0.63530027387673  1.0000
  C   C7        1.0  0.2799158660390688  0.7744492365177535  0.38486619728754323  1.0000
  C   C8        1.0  0.7200791784243561  0.22555272869505663  0.6151322226606836  1.0000
  C   C9        1.0  0.6127341695599781  0.8113283732443223  0.47911935071569894  1.0000
  C   C10       1.0  0.38726608910001653  0.1886766246844047  0.5208809486711417  1.0000
  C   C11       1.0  0.9232316338047538  0.7125025694162233  0.1855434043049087  1.0000
  C   C12       1.0  0.0767620906187503  0.2874944075679409  0.8144547092875315  1.0000
  C   C13       1.0  0.5150046262327308  0.9393631095518559  0.3596267037716673  1.0000
  C   C14       1.0  0.4849976504125734  0.06063267013966109  0.6403678230089938  1.0000
  C   C15       1.0  0.9402489826030941  0.7949998117471038  0.011768742032096161  1.0000
  C   C16       1.0  0.0597630989852647  0.2049942100226403  0.9882331996984918  1.0000
  C   C17       1.0  0.8247366866972713  0.8159197684660525  0.16685717045409384  1.0000
  C   C18       1.0  0.17526024725709277  0.18407820694075383  0.8331414971079525  1.0000
  C   C19       1.0  0.3184184287614684  0.8734895750952208  0.3368288455287002  1.0000
  C   C20       1.0  0.6815795456715958  0.1265122364410018  0.6631662408081169  1.0000
  C   C21       1.0  0.6651524474286674  0.906803242526479  0.43066299680084097  1.0000
  C   C22       1.0  0.33484605023475206  0.0932005167770456  0.5693310347521816  1.0000
  C   C23       1.0  0.0382437175348898  0.6908847105818197  0.031384263669302484  1.0000
  C   C24       1.0  0.9617589881030493  0.3091072006958838  0.9686132812741164  1.0000
  C   C25       1.0  0.031140797417620558  0.6482816435099324  0.1189373955890645  1.0000
  C   C26       1.0  0.9688565685203867  0.35171249318565156  0.8810650259645527  1.0000
  C   C27       1.0  0.8336266285218271  0.8595747141513783  0.07929921067675141  1.0000
  C   C28       1.0  0.16638154993685106  0.14042117402330231  0.9206989504845566  1.0000
  C   C29       1.0  0.5601958140226556  0.42695159561689167  0.12412223830656191  1.0000
  C   C30       1.0  0.4398055462917441  0.5730464611522877  0.8758791550409697  1.0000
  C   C31       1.0  0.7339780684236601  0.9746943920942002  0.061786087835301436  1.0000
  C   C32       1.0  0.2660401347191623  0.02530029620601939  0.9382086592805762  1.0000
  N   N1        1.0  0.8344270660409732  0.1745158567011131  0.3272755558515072  1.0000
  N   N2        1.0  0.16555926779621893  0.8254922372096016  0.672725112840304  1.0000
  N   N3        1.0  0.6638652029193964  0.5813544143933812  0.5971495610052528  1.0000
  N   N4        1.0  0.33612931396709195  0.4186569446904045  0.402859219288402  1.0000
  N   N5        1.0  0.7781218414863033  0.6010619622881562  0.6824009748061927  1.0000
  N   N6        1.0  0.22186692301821856  0.39894426779942904  0.3176033016885498  1.0000
  N   N7        1.0  0.7005074591180217  0.23624064827538407  0.31082512631480336  1.0000
  N   N8        1.0  0.2994794069225435  0.763769482510419  0.6891766950796594  1.0000
  N   N9        1.0  0.8341367652720777  0.5668680151939612  0.3835773540130418  1.0000
  N   N10       1.0  0.16586376995812907  0.4331381051313911  0.6164260971259949  1.0000
  N   N11       1.0  0.02824524250503658  0.6302410778818341  0.4282557255282384  1.0000
  N   N12       1.0  0.971753144610055  0.3697680880684687  0.5717487412176894  1.0000
  N   N13       1.0  0.42507944897599254  0.7460004620398023  0.4560870076930783  1.0000
  N   N14       1.0  0.5749171831245404  0.25400752469048626  0.5439126628766715  1.0000
  N   N15       1.0  0.9219544601707522  0.673975071579406  0.2786803067360637  1.0000
  N   N16       1.0  0.07803926724376  0.32602193510736294  0.7213185426851894  1.0000
  N   N17       1.0  0.8896626054901373  0.6182403740378958  0.7642039230113439  1.0000
  N   N18       1.0  0.110334211933889  0.3817629486105005  0.23580370808597456  1.0000
  N   N19       1.0  0.9605586076050513  0.10978564176945578  0.3400107124243519  1.0000
  N   N20       1.0  0.03942892810627544  0.8902213865680154  0.6599884489392382  1.0000
