data_image0
_chemical_formula_structural       H28Pb2C36Br4N8
_chemical_formula_sum              "H28 Pb2 C36 Br4 N8"
_cell_length_a       4.227554591031751
_cell_length_b       13.911895131043936
_cell_length_c       16.22693857953022
_cell_angle_alpha    104.42847162155543
_cell_angle_beta     90.0002077468419
_cell_angle_gamma    90.00032584273195

_space_group_name_H-M_alt    "P 1"
_space_group_IT_number       1

loop_
  _space_group_symop_operation_xyz
  'x, y, z'

loop_
  _atom_site_type_symbol
  _atom_site_label
  _atom_site_symmetry_multiplicity
  _atom_site_fract_x
  _atom_site_fract_y
  _atom_site_fract_z
  _atom_site_occupancy
  H   H1        1.0  0.7445000032742825  0.471781579554616  0.19860433180679146  1.0000
  H   H2        1.0  0.7445178499864369  0.0282201780180813  0.3013978694515416  1.0000
  H   H3        1.0  0.25548673419259416  0.5282176416159319  0.8013938743128506  1.0000
  H   H4        1.0  0.25546652208733184  0.971781997588451  0.6986022240109266  1.0000
  H   H5        1.0  0.8442051797391985  0.6524658348174132  0.2653240227892298  1.0000
  H   H6        1.0  0.844225716824596  0.8475312905076111  0.23467487816036242  1.0000
  H   H7        1.0  0.15578392315720893  0.3475333935061755  0.7346735686290132  1.0000
  H   H8        1.0  0.15578467499472026  0.152470928029814  0.7653215271020459  1.0000
  H   H9        1.0  0.30731440793346815  0.6182263783360185  0.48280816385771186  1.0000
  H   H10       1.0  0.3073136784761559  0.881772551936635  0.017191864421185754  1.0000
  H   H11       1.0  0.6926794258143829  0.3817706091369787  0.5171901635162754  1.0000
  H   H12       1.0  0.6926848861876921  0.11822813216481624  0.9828085147852336  1.0000
  H   H13       1.0  0.22514651154300222  0.4395858731247984  0.4067116311070009  1.0000
  H   H14       1.0  0.22514791290527114  0.06041258170689192  0.0932862679954525  1.0000
  H   H15       1.0  0.7748733419962691  0.5604103221376208  0.5932908347223674  1.0000
  H   H16       1.0  0.7748672097440591  0.9395897011901584  0.9067046049425971  1.0000
  H   H17       1.0  0.5023624758505463  0.7765020277356741  0.48621645948610864  1.0000
  H   H18       1.0  0.5023634708390363  0.7234965064413289  0.013789827442103353  1.0000
  H   H19       1.0  0.49761716531575945  0.22349568045549265  0.5137838764716565  1.0000
  H   H20       1.0  0.4976114395348361  0.2765003165497433  0.9862226380892951  1.0000
  H   H21       1.0  0.2183808653931223  0.9287262791821149  0.35592204509356423  1.0000
  H   H22       1.0  0.21838316656708662  0.571274708695718  0.14407650664139035  1.0000
  H   H23       1.0  0.7816082375318629  0.0712744120597151  0.6440777194030789  1.0000
  H   H24       1.0  0.7816035709039396  0.4287245053243184  0.8559223141813348  1.0000
  H   H25       1.0  0.6387716525185712  0.9002745129412306  0.5672180598950051  1.0000
  H   H26       1.0  0.6387547916736622  0.599721472308218  0.9327794381949774  1.0000
  H   H27       1.0  0.36121035405697915  0.09972172518371283  0.4327807176891128  1.0000
  H   H28       1.0  0.3612201186204516  0.400278512486075  0.06721708829164193  1.0000
  Pb  Pb1       1.0  0.4271611618606741  0.24999254948981087  0.25001605326357185  1.0000
  Pb  Pb2       1.0  0.5730148103383855  0.7500043380710651  0.7499908800824286  1.0000
  C   C1        1.0  0.6500537334714452  0.5076298567269789  0.2614239394482284  1.0000
  C   C2        1.0  0.6500486472890897  0.9923697858847974  0.2385784181042895  1.0000
  C   C3        1.0  0.3499448311721168  0.4923693501552152  0.7385754960859432  1.0000
  C   C4        1.0  0.3499404556395831  0.0076324111783208  0.7614198312522904  1.0000
  C   C5        1.0  0.7077383880429055  0.6074260334753137  0.2987263376496261  1.0000
  C   C6        1.0  0.7077356548505946  0.8925722554209516  0.20127515788829003  1.0000
  C   C7        1.0  0.29226254198984253  0.39256946963551104  0.7012716607602203  1.0000
  C   C8        1.0  0.29227000612995363  0.10743142602964892  0.7987234204491713  1.0000
  C   C9        1.0  0.5874854241484544  0.649321506310869  0.38061364369924894  1.0000
  C   C10       1.0  0.5874571298601269  0.8506727855733727  0.11938931798489703  1.0000
  C   C11       1.0  0.4125155058646968  0.3506702501230239  0.6193866058030651  1.0000
  C   C12       1.0  0.4125177804671765  0.1493271420168583  0.8806121261263515  1.0000
  C   C13       1.0  0.4081237466067975  0.5881295468950328  0.4197705577633287  1.0000
  C   C14       1.0  0.4081173483711993  0.9118688570166428  0.08022944872845277  1.0000
  C   C15       1.0  0.5918724525832602  0.4118666697935823  0.5802300639400642  1.0000
  C   C16       1.0  0.5918954088859465  0.08813335437280762  0.9197675712387083  1.0000
  C   C17       1.0  0.3625075107593362  0.489214575333925  0.3777830767992399  1.0000
  C   C18       1.0  0.36249418832526453  0.010784152116542604  0.12221686084451733  1.0000
  C   C19       1.0  0.637502881081879  0.5107838250214911  0.6222217265864245  1.0000
  C   C20       1.0  0.6375067417468969  0.9892180878622768  0.8777777003019553  1.0000
  C   C21       1.0  0.6448200888614791  0.7517919708310504  0.42802297393785693  1.0000
  C   C22       1.0  0.6448034206786987  0.7482039353378198  0.07197978318116331  1.0000
  C   C23       1.0  0.35516664859317615  0.24820651530512813  0.5719744529941195  1.0000
  C   C24       1.0  0.35516912421953617  0.2517944721275854  0.9280244054746378  1.0000
  C   C25       1.0  0.9162670219816036  0.9025837353213221  0.454508654081913  1.0000
  C   C26       1.0  0.9162731904988632  0.5974172837971494  0.04548871247585145  1.0000
  C   C27       1.0  0.083719715505552  0.09741696306848271  0.5454904957099773  1.0000
  C   C28       1.0  0.08373010501158971  0.402583436061903  0.9545085932185204  1.0000
  C   C29       1.0  0.12195469892498072  0.9612639213965297  0.41907350346302524  1.0000
  C   C30       1.0  0.12196971799031078  0.5387390866038402  0.08092540523783501  1.0000
  C   C31       1.0  0.8780344040283551  0.03873898924943831  0.5809273691904482  1.0000
  C   C32       1.0  0.8780146540995871  0.4612645733724535  0.919075017193798  1.0000
  C   C33       1.0  0.7965391771089047  0.9431798983762791  0.5371094722516078  1.0000
  C   C34       1.0  0.7965432159692584  0.5568245744040752  0.9628912879188649  1.0000
  C   C35       1.0  0.20345229125828718  0.0568200220811761  0.4628925865744336  1.0000
  C   C36       1.0  0.2034364252532939  0.4431790855671523  0.037109134509414346  1.0000
  Br  Br1       1.0  0.9155673345072657  0.24842133281237722  0.3817428538845818  1.0000
  Br  Br2       1.0  0.9156034039322164  0.2515835953080625  0.11827438565155295  1.0000
  Br  Br3       1.0  0.0844383266461648  0.7515865872323033  0.6182751524527391  1.0000
  Br  Br4       1.0  0.0844613928374685  0.7484163967329636  0.8817215261956053  1.0000
  N   N1        1.0  0.4823181816948292  0.44886505656639747  0.30007786107935175  1.0000
  N   N2        1.0  0.48230194891277034  0.05113760256411842  0.1999261420996348  1.0000
  N   N3        1.0  0.517694575640455  0.551139288421105  0.6999276434815799  1.0000
  N   N4        1.0  0.5176966157418476  0.9488661217819329  0.8000687480143401  1.0000
  N   N5        1.0  0.8526971187958666  0.807098848197697  0.4040937288870127  1.0000
  N   N6        1.0  0.8527010335753219  0.6929050250080168  0.09590236151135663  1.0000
  N   N7        1.0  0.14728725322856925  0.19290190024312184  0.5959011179816545  1.0000
  N   N8        1.0  0.147283338482076  0.3070964227146434  0.9040963380603629  1.0000
