data_image0
_chemical_formula_structural       Zn4Ni4H48C56N32
_chemical_formula_sum              "Zn4 Ni4 H48 C56 N32"
_cell_length_a       7.521120818848192
_cell_length_b       9.606026855293138
_cell_length_c       24.795987317073713
_cell_angle_alpha    85.72575426299004
_cell_angle_beta     81.27174915732108
_cell_angle_gamma    66.9244038461604

_space_group_name_H-M_alt    "P 1"
_space_group_IT_number       1

loop_
  _space_group_symop_operation_xyz
  'x, y, z'

loop_
  _atom_site_type_symbol
  _atom_site_label
  _atom_site_symmetry_multiplicity
  _atom_site_fract_x
  _atom_site_fract_y
  _atom_site_fract_z
  _atom_site_occupancy
  Zn  Zn1       1.0  0.002673121920466265  0.25000638187444224  0.7499690840859117  1.0000
  Zn  Zn2       1.0  0.9973281303334646  0.7499956744516897  0.25003077219572833  1.0000
  Zn  Zn3       1.0  0.9999982630725407  0.9999995992039106  3.8811023017411073e-07  1.0000
  Zn  Zn4       1.0  7.374121083306972e-07  0.5000010718759853  0.49999887654531955  1.0000
  Ni  Ni1       1.0  0.5005883590146779  0.12781659480535273  0.8753999947969573  1.0000
  Ni  Ni2       1.0  0.503839353979771  0.3722531412020516  0.6245274367107001  1.0000
  Ni  Ni3       1.0  0.4994072670664949  0.8721854876333667  0.1245987469154386  1.0000
  Ni  Ni4       1.0  0.4961618185855554  0.6277455412688298  0.3754715001349282  1.0000
  H   H1        1.0  0.9339587962341935  0.26892519389222264  0.8771715971584798  1.0000
  H   H2        1.0  0.08017192670937612  0.23097111618441354  0.6227766978870192  1.0000
  H   H3        1.0  0.06603605590206028  0.7310700661538406  0.1228286558973011  1.0000
  H   H4        1.0  0.919832060854084  0.769029796243494  0.3772236883851789  1.0000
  H   H5        1.0  0.1683669459341743  0.6518850279609085  0.9939744913635451  1.0000
  H   H6        1.0  0.8138962991852522  0.8477630847019029  0.505931612807444  1.0000
  H   H7        1.0  0.8316378484221757  0.3481125000361375  0.006025440418809998  1.0000
  H   H8        1.0  0.18610725378495377  0.15224353960106643  0.4940663357144998  1.0000
  H   H9        1.0  0.8226431557466112  0.5977690869093095  0.7539877196770135  1.0000
  H   H10       1.0  0.17416052133275858  0.9022710287325354  0.7460071838062633  1.0000
  H   H11       1.0  0.1773635709499076  0.4022351676470067  0.24601498086964566  1.0000
  H   H12       1.0  0.8258390485961229  0.09773102032556122  0.2539930143035746  1.0000
  H   H13       1.0  0.6844084505178643  0.8011594895520205  0.8253578716535088  1.0000
  H   H14       1.0  0.31020617207413176  0.6988238126199137  0.6746690803727091  1.0000
  H   H15       1.0  0.3155898864520735  0.19883792411511084  0.17464724260318576  1.0000
  H   H16       1.0  0.6897869109226701  0.3011759546040126  0.3253320270746514  1.0000
  H   H17       1.0  0.30471554096678194  0.45139030991641266  0.92154717827826  1.0000
  H   H18       1.0  0.6775399906458328  0.048459936859607915  0.578291284571975  1.0000
  H   H19       1.0  0.6952949444780924  0.5486094820711573  0.0784526509409247  1.0000
  H   H20       1.0  0.3224686459709926  0.9515409884505748  0.4217084796027989  1.0000
  H   H21       1.0  0.07368416682278693  0.9855256932112509  0.872583379531214  1.0000
  H   H22       1.0  0.9324983456902418  0.5143857565003388  0.6274072080472236  1.0000
  H   H23       1.0  0.9263141296521552  0.0144729552261254  0.1274171093041616  1.0000
  H   H24       1.0  0.06750151674965828  0.48561524614670754  0.37258917838651223  1.0000
  H   H25       1.0  0.3172291454964979  0.5707085759252238  0.770522031235174  1.0000
  H   H26       1.0  0.658412119673791  0.9295956060208682  0.7293553362187595  1.0000
  H   H27       1.0  0.682765442373011  0.4292957414318863  0.2294779752268568  1.0000
  H   H28       1.0  0.3415864840850062  0.0704030797575896  0.2706434775089264  1.0000
  H   H29       1.0  0.2713728746819653  0.42767062492040964  0.8134262135363244  1.0000
  H   H30       1.0  0.5125140166746005  0.07241816200374271  0.6863246138802592  1.0000
  H   H31       1.0  0.7286234064619137  0.5723302974302272  0.1865738033820179  1.0000
  H   H32       1.0  0.4874835340997021  0.9275816749409743  0.3136733280286563  1.0000
  H   H33       1.0  0.4972240677942066  0.4452742629787709  0.8094440391224964  1.0000
  H   H34       1.0  0.7519121165197261  0.05488836350252061  0.6903774956363051  1.0000
  H   H35       1.0  0.5027738809018841  0.5547255828877696  0.19055349939923613  1.0000
  H   H36       1.0  0.2480876957772509  0.9451114327935389  0.30962224449825015  1.0000
  H   H37       1.0  0.6972597098261415  0.6893174350711606  0.9765146826592781  1.0000
  H   H38       1.0  0.3628667500949661  0.8103271716175725  0.5235001562917034  1.0000
  H   H39       1.0  0.3027322919418722  0.31067547241901394  0.023489611239156695  1.0000
  H   H40       1.0  0.6371411016276127  0.18967033357445476  0.47650076694193894  1.0000
  H   H41       1.0  0.5013855547331829  0.8035090985721638  0.9405508566405345  1.0000
  H   H42       1.0  0.24527423771416343  0.6962476102046723  0.5595207379668921  1.0000
  H   H43       1.0  0.4986075649350921  0.19648494785487713  0.059453091944256194  1.0000
  H   H44       1.0  0.754731443123667  0.303749907216755  0.4404796587616175  1.0000
  H   H45       1.0  0.7188813849113912  0.8359063797648008  0.9306343259082651  1.0000
  H   H46       1.0  0.4852902265266792  0.6638937972162322  0.5694232763447502  1.0000
  H   H47       1.0  0.2811107833596365  0.16408538713473322  0.06937037486277829  1.0000
  H   H48       1.0  0.5147130558311516  0.3361070689487704  0.43057918842232107  1.0000
  C   C1        1.0  0.8778689152179521  0.38851616865444794  0.8656901953342312  1.0000
  C   C2        1.0  0.13207119870673262  0.11136182996989423  0.6342575191909745  1.0000
  C   C3        1.0  0.12212642547800112  0.6114790718941734  0.13431092605488  1.0000
  C   C4        1.0  0.8679306179719859  0.888639094687413  0.36574234057609795  1.0000
  C   C5        1.0  0.7042098547439364  0.12551567868697325  0.8238954876553564  1.0000
  C   C6        1.0  0.653504816767338  0.3748007294687455  0.6760393213343575  1.0000
  C   C7        1.0  0.29578522168527854  0.874488619172709  0.17610538714001217  1.0000
  C   C8        1.0  0.3465013121352029  0.6251980032254922  0.3239573183061565  1.0000
  C   C9        1.0  0.6493538863284768  0.1323622930683825  0.926923461654944  1.0000
  C   C10       1.0  0.7087433780488297  0.3676368926428922  0.5730260429060507  1.0000
  C   C11       1.0  0.350637666073446  0.8676352425447291  0.07307625792482499  1.0000
  C   C12       1.0  0.29125729118396027  0.6323607255732854  0.42696988903784217  1.0000
  C   C13       1.0  0.35212664064530946  0.123515102496377  0.8237808008640001  1.0000
  C   C14       1.0  0.2994560423375603  0.3764350107035455  0.6761204050370536  1.0000
  C   C15       1.0  0.6478639924271686  0.8764926505158713  0.17621739691607977  1.0000
  C   C16       1.0  0.7005520408037924  0.623563644000953  0.323879707936797  1.0000
  C   C17       1.0  0.2978977884820681  0.12760593219140054  0.9268828609383347  1.0000
  C   C18       1.0  0.35275465212559687  0.37215705747853894  0.5729960406668582  1.0000
  C   C19       1.0  0.7021053994143144  0.8723904763662207  0.0731165478243341  1.0000
  C   C20       1.0  0.6472441071868926  0.6278438899837795  0.42700282764892705  1.0000
  C   C21       1.0  0.17824379783238023  0.6808010018063158  0.9503988290294811  1.0000
  C   C22       1.0  0.8094055568064885  0.818972313076735  0.5495230343291411  1.0000
  C   C23       1.0  0.8217638983365133  0.3191942417018581  0.04960203961605458  1.0000
  C   C24       1.0  0.19059912501329268  0.1810320478885856  0.45047492116368204  1.0000
  C   C25       1.0  0.8159427559184986  0.5705462664064029  0.7977137964051764  1.0000
  C   C26       1.0  0.18392859629295785  0.9294424975719837  0.7022707645989498  1.0000
  C   C27       1.0  0.18405891997936416  0.4294534803191752  0.2022881453422016  1.0000
  C   C28       1.0  0.8160711401389306  0.0705584108954653  0.2977298403834965  1.0000
  C   C29       1.0  0.7404338516602564  0.6815759720194948  0.8370633026887404  1.0000
  C   C30       1.0  0.25853865166885726  0.8183820836547612  0.6629371086182657  1.0000
  C   C31       1.0  0.2595639967499749  0.3184214611450784  0.1629409432346236  1.0000
  C   C32       1.0  0.7414590694319756  0.1816210987259552  0.3370630244471613  1.0000
  C   C33       1.0  0.25308623691688586  0.5714002531292053  0.9104638153743847  1.0000
  C   C34       1.0  0.7350975774069824  0.9284881365087333  0.58941718302529  1.0000
  C   C35       1.0  0.7469190569484849  0.4285938530958974  0.08953733702581698  1.0000
  C   C36       1.0  0.26491096857191804  0.07151281722070732  0.4105813094289701  1.0000
  C   C37       1.0  0.12580251225104194  0.8655174351673055  0.8834345229720099  1.0000
  C   C38       1.0  0.875374533045566  0.6343841405782487  0.6165402521587282  1.0000
  C   C39       1.0  0.8742029262187002  0.13448233501616613  0.1165663317317822  1.0000
  C   C40       1.0  0.12462678030060904  0.36561571982435487  0.3834566027066018  1.0000
  C   C41       1.0  0.26055732599376574  0.6193483416455765  0.8555256391513096  1.0000
  C   C42       1.0  0.7358140105316551  0.8806238915512598  0.6443718843003481  1.0000
  C   C43       1.0  0.7394516326797458  0.38065370475781896  0.1444745864841863  1.0000
  C   C44       1.0  0.26419141316524275  0.11937479488008053  0.3556268338350392  1.0000
  C   C45       1.0  0.3400824545543343  0.5104362369487491  0.8096744617955732  1.0000
  C   C46       1.0  0.6602808120723083  0.9896925490454648  0.690165853892303  1.0000
  C   C47       1.0  0.6599169488715402  0.48956695269999534  0.19032532944164868  1.0000
  C   C48       1.0  0.3397192425927642  0.010304994488556908  0.3098334282669696  1.0000
  C   C49       1.0  0.7388134086825884  0.6358989083919654  0.8922410343040851  1.0000
  C   C50       1.0  0.26663344612357753  0.8639980410001016  0.6077473624993458  1.0000
  C   C51       1.0  0.26117810452572593  0.36409401859565094  0.10776239126101218  1.0000
  C   C52       1.0  0.7333666882300918  0.1360028763891705  0.3922528390959243  1.0000
  C   C53       1.0  0.660848872304008  0.7466115246030753  0.9375042284462793  1.0000
  C   C54       1.0  0.3447210139808945  0.7531621906460801  0.5625293432740648  1.0000
  C   C55       1.0  0.3391455317675279  0.2533825201701704  0.06249978169748969  1.0000
  C   C56       1.0  0.655282908666805  0.24683643167870886  0.43747226013054785  1.0000
  N   N1        1.0  0.8853166841918425  0.4225513429001353  0.8121372374032344  1.0000
  N   N2        1.0  0.11995178518404266  0.07741673218366431  0.6878250128632145  1.0000
  N   N3        1.0  0.11468538962780184  0.577448412747266  0.18786430095696716  1.0000
  N   N4        1.0  0.880050197997683  0.9225830518829952  0.3121752537764664  1.0000
  N   N5        1.0  0.11401806815859328  0.8293770245798701  0.9368079216118942  1.0000
  N   N6        1.0  0.8804253037664866  0.6704446896289016  0.5631605362169481  1.0000
  N   N7        1.0  0.8859838243852137  0.1706227879060478  0.06319107330727998  1.0000
  N   N8        1.0  0.11957680924676597  0.32955967464398844  0.4368372961579253  1.0000
  N   N9        1.0  0.16734589380079992  0.11889707088738533  0.9573855139078374  1.0000
  N   N10       1.0  0.24413645190639238  0.380730526445447  0.5424726122274492  1.0000
  N   N11       1.0  0.8326516068305807  0.8811015597063446  0.042615781701890385  1.0000
  N   N12       1.0  0.7558559541290606  0.6192772054155783  0.45752651544494677  1.0000
  N   N13       1.0  0.24511770880599926  0.12940986486161424  0.7931130454435049  1.0000
  N   N14       1.0  0.16765796565918112  0.3704893506619841  0.7067802176137903  1.0000
  N   N15       1.0  0.7548761333628774  0.8705956410028436  0.206884414092066  1.0000
  N   N16       1.0  0.8323405622345273  0.6295104472878635  0.2932194609617866  1.0000
  N   N17       1.0  0.757078574808446  0.12560149733716494  0.9575035216521002  1.0000
  N   N18       1.0  0.8403986509110051  0.37430097679730073  0.5424715633114018  1.0000
  N   N19       1.0  0.24291418613164936  0.8743971487935414  0.042497124334545285  1.0000
  N   N20       1.0  0.159600491550428  0.6256988958347094  0.45752476504880235  1.0000
  N   N21       1.0  0.8364361457830827  0.13072768217473651  0.7932523339570279  1.0000
  N   N22       1.0  0.7603541239110425  0.36951318779582465  0.7066748814431135  1.0000
  N   N23       1.0  0.16355780179655696  0.8692788790225947  0.20674853386746148  1.0000
  N   N24       1.0  0.239654353328575  0.630480989803857  0.2933230438596651  1.0000
  N   N25       1.0  0.1955560041065778  0.7682787054053932  0.8423897077060329  1.0000
  N   N26       1.0  0.8068689556092037  0.7317150680068353  0.657548353534473  1.0000
  N   N27       1.0  0.8044477372652777  0.23171997375791167  0.15760935225755185  1.0000
  N   N28       1.0  0.19313212631819712  0.26828364288330414  0.34244931159065567  1.0000
  N   N29       1.0  0.8087047468148398  0.48744257457292445  0.9061931965074307  1.0000
  N   N30       1.0  0.20228960392582  0.012423530805413908  0.5937701682736218  1.0000
  N   N31       1.0  0.19128683130924173  0.5125526425178109  0.09380901192525928  1.0000
  N   N32       1.0  0.7977118148311176  0.9875773849300702  0.4062300948806268  1.0000
