data_image0
_chemical_formula_structural       Al2H15C30N3O18
_chemical_formula_sum              "Al2 H15 C30 N3 O18"
_cell_length_a       4.090667733508709
_cell_length_b       17.169985706000272
_cell_length_c       17.17007938573605
_cell_angle_alpha    120.00014638246445
_cell_angle_beta     89.99878249756104
_cell_angle_gamma    90.00302050912384

_space_group_name_H-M_alt    "P 1"
_space_group_IT_number       1

loop_
  _space_group_symop_operation_xyz
  'x, y, z'

loop_
  _atom_site_type_symbol
  _atom_site_label
  _atom_site_symmetry_multiplicity
  _atom_site_fract_x
  _atom_site_fract_y
  _atom_site_fract_z
  _atom_site_occupancy
  Al  Al1       1.0  0.07271012114868819  0.5000021050461997  0.49999177698698105  1.0000
  Al  Al2       1.0  0.9911675918550032  0.1666688363578501  0.8333330619519899  1.0000
  H   H1        1.0  0.788400037211666  0.4030021553502224  0.8277415838274821  1.0000
  H   H2        1.0  0.9492280160360879  0.17482790896941952  0.5739776125396716  1.0000
  H   H3        1.0  0.330437547475789  0.12042545431971521  0.529473696831765  1.0000
  H   H4        1.0  0.3995296862657369  0.2085832536279072  0.44934180576964183  1.0000
  H   H5        1.0  0.012406000673557604  0.26003913655213756  0.48969203351095564  1.0000
  H   H6        1.0  0.7883953504988954  0.9247669799200156  0.5970129900363049  1.0000
  H   H7        1.0  0.9493834005277719  0.8991105735200479  0.8251748346672159  1.0000
  H   H8        1.0  0.33058340420956966  0.9090142256854324  0.8795725958636852  1.0000
  H   H9        1.0  0.3996995500200029  0.7407233656469574  0.7914091829934335  1.0000
  H   H10       1.0  0.012541274156077998  0.7296226126990747  0.739946908321933  1.0000
  H   H11       1.0  0.7882754209465404  0.17225162893328164  0.075247119507992  1.0000
  H   H12       1.0  0.9494367736798921  0.4260637052907655  0.10085868755309949  1.0000
  H   H13       1.0  0.33068238241500586  0.4705561067801796  0.09096292994826882  1.0000
  H   H14       1.0  0.3997581047621707  0.5506843324206443  0.2592541641560331  1.0000
  H   H15       1.0  0.0125573180816758  0.5103235416978081  0.2703467189890745  1.0000
  C   C1        1.0  0.5715107490406909  0.4180995322305848  0.36448427765267877  1.0000
  C   C2        1.0  0.5715118057481662  0.4463886622035888  0.5818925047206919  1.0000
  C   C3        1.0  0.5715529845750921  0.6355080556912754  0.5536083616093137  1.0000
  C   C4        1.0  0.49369231472314806  0.24166577229193828  0.7716388533694457  1.0000
  C   C5        1.0  0.49368715272124325  0.029968201807051377  0.7583405116101362  1.0000
  C   C6        1.0  0.4936848107951803  0.2283680782296998  0.9700257247837101  1.0000
  C   C7        1.0  0.5097779824491016  0.2929567377597737  0.7233305000546154  1.0000
  C   C8        1.0  0.5509550191423784  0.39638499455166715  0.6326502711591999  1.0000
  C   C9        1.0  0.3756926957141502  0.2628330283085776  0.638214080877802  1.0000
  C   C10       1.0  0.6843068519029387  0.42621345145484213  0.7188272184369496  1.0000
  C   C11       1.0  0.40383469128695276  0.3120762590413762  0.5936926026204006  1.0000
  C   C12       1.0  0.6721353009156843  0.376052055562589  0.7622797967166762  1.0000
  C   C13       1.0  0.20191655007479176  0.1852439994074119  0.5597225338657311  1.0000
  C   C14       1.0  0.23976932816654536  0.2400050361890039  0.5086560156811047  1.0000
  C   C15       1.0  0.5098401315783434  0.9303639997259057  0.7070487262822526  1.0000
  C   C16       1.0  0.5510027208846395  0.7362681080283481  0.6036207547177455  1.0000
  C   C17       1.0  0.3757912180753634  0.8753678931070752  0.7371708877589995  1.0000
  C   C18       1.0  0.6843452822107993  0.7926239312500699  0.5737964198034291  1.0000
  C   C19       1.0  0.4039179836289223  0.7816002213969285  0.6879274195578232  1.0000
  C   C20       1.0  0.6721816249582417  0.8862378963694226  0.6239520099485177  1.0000
  C   C21       1.0  0.20205087212730896  0.8744473721695415  0.8147606191765179  1.0000
  C   C22       1.0  0.23990848051501248  0.7686173311932979  0.7599942298501077  1.0000
  C   C23       1.0  0.5098018346330022  0.27668226373445753  0.06962454733624665  1.0000
  C   C24       1.0  0.5509677181948052  0.3673555155118606  0.26373156599963465  1.0000
  C   C25       1.0  0.37578653071937407  0.36180341070711114  0.12462256526536206  1.0000
  C   C26       1.0  0.684271590327171  0.2811718831886126  0.20737785760708502  1.0000
  C   C27       1.0  0.4039000813052738  0.4063271729446144  0.21838766825935343  1.0000
  C   C28       1.0  0.6720919779602639  0.23772282940304024  0.113769390147084  1.0000
  C   C29       1.0  0.2021069385253611  0.4403102962044941  0.1255289000490477  1.0000
  C   C30       1.0  0.23994036174756417  0.4913754823634946  0.23136066617295367  1.0000
  N   N1        1.0  0.8479135348866365  0.5143463784959864  0.7662566644202045  1.0000
  N   N2        1.0  0.8479414349054224  0.7519182961133737  0.48566135218184303  1.0000
  N   N3        1.0  0.8477930388729578  0.23373189835793087  0.24808127211597514  1.0000
  O   O1        1.0  0.8116829501870555  0.6029167919788139  0.5747497885738185  1.0000
  O   O2        1.0  0.811656873375469  0.47183926064330717  0.39707267115225875  1.0000
  O   O3        1.0  0.8116291072358879  0.4252359121869135  0.5281479945882452  1.0000
  O   O4        1.0  0.3371829397289545  0.5922138190507625  0.5015892407714233  1.0000
  O   O5        1.0  0.33716899582957893  0.4983979873164303  0.5906050051367729  1.0000
  O   O6        1.0  0.337137900454863  0.4093810362133042  0.4077796326532095  1.0000
  O   O7        1.0  0.7217558150032771  0.17218776489210091  0.9273165810422485  1.0000
  O   O8        1.0  0.7217837038143955  0.25513658121253274  0.827813134943881  1.0000
  O   O9        1.0  0.721738239452975  0.07268592097864963  0.7448700401547583  1.0000
  O   O10       1.0  0.25263475577892075  0.24680267039587303  0.9348184718394777  1.0000
  O   O11       1.0  0.2525984253501362  0.06516595569251411  0.8119736972627936  1.0000
  O   O12       1.0  0.2526288732317426  0.18802703522850103  0.7532021558425087  1.0000
  O   O13       1.0  0.8131191760351089  0.5647712077521521  0.734471512142811  1.0000
  O   O14       1.0  0.010362326139244302  0.5330641584164653  0.8344221880762603  1.0000
  O   O15       1.0  0.8131482301095475  0.6697040149719272  0.43523566535223773  1.0000
  O   O16       1.0  0.010394826780228099  0.8013755410287333  0.46695408023857254  1.0000
  O   O17       1.0  0.8130528923849313  0.2655293080958359  0.3302973367387949  1.0000
  O   O18       1.0  0.010107936378737702  0.1655420693618055  0.19861868812900238  1.0000
