data_image0
_chemical_formula_structural       Zn2H36C28N4O10
_chemical_formula_sum              "Zn2 H36 C28 N4 O10"
_cell_length_a       7.132616970526976
_cell_length_b       10.04219154212189
_cell_length_c       10.84881308072446
_cell_angle_alpha    112.72163528406244
_cell_angle_beta     102.850886837143
_cell_angle_gamma    103.40260844964291

_space_group_name_H-M_alt    "P 1"
_space_group_IT_number       1

loop_
  _space_group_symop_operation_xyz
  'x, y, z'

loop_
  _atom_site_type_symbol
  _atom_site_label
  _atom_site_symmetry_multiplicity
  _atom_site_fract_x
  _atom_site_fract_y
  _atom_site_fract_z
  _atom_site_occupancy
  Zn  Zn1       1.0  0.3958859917556482  0.6461875489414127  0.2923257954609611  1.0000
  Zn  Zn2       1.0  0.6041144979244918  0.3538125760916487  0.7076740775749502  1.0000
  H   H1        1.0  0.5697965499121694  0.7138052380471294  0.5716921190693827  1.0000
  H   H2        1.0  0.5019807898732296  0.8583421389329118  0.571529137996649  1.0000
  H   H3        1.0  0.43020537795511166  0.28619488732592663  0.42830796277581146  1.0000
  H   H4        1.0  0.4980196998069033  0.14165798610014238  0.4284707350392625  1.0000
  H   H5        1.0  0.09096847917430749  0.08600477398330499  0.2602667014200791  1.0000
  H   H6        1.0  0.6698601936600992  0.17403753546890496  0.26027105807182244  1.0000
  H   H7        1.0  0.9090251945219167  0.9139930670057836  0.7397350618328533  1.0000
  H   H8        1.0  0.33014227131523927  0.8259637375639103  0.7397285858525823  1.0000
  H   H9        1.0  0.12946026292175364  0.1871852851756159  0.9153380971712226  1.0000
  H   H10       1.0  0.28523729701484524  0.7282301254846358  0.9151802261444363  1.0000
  H   H11       1.0  0.8705407913183906  0.8128160191060587  0.08466596197526861  1.0000
  H   H12       1.0  0.7147651734508785  0.2717711538659485  0.08482034258624081  1.0000
  H   H13       1.0  0.6775883843843075  0.4421166931789103  0.3131138853201777  1.0000
  H   H14       1.0  0.13506847446812745  0.8708617567481766  0.3131598396880905  1.0000
  H   H15       1.0  0.32241265338466013  0.5578845921494492  0.6868873994074891  1.0000
  H   H16       1.0  0.8649320042312283  0.12913835564933862  0.686838183735276  1.0000
  H   H17       1.0  0.780108857070431  0.6087805164087641  0.47931058798806003  1.0000
  H   H18       1.0  0.19912110432373015  0.8702757126166674  0.47934415648494905  1.0000
  H   H19       1.0  0.21989307628724936  0.39121961528206134  0.5206904186633994  1.0000
  H   H20       1.0  0.8008779361884777  0.12972439944085315  0.5206536581291419  1.0000
  H   H21       1.0  0.8666095890909277  0.8583591313478748  0.48570017337786464  1.0000
  H   H22       1.0  0.11904878036033757  0.6272334298669976  0.4857110074136132  1.0000
  H   H23       1.0  0.1333914376972558  0.1416421413449456  0.5142992617372643  1.0000
  H   H24       1.0  0.8809536846149938  0.3727678431658177  0.5142886365107915  1.0000
  H   H25       1.0  0.8105394334347339  0.8751201149033675  0.3264974050896471  1.0000
  H   H26       1.0  0.015623683445255773  0.4512477621766351  0.32657209960103745  1.0000
  H   H27       1.0  0.18945996006773666  0.12487768953909038  0.6734996445627461  1.0000
  H   H28       1.0  0.9843782389316403  0.5487523568786442  0.6734270574378771  1.0000
  H   H29       1.0  0.6665537421981045  0.6427559106299017  0.09978054860162194  1.0000
  H   H30       1.0  0.9324275547533817  0.4572056128109948  0.09962381201281542  1.0000
  H   H31       1.0  0.333444761206053  0.35724305376785276  0.9002177039332583  1.0000
  H   H32       1.0  0.0675714967396105  0.5427945118820645  0.9003758522138273  1.0000
  H   H33       1.0  0.6030725551107708  0.4604947887545947  0.09561233203827875  1.0000
  H   H34       1.0  0.9919441082225335  0.6354218856768342  0.09577245110458686  1.0000
  H   H35       1.0  0.3969259537837787  0.5395041819609362  0.904386845302874  1.0000
  H   H36       1.0  0.008054395181623975  0.3645770787209202  0.9042258014302933  1.0000
  C   C1        1.0  0.2493691777352325  0.31929170589074124  0.2029378982431141  1.0000
  C   C2        1.0  0.4532146942458369  0.8835659272603139  0.20285486646574932  1.0000
  C   C3        1.0  0.7506313229256919  0.6807084317778588  0.7970638244053422  1.0000
  C   C4        1.0  0.5467823764615645  0.11643304311521518  0.7971441020661276  1.0000
  C   C5        1.0  0.1237048126611171  0.15375090889835966  0.09827576948443811  1.0000
  C   C6        1.0  0.47442016144074767  0.944460183940031  0.09824139350173072  1.0000
  C   C7        1.0  0.8762939023127744  0.8462515423630776  0.9017274341227196  1.0000
  C   C8        1.0  0.5255819615250986  0.05554340934339312  0.9017608649969165  1.0000
  C   C9        1.0  0.05125113936031771  0.0475554624078995  0.14601863930575126  1.0000
  C   C10       1.0  0.5949872317813244  0.09835955714674331  0.14601463918060636  1.0000
  C   C11       1.0  0.9487410851679742  0.9524423656056554  0.8539810655253536  1.0000
  C   C12       1.0  0.4050109351037393  0.901641733819396  0.8539871527347888  1.0000
  C   C13       1.0  0.07120292421524252  0.1043370233529828  0.9513847910280407  1.0000
  C   C14       1.0  0.3798669678096972  0.8471155707892565  0.9513245762129546  1.0000
  C   C15       1.0  0.9287927247761801  0.8956619656358668  0.04861674311337778  1.0000
  C   C16       1.0  0.6201326207913384  0.15288570156356232  0.04867465009289874  1.0000
  C   C17       1.0  0.7879321613035869  0.5607714002432117  0.3719672468581693  1.0000
  C   C18       1.0  0.08375812326043089  0.8110518480961771  0.3720182129780484  1.0000
  C   C19       1.0  0.21206922396526556  0.4392275711523085  0.6280323481015275  1.0000
  C   C20       1.0  0.9162403856341186  0.18894712261934643  0.6279809643630971  1.0000
  C   C21       1.0  0.8673318965586746  0.8089429860815897  0.37632918225831713  1.0000
  C   C22       1.0  0.008699020989603087  0.567229614112307  0.3763137504912352  1.0000
  C   C23       1.0  0.13266768106158375  0.1910582736356901  0.6236681944349913  1.0000
  C   C24       1.0  0.9913020057985802  0.4327716585805135  0.6236856846238937  1.0000
  C   C25       1.0  0.7180036426100855  0.5772299166314525  0.15216731993750449  1.0000
  C   C26       1.0  0.9335434580488168  0.5750607383013815  0.15218013151574897  1.0000
  C   C27       1.0  0.281997748149152  0.4227690610818371  0.8478331998284647  1.0000
  C   C28       1.0  0.06645703163132319  0.4249393867316797  0.8478197415201623  1.0000
  N   N1        1.0  0.7171792178179005  0.6486283326712795  0.29998984548140584  1.0000
  N   N2        1.0  0.08232126590933601  0.6512470515769807  0.29999503667094285  1.0000
  N   N3        1.0  0.282820723773412  0.35137063206647673  0.7000086158627428  1.0000
  N   N4        1.0  0.9176783226916995  0.3487542207758381  0.7000041896349105  1.0000
  O   O1        1.0  0.3263972971564186  0.35880221328268647  0.33392967373685434  1.0000
  O   O2        1.0  0.5083413255624764  0.9749533933689564  0.3339294100987758  1.0000
  O   O3        1.0  0.6736071650756797  0.6412002330209672  0.6660734403011264  1.0000
  O   O4        1.0  0.49165036734816425  0.0250432933026019  0.6660716574593908  1.0000
  O   O5        1.0  0.2670065101666594  0.41593862756799643  0.15175495930493815  1.0000
  O   O6        1.0  0.3829810373188992  0.7357637353422035  0.1515849944359502  1.0000
  O   O7        1.0  0.7329943489749196  0.5840592088033104  0.8482469231880929  1.0000
  O   O8        1.0  0.6170183616739636  0.26423407541801686  0.8484129800227227  1.0000
  O   O9        1.0  0.5054854386648132  0.7552688152385089  0.5095340610389132  1.0000
  O   O10       1.0  0.4945164837120828  0.24473130381677075  0.49046509600000143  1.0000
