data_image0
_chemical_formula_structural       Zn8H64C64N4O26
_chemical_formula_sum              "Zn8 H64 C64 N4 O26"
_cell_length_a       17.890692656844628
_cell_length_b       18.529347223338295
_cell_length_c       20.204216102748543
_cell_angle_alpha    61.18491730326324
_cell_angle_beta     63.359322739826645
_cell_angle_gamma    89.91504212895259

_space_group_name_H-M_alt    "P 1"
_space_group_IT_number       1

loop_
  _space_group_symop_operation_xyz
  'x, y, z'

loop_
  _atom_site_type_symbol
  _atom_site_label
  _atom_site_symmetry_multiplicity
  _atom_site_fract_x
  _atom_site_fract_y
  _atom_site_fract_z
  _atom_site_occupancy
  Zn  Zn1       1.0  0.12851640609724055  0.542856827361355  0.9248038975241711  1.0000
  Zn  Zn2       1.0  0.9595053677662763  0.547592069439659  0.07080973804195169  1.0000
  Zn  Zn3       1.0  0.9681090517848504  0.38048383221758536  0.062651892903574  1.0000
  Zn  Zn4       1.0  0.9553829598596977  0.5448873991335219  0.9113874262685682  1.0000
  Zn  Zn5       1.0  0.3774815888724348  0.9704273436129894  0.06155766660533147  1.0000
  Zn  Zn6       1.0  0.5428022154250414  0.12773272975092465  0.9197614195337349  1.0000
  Zn  Zn7       1.0  0.5394850975980389  0.9605774477375634  0.9133725380371371  1.0000
  Zn  Zn8       1.0  0.5534201733211006  0.9611229671741196  0.0697847844238453  1.0000
  H   H1        1.0  0.4289592941810697  0.8267183778151619  0.3496218288478729  1.0000
  H   H2        1.0  0.20719434587584123  0.8413131764875317  0.31857385605317734  1.0000
  H   H3        1.0  0.08481052765194626  0.6873553195143958  0.6340175446822938  1.0000
  H   H4        1.0  0.30607511779657415  0.6665499023629166  0.6658478814656802  1.0000
  H   H5        1.0  0.6716463399451483  0.08513626248007719  0.6391050474051382  1.0000
  H   H6        1.0  0.6637391194973291  0.3048911569202417  0.6588452029761525  1.0000
  H   H7        1.0  0.8180447484207745  0.4225331847034396  0.345066251264221  1.0000
  H   H8        1.0  0.8362435395256541  0.2028890320469259  0.3252807372972768  1.0000
  H   H9        1.0  0.21517686560319765  0.3163817414639637  0.8844817252226702  1.0000
  H   H10       1.0  0.1306650220848198  0.22975234456077231  0.9862180929963598  1.0000
  H   H11       1.0  0.22336625417504047  0.14092750853803462  0.979374987349942  1.0000
  H   H12       1.0  0.3083343085217436  0.22899603641608496  0.8795393795315147  1.0000
  H   H13       1.0  0.20061587452080687  0.10961380218184757  0.12402322371850966  1.0000
  H   H14       1.0  0.2721713974441117  0.17195755872494087  0.12704565300094825  1.0000
  H   H15       1.0  0.11145123882201353  0.20211945006888501  0.12870666784321114  1.0000
  H   H16       1.0  0.18579701003451987  0.265873397647141  0.1276452325937854  1.0000
  H   H17       1.0  0.32084680920050346  0.4098023894375444  0.8827345893934078  1.0000
  H   H18       1.0  0.30753551011226693  0.39113813633384376  0.9817568734052098  1.0000
  H   H19       1.0  0.3958636341852682  0.2978594776516558  0.9834538942268763  1.0000
  H   H20       1.0  0.41226776707951984  0.319510668020371  0.8824965425007034  1.0000
  H   H21       1.0  0.9065791390048403  0.815390333247926  0.8777090949155235  1.0000
  H   H22       1.0  0.8871919813760556  0.7898373548995963  0.9814977724046583  1.0000
  H   H23       1.0  0.7981153721294592  0.8822863373027728  0.9814816747018253  1.0000
  H   H24       1.0  0.817035097242787  0.9064168449345045  0.8782412427915528  1.0000
  H   H25       1.0  0.6741265944168404  0.759000819870792  0.12084214771409307  1.0000
  H   H26       1.0  0.6030106071099652  0.6960156618689765  0.11814971107687455  1.0000
  H   H27       1.0  0.762275138771173  0.6655165143837961  0.12043852462582547  1.0000
  H   H28       1.0  0.6917578608098083  0.6041628614555064  0.11567347702737855  1.0000
  H   H29       1.0  0.8072932423204479  0.7268161735141377  0.8694265323736088  1.0000
  H   H30       1.0  0.7200817809487461  0.6397412476851868  0.9659583048005015  1.0000
  H   H31       1.0  0.6293441353124861  0.7304388677286229  0.9689556270751181  1.0000
  H   H32       1.0  0.7162109435364313  0.8171146803268383  0.8716758713692909  1.0000
  H   H33       1.0  0.17502112088527608  0.807577296823638  0.9182401394865705  1.0000
  H   H34       1.0  0.2652214836515084  0.7765115837570845  0.8650244548060255  1.0000
  H   H35       1.0  0.35626882926082004  0.8723200219612437  0.8594238456977121  1.0000
  H   H36       1.0  0.2653466586508272  0.9019979202292487  0.9138163744980188  1.0000
  H   H37       1.0  0.40107643562497225  0.7493847127736828  0.9463532143862988  1.0000
  H   H38       1.0  0.3437850653691186  0.6927190256162631  0.06218303861400898  1.0000
  H   H39       1.0  0.30859912829000535  0.6524002518492579  0.9540590504961627  1.0000
  H   H40       1.0  0.25060717001271365  0.5977701141511955  0.06982182668213707  1.0000
  H   H41       1.0  0.08986290305325892  0.7269045017488903  0.08539083834119768  1.0000
  H   H42       1.0  0.12063068499273302  0.6409333207982754  0.14695770791039556  1.0000
  H   H43       1.0  0.2128194516312548  0.7355409613733741  0.14153598116620705  1.0000
  H   H44       1.0  0.1816689664478375  0.821364163948118  0.08045057606651797  1.0000
  H   H45       1.0  0.9142618710428113  0.2821010115223928  0.9045411257800493  1.0000
  H   H46       1.0  0.8764339838262316  0.3650271302977827  0.8475632819144818  1.0000
  H   H47       1.0  0.7908171241005916  0.26549542451827085  0.8522652122745453  1.0000
  H   H48       1.0  0.8255900706591178  0.1823402920523805  0.9131781081593995  1.0000
  H   H49       1.0  0.6607418395674716  0.3068539198746337  0.9302476112562486  1.0000
  H   H50       1.0  0.6002638451369506  0.24999824244008545  0.04603740131317829  1.0000
  H   H51       1.0  0.7470639036449784  0.40289461918749253  0.9292464685736516  1.0000
  H   H52       1.0  0.6880198951453025  0.34354629165480327  0.04513195597199628  1.0000
  H   H53       1.0  0.8304053155156339  0.19540215120317575  0.07186393393481437  1.0000
  H   H54       1.0  0.7399373101518307  0.2217469613944232  0.1299674444453771  1.0000
  H   H55       1.0  0.6477859879799015  0.12827128300417462  0.13422990790039072  1.0000
  H   H56       1.0  0.7378459695747496  0.098475244317072  0.08039918309771817  1.0000
  H   H57       1.0  0.4651326846943248  0.761956809497967  0.43690373408141153  1.0000
  H   H58       1.0  0.44600068068734816  0.7177523182995884  0.5404912410082756  1.0000
  H   H59       1.0  0.04778148708489738  0.7071014104797869  0.5488001829225195  1.0000
  H   H60       1.0  0.06704280050204398  0.7670012755292319  0.44482477739193627  1.0000
  H   H61       1.0  0.7400463916868459  0.04840144578636805  0.5574458997822729  1.0000
  H   H62       1.0  0.7840315842850957  0.06526973263683543  0.4557290836507945  1.0000
  H   H63       1.0  0.8038434010707151  0.4592635810297379  0.42718350649695214  1.0000
  H   H64       1.0  0.7433952283913928  0.4423535604880869  0.5286894573693812  1.0000
  C   C1        1.0  0.13820045744892442  0.6359629670148833  0.005688548121845793  1.0000
  C   C2        1.0  0.8781729329867145  0.37406342246996627  0.23027812523734775  1.0000
  C   C3        1.0  0.14609885135777026  0.36550075576121105  0.9995574408847359  1.0000
  C   C4        1.0  0.8651002247925561  0.3693267437912413  0.9840567699675302  1.0000
  C   C5        1.0  0.13246561000824641  0.6252389780450398  0.7549244988735493  1.0000
  C   C6        1.0  0.8615522186273308  0.6430716249805994  0.9881357160118397  1.0000
  C   C7        1.0  0.36463301245537855  0.14555973971330635  0.9948388932142646  1.0000
  C   C8        1.0  0.6138664130977391  0.13364841149092418  0.7537731833373439  1.0000
  C   C9        1.0  0.3596163406452676  0.8643337406741266  0.9944808573090281  1.0000
  C   C10       1.0  0.6434618278025468  0.8651653637881153  0.9902980966816411  1.0000
  C   C11       1.0  0.38002199025812894  0.8862864731151061  0.22897572613096162  1.0000
  C   C12       1.0  0.6488911166090646  0.13905890859339123  0.9918155719679045  1.0000
  C   C13       1.0  0.3584186870593129  0.8100254506336668  0.38072529648282927  1.0000
  C   C14       1.0  0.23236361022733124  0.8190196984280503  0.3631118417059297  1.0000
  C   C15       1.0  0.17588297494742727  0.773532148726119  0.45332326877932155  1.0000
  C   C16       1.0  0.2103220864548234  0.7451104313642034  0.5111220514551531  1.0000
  C   C17       1.0  0.1552017519460023  0.7003357213951488  0.6031854397858252  1.0000
  C   C18       1.0  0.2809447040829269  0.6893747540276607  0.6212555735025089  1.0000
  C   C19       1.0  0.3375607878990365  0.7337440822963472  0.5310289487248027  1.0000
  C   C20       1.0  0.3033261006927077  0.7636015033398776  0.4729516263553108  1.0000
  C   C21       1.0  0.32320436098985544  0.8374125997022329  0.326713141898061  1.0000
  C   C22       1.0  0.19019211204997086  0.672945455553716  0.6573715963849832  1.0000
  C   C23       1.0  0.6904736860257686  0.15462927448095348  0.6052692233088802  1.0000
  C   C24       1.0  0.684984925558368  0.2795986197625099  0.6165628846942253  1.0000
  C   C25       1.0  0.7322227189898102  0.3345081750577067  0.5258386631161185  1.0000
  C   C26       1.0  0.7591112658149799  0.29968729629884194  0.4712590102578388  1.0000
  C   C27       1.0  0.8041946641791141  0.353111744108574  0.3788584581016393  1.0000
  C   C28       1.0  0.8134847974536327  0.22817077246510561  0.36755825632126715  1.0000
  C   C29       1.0  0.7685570854836855  0.17322143188702205  0.458306208649553  1.0000
  C   C30       1.0  0.7387566501516786  0.20805177094950278  0.5128671488329457  1.0000
  C   C31       1.0  0.6637824382340867  0.19008241385665076  0.6561096056212673  1.0000
  C   C32       1.0  0.8305022046154775  0.3176142668881141  0.3280207241252952  1.0000
  C   C33       1.0  0.19877344220800117  0.265889440523438  0.9512370468270458  1.0000
  C   C34       1.0  0.2599265955015754  0.20686130771355254  0.9479818681229087  1.0000
  C   C35       1.0  0.30773942374443675  0.20655779305733563  0.9956497256388344  1.0000
  C   C36       1.0  0.23888013011782047  0.17512764755851856  0.0916581732312451  1.0000
  C   C37       1.0  0.18018329979088327  0.2365247418579273  0.09338276346444016  1.0000
  C   C38       1.0  0.20697253691727002  0.3081086183495856  0.9986543771068593  1.0000
  C   C39       1.0  0.3020497150347908  0.3588038035408018  0.949981662217915  1.0000
  C   C40       1.0  0.3615684102640061  0.2982181350938904  0.9498315230038652  1.0000
  C   C41       1.0  0.8550736851964871  0.7925535228535951  0.9453413125426021  1.0000
  C   C42       1.0  0.7956041666958599  0.8535723653910877  0.9457059796856055  1.0000
  C   C43       1.0  0.7003885198447152  0.8036483013328918  0.989960299997925  1.0000
  C   C44       1.0  0.671378310385741  0.7308145842791659  0.0848012068692938  1.0000
  C   C45       1.0  0.7302911403882462  0.669540619514194  0.08389782881243239  1.0000
  C   C46       1.0  0.8008211065187681  0.7010028717979894  0.9885030909705814  1.0000
  C   C47       1.0  0.7569843801161724  0.7047899301759273  0.937094739937329  1.0000
  C   C48       1.0  0.696991849113296  0.7649886667999867  0.9386014701933971  1.0000
  C   C49       1.0  0.23056031846957828  0.7838383314669671  0.9211423563665162  1.0000
  C   C50       1.0  0.29098172473811695  0.8469705152540425  0.9176977161576046  1.0000
  C   C51       1.0  0.2985443955944902  0.8008544215272834  0.0009635529912017998  1.0000
  C   C52       1.0  0.3358889166163763  0.7247176887969288  0.0045093874256635965  1.0000
  C   C53       1.0  0.27455445195516154  0.6612728826116908  0.009133174334110088  1.0000
  C   C54       1.0  0.19601967669420617  0.6947724067468499  0.007128112568068395  1.0000
  C   C55       1.0  0.1464736935682609  0.7043376431486833  0.08591847299128116  1.0000
  C   C56       1.0  0.2073790918974439  0.7669868684264854  0.08243092017293208  1.0000
  C   C57       1.0  0.8552975999518323  0.3011384462248757  0.9068907170780276  1.0000
  C   C58       1.0  0.7970898220198709  0.2355930688978917  0.9108107705363931  1.0000
  C   C59       1.0  0.705217253470842  0.19921689163689388  0.9933152429825112  1.0000
  C   C60       1.0  0.6665829271117902  0.27506737081314736  0.989015951107852  1.0000
  C   C61       1.0  0.7246757142310328  0.3382474485726592  0.9877886656096632  1.0000
  C   C62       1.0  0.8043042760739781  0.3070749335834435  0.9887229868058608  1.0000
  C   C63       1.0  0.7733869936075806  0.21724020233213537  0.0718316012555178  1.0000
  C   C64       1.0  0.7129650474828254  0.15393888857234117  0.07566471072243529  1.0000
  N   N1        1.0  0.4265216486926491  0.7520637602453634  0.4972019216652511  1.0000
  N   N2        1.0  0.08688300502083021  0.7586586330670143  0.4871960275394756  1.0000
  N   N3        1.0  0.7495378652519165  0.08539082666191436  0.49615709899488536  1.0000
  N   N4        1.0  0.7505732253873632  0.4224299609143714  0.48794949991099645  1.0000
  O   O1        1.0  0.0012752462438712908  0.505712217423394  0.9914651542070768  1.0000
  O   O2        1.0  0.17673189730022199  0.6157431210087981  0.9490457628356733  1.0000
  O   O3        1.0  0.8932822642264426  0.4550984831651589  0.19590517964096676  1.0000
  O   O4        1.0  0.06474760525764373  0.327968546029112  0.04696657456274518  1.0000
  O   O5        1.0  0.05650813014032251  0.6130901550751631  0.05882966889219427  1.0000
  O   O6        1.0  0.18023999611475008  0.4461806285137656  0.9521164143474861  1.0000
  O   O7        1.0  0.9004660968171407  0.3364131476814477  0.18826270331099684  1.0000
  O   O8        1.0  0.8983948692502182  0.3357029023331036  0.03216132961102859  1.0000
  O   O9        1.0  0.05008757945783762  0.6087949141729682  0.7869763427932739  1.0000
  O   O10       1.0  0.8798269613996085  0.4495286429548173  0.9316306049987657  1.0000
  O   O11       1.0  0.170984259257189  0.6042939695917867  0.798982564720674  1.0000
  O   O12       1.0  0.88850386004345  0.6243249594856692  0.04176997013444608  1.0000
  O   O13       1.0  0.8815243066860033  0.6189345646069527  0.9344290818163754  1.0000
  O   O14       1.0  0.5045242576700629  0.002559503942002837  0.992360035776677  1.0000
  O   O15       1.0  0.326039067980517  0.0669943123386361  0.0330938375652252  1.0000
  O   O16       1.0  0.5882634259412216  0.17118291340173655  0.7958251540211446  1.0000
  O   O17       1.0  0.439976165709524  0.8873486780815014  0.9365158112476448  1.0000
  O   O18       1.0  0.44627179348012197  0.17686345081831703  0.9563573527495133  1.0000
  O   O19       1.0  0.32578202859253474  0.8905155499907166  0.046460942266122594  1.0000
  O   O20       1.0  0.6007520616490892  0.05269690991368499  0.7882223614721011  1.0000
  O   O21       1.0  0.6170057670646685  0.8892275233044914  0.9359292725456922  1.0000
  O   O22       1.0  0.46210530909878855  0.8963178000633644  0.19581135528954258  1.0000
  O   O23       1.0  0.6278175139207604  0.8885490894688244  0.044244642292241586  1.0000
  O   O24       1.0  0.3407346000177824  0.9142910992548465  0.18586413166759286  1.0000
  O   O25       1.0  0.6323981868140648  0.17426540485320893  0.9296461279556281  1.0000
  O   O26       1.0  0.623272861355325  0.05939224910550679  0.050767479979071994  1.0000
