data_image0
_chemical_formula_structural       Zn8H56C104N8O32
_chemical_formula_sum              "Zn8 H56 C104 N8 O32"
_cell_length_a       13.541938882005285
_cell_length_b       13.542010557042246
_cell_length_c       23.168392288082654
_cell_angle_alpha    90.00028756216696
_cell_angle_beta     89.99989953150076
_cell_angle_gamma    90.00001210918073

_space_group_name_H-M_alt    "P 1"
_space_group_IT_number       1

loop_
  _space_group_symop_operation_xyz
  'x, y, z'

loop_
  _atom_site_type_symbol
  _atom_site_label
  _atom_site_symmetry_multiplicity
  _atom_site_fract_x
  _atom_site_fract_y
  _atom_site_fract_z
  _atom_site_occupancy
  Zn  Zn1       1.0  0.860003141533518  0.7987967909767095  0.0572295550505615  1.0000
  Zn  Zn2       1.0  0.13999760221834373  0.2012081414637024  0.5572274923869287  1.0000
  Zn  Zn3       1.0  0.7012027012068672  0.3600025397499707  0.8072257930537602  1.0000
  Zn  Zn4       1.0  0.29880098503767977  0.6399949513886084  0.3072279678248009  1.0000
  Zn  Zn5       1.0  0.639995973670402  0.2987984242222339  0.6927710950954804  1.0000
  Zn  Zn6       1.0  0.3600021482476022  0.7012039862730715  0.19277381730357493  1.0000
  Zn  Zn7       1.0  0.7987964043369614  0.8600020069863276  0.942774073651897  1.0000
  Zn  Zn8       1.0  0.20119801404739948  0.13999665443900966  0.4427718684222839  1.0000
  H   H1        1.0  0.9935774520992168  0.6638156230025346  0.2865684658245442  1.0000
  H   H2        1.0  0.0064196500808009  0.3361809513256802  0.7865673655208312  1.0000
  H   H3        1.0  0.8361838036965067  0.49357392730919963  0.0365669200926035  1.0000
  H   H4        1.0  0.16381700201852567  0.506427134528046  0.5365670183336704  1.0000
  H   H5        1.0  0.5064245883652773  0.1638167248174298  0.46343135889952697  1.0000
  H   H6        1.0  0.4935801063161306  0.8361798996493731  0.963432944324161  1.0000
  H   H7        1.0  0.6638183064591272  0.9935720106411808  0.7134334350489553  1.0000
  H   H8        1.0  0.3361856610714824  0.006424670692375399  0.21343242823164127  1.0000
  H   H9        1.0  0.767353020339769  0.759557880921491  0.16667822730912718  1.0000
  H   H10       1.0  0.23264591828191777  0.2404487349349934  0.6666779106235197  1.0000
  H   H11       1.0  0.7404421077274533  0.2673520769583392  0.9166786360139483  1.0000
  H   H12       1.0  0.2595612502725402  0.7326470976188303  0.4166793948293304  1.0000
  H   H13       1.0  0.7326453481260699  0.25956597320738684  0.5833218767476893  1.0000
  H   H14       1.0  0.2673531020332334  0.7404406614027932  0.0833213554304209  1.0000
  H   H15       1.0  0.7595562397870524  0.7673513293469226  0.8333222552587715  1.0000
  H   H16       1.0  0.24043776839250341  0.2326449102044137  0.3333211433400933  1.0000
  H   H17       1.0  0.056873599411701996  0.7458491149100369  0.1113009698374512  1.0000
  H   H18       1.0  0.9431262437356195  0.2541518537145393  0.6112978065871744  1.0000
  H   H19       1.0  0.754150007344485  0.5568753176700767  0.8613005863792367  1.0000
  H   H20       1.0  0.2458498245015264  0.44312337877421737  0.3613000829658333  1.0000
  H   H21       1.0  0.44312468359969864  0.24585034536607964  0.6386978803631038  1.0000
  H   H22       1.0  0.556869908248764  0.7541523367120319  0.1387009868204316  1.0000
  H   H23       1.0  0.7458460803440731  0.05687434798542058  0.8887022805797358  1.0000
  H   H24       1.0  0.2541536693289003  0.9431223697008874  0.3886989111387251  1.0000
  H   H25       1.0  0.6697265904917415  0.6811960189206729  0.2176057365002961  1.0000
  H   H26       1.0  0.3302692416119085  0.31880586753818807  0.7176055483300203  1.0000
  H   H27       1.0  0.8188000766604943  0.169725738150234  0.9676038687748659  1.0000
  H   H28       1.0  0.18119943638017583  0.8302709223426845  0.4676058559894826  1.0000
  H   H29       1.0  0.8302724998575712  0.18120073837105372  0.5323954338041119  1.0000
  H   H30       1.0  0.16972905681608808  0.8188002874452066  0.03239437795134851  1.0000
  H   H31       1.0  0.6811945579941322  0.6697252727208607  0.7823928530801112  1.0000
  H   H32       1.0  0.3188018182554941  0.3302697886876019  0.2823958302353731  1.0000
  H   H33       1.0  0.5821266081210438  0.671692276574426  0.3945843834545855  1.0000
  H   H34       1.0  0.417873862352998  0.32830449191261846  0.8945845648092642  1.0000
  H   H35       1.0  0.8283051104679017  0.0821258876582007  0.1445837456525538  1.0000
  H   H36       1.0  0.17169980198453766  0.9178746299044747  0.6445854678033669  1.0000
  H   H37       1.0  0.9178739571149278  0.1716954865216707  0.3554154642528502  1.0000
  H   H38       1.0  0.0821251539334042  0.8283046359981512  0.8554152904363619  1.0000
  H   H39       1.0  0.6716910051633818  0.5821274706914464  0.6054128193940684  1.0000
  H   H40       1.0  0.32830811718579156  0.4178704933519413  0.1054160423682333  1.0000
  H   H41       1.0  0.7588612270753855  0.692278735303809  0.4251785907630463  1.0000
  H   H42       1.0  0.24114062854099666  0.3077109128988126  0.9251780300039627  1.0000
  H   H43       1.0  0.8077201432229514  0.2588604832302508  0.1751769870220485  1.0000
  H   H44       1.0  0.19228615437714314  0.7411402984628309  0.6751768775901184  1.0000
  H   H45       1.0  0.7411386040628755  0.19228385908717627  0.3248226118745379  1.0000
  H   H46       1.0  0.2588605987342731  0.807714522407508  0.8248213335428786  1.0000
  H   H47       1.0  0.6922811788830144  0.758863283373472  0.5748222517458785  1.0000
  H   H48       1.0  0.30772172744293863  0.2411358934330821  0.0748236853497843  1.0000
  H   H49       1.0  0.8895110203663492  0.7118826119217729  0.35191753457512925  1.0000
  H   H50       1.0  0.11048810117017639  0.2881123113021146  0.8519183454520274  1.0000
  H   H51       1.0  0.7881167224920984  0.3895098932051085  0.1019166014655681  1.0000
  H   H52       1.0  0.21188610258066376  0.6104887790812938  0.6019165223963583  1.0000
  H   H53       1.0  0.6104888149161808  0.21188686373091056  0.3980828620089341  1.0000
  H   H54       1.0  0.3895116450687865  0.7881128887255641  0.8980813925362625  1.0000
  H   H55       1.0  0.7118861041170419  0.8895103762466191  0.6480838817028527  1.0000
  H   H56       1.0  0.2881180593945558  0.11048795619895908  0.14808365938493748  1.0000
  C   C1        1.0  0.1459522637874713  0.6891807308768348  0.2142380660848815  1.0000
  C   C2        1.0  0.8540457937634826  0.3108181727121604  0.7142325697532287  1.0000
  C   C3        1.0  0.8108175232587055  0.6459489521985803  0.9642435229302464  1.0000
  C   C4        1.0  0.18918126142119013  0.35405137147258614  0.4642402280189799  1.0000
  C   C5        1.0  0.3540467456903755  0.18918696131564866  0.5357636401546273  1.0000
  C   C6        1.0  0.6459548008709673  0.8108177858283981  0.035770273573192006  1.0000
  C   C7        1.0  0.6891793217011895  0.14594708174263363  0.785759603892494  1.0000
  C   C8        1.0  0.31082516736756105  0.854048747171163  0.2857610959561541  1.0000
  C   C9        1.0  0.03784664243137569  0.7042234818968964  0.2013714759503884  1.0000
  C   C10       1.0  0.9621492383584849  0.29578047972641736  0.7013714359958882  1.0000
  C   C11       1.0  0.7957746335270242  0.5378497325342977  0.9513736841019735  1.0000
  C   C12       1.0  0.20422492819087515  0.46214974159195066  0.4513737104947779  1.0000
  C   C13       1.0  0.46215163178312924  0.20422689248744064  0.5486272528137661  1.0000
  C   C14       1.0  0.5378483993124304  0.7957801810329883  0.0486305002158076  1.0000
  C   C15       1.0  0.7042207116945532  0.037847976370720515  0.7986286957280342  1.0000
  C   C16       1.0  0.2957800465532969  0.9621487020764973  0.2986257707394486  1.0000
  C   C17       1.0  0.96773779084846  0.6899873289574145  0.2447503372051827  1.0000
  C   C18       1.0  0.032258698299031593  0.3100125765262192  0.7447478391923426  1.0000
  C   C19       1.0  0.8100103364462327  0.46773920944334435  0.9947499118943456  1.0000
  C   C20       1.0  0.1899898336346126  0.5322635929580314  0.49474972580674864  1.0000
  C   C21       1.0  0.532260562912647  0.18999101261776025  0.505250427123535  1.0000
  C   C22       1.0  0.4677395982703984  0.8100112557308562  0.0052524930640203  1.0000
  C   C23       1.0  0.689986576523566  0.9677355577476093  0.7552519956114238  1.0000
  C   C24       1.0  0.310010619574804  0.03226000775251949  0.2552502277564628  1.0000
  C   C25       1.0  0.8676096059741454  0.7089120848098602  0.23426155713897856  1.0000
  C   C26       1.0  0.1323883915195978  0.29108994545212846  0.7342610593705315  1.0000
  C   C27       1.0  0.7910876450566205  0.3676077973012538  0.9842600532854534  1.0000
  C   C28       1.0  0.20891624871461537  0.6323926992089569  0.48426100316233794  1.0000
  C   C29       1.0  0.6323902286820697  0.20891809551348933  0.5157379675363174  1.0000
  C   C30       1.0  0.36760990105157987  0.7910842633759713  0.0157383544290965  1.0000
  C   C31       1.0  0.7089114620942495  0.8676049786070975  0.7657398356046202  1.0000
  C   C32       1.0  0.29108644099623854  0.1323906774488606  0.265739242520965  1.0000
  C   C33       1.0  0.8429056971895504  0.740987580997924  0.1785542552889154  1.0000
  C   C34       1.0  0.15709394426453824  0.2590183989469351  0.6785527753742215  1.0000
  C   C35       1.0  0.759012555369047  0.3429036884786356  0.9285539672566542  1.0000
  C   C36       1.0  0.24099002857083457  0.6570970655132555  0.4285545246985691  1.0000
  C   C37       1.0  0.657094882692398  0.24098964723421554  0.5714449313355061  1.0000
  C   C38       1.0  0.34290507997501857  0.7590095004134482  0.0714465448540764  1.0000
  C   C39       1.0  0.7409843312195575  0.8429013575257542  0.8214467128079831  1.0000
  C   C40       1.0  0.2590104510202593  0.15709477949643255  0.3214462246810896  1.0000
  C   C41       1.0  0.005735372772463199  0.7345673344459058  0.1469327139752323  1.0000
  C   C42       1.0  0.994261409726107  0.2654346802703245  0.6469316893236012  1.0000
  C   C43       1.0  0.7654311986535234  0.5057368328979238  0.8969352617366936  1.0000
  C   C44       1.0  0.2345714801114696  0.49426290965541136  0.396934919082284  1.0000
  C   C45       1.0  0.4942621694088131  0.23457048339593456  0.6030656716922493  1.0000
  C   C46       1.0  0.5057347446403142  0.7654363216955318  0.10306886349258089  1.0000
  C   C47       1.0  0.7345634013347818  0.005736291603931001  0.8530670244085526  1.0000
  C   C48       1.0  0.2654335014188831  0.9942623337463344  0.3530650874628378  1.0000
  C   C49       1.0  0.7904529350754853  0.6975225276016914  0.2788468921345029  1.0000
  C   C50       1.0  0.20954419025776613  0.30247841072787207  0.7788485065988054  1.0000
  C   C51       1.0  0.8024788713488177  0.2904511717880069  0.028845345708013795  1.0000
  C   C52       1.0  0.19752712664850944  0.7095505618297577  0.5288464336080523  1.0000
  C   C53       1.0  0.7095468971721886  0.19752669278568646  0.47115346255499446  1.0000
  C   C54       1.0  0.2904548205682786  0.8024751674412655  0.971152568163852  1.0000
  C   C55       1.0  0.697522457434374  0.7904500673449135  0.721153121972563  1.0000
  C   C56       1.0  0.30247484092265614  0.2095474190879614  0.2211536055535746  1.0000
  C   C57       1.0  0.691360795956733  0.6853381419022571  0.2628022210047476  1.0000
  C   C58       1.0  0.3086363774978125  0.314659704117055  0.7628011796795563  1.0000
  C   C59       1.0  0.8146588247096387  0.1913594663961646  0.012800922385764598  1.0000
  C   C60       1.0  0.18534279072436988  0.8086399133667044  0.5128018802423284  1.0000
  C   C61       1.0  0.8086397721613919  0.18534320500270238  0.4871989613837258  1.0000
  C   C62       1.0  0.1913618974573055  0.8146573168777919  0.9871990673776593  1.0000
  C   C63       1.0  0.6853402677915382  0.6913584979029607  0.7371972562037357  1.0000
  C   C64       1.0  0.31465993623259436  0.3086391270637493  0.23720017449800682  1.0000
  C   C65       1.0  0.6167776170521008  0.6772110110286677  0.3041063649981837  1.0000
  C   C66       1.0  0.38322238631936756  0.32279014537659373  0.8041052709182921  1.0000
  C   C67       1.0  0.8227846223178898  0.11677618575519938  0.054103632171504  1.0000
  C   C68       1.0  0.1772183461411956  0.8832228121739407  0.5541061108165479  1.0000
  C   C69       1.0  0.8832236877960893  0.1772127795020637  0.445893930429783  1.0000
  C   C70       1.0  0.11677810569456432  0.8227859088727739  0.9458945682325036  1.0000
  C   C71       1.0  0.6772092852970815  0.6167792895900918  0.6958926023455163  1.0000
  C   C72       1.0  0.3227895657055199  0.3832216709721621  0.195895729887944  1.0000
  C   C73       1.0  0.6410783329195481  0.6786859374739579  0.3628596761604754  1.0000
  C   C74       1.0  0.35892297114624216  0.32131203398250097  0.8628577394421839  1.0000
  C   C75       1.0  0.821312812521846  0.1410785913197827  0.1128587163345856  1.0000
  C   C76       1.0  0.17869145662734806  0.8589201754447443  0.6128598277016479  1.0000
  C   C77       1.0  0.8589207568996429  0.17868793198738336  0.3871410551944622  1.0000
  C   C78       1.0  0.14107678211016858  0.8213102491201453  0.8871412321552369  1.0000
  C   C79       1.0  0.6786847924618654  0.6410804497415654  0.6371380207016486  1.0000
  C   C80       1.0  0.321315711635151  0.3589177882200616  0.1371428053453911  1.0000
  C   C81       1.0  0.7394733773934165  0.6900868378455983  0.3794930796300164  1.0000
  C   C82       1.0  0.2605286152316282  0.30990906190474726  0.8794938002643492  1.0000
  C   C83       1.0  0.8099111810213556  0.23947173245637296  0.1294910081190892  1.0000
  C   C84       1.0  0.19009303824839915  0.7605271779079598  0.629491820742146  1.0000
  C   C85       1.0  0.760525714835758  0.1900938370529417  0.37050768499346987  1.0000
  C   C86       1.0  0.23947335095188288  0.8099086310986152  0.8705072961792553  1.0000
  C   C87       1.0  0.690088660095526  0.7394741881346932  0.620506879216336  1.0000
  C   C88       1.0  0.3099141092224684  0.2605253831092185  0.1205087987616693  1.0000
  C   C89       1.0  0.8134717069734588  0.7002313936455378  0.3380262171869859  1.0000
  C   C90       1.0  0.18652745622210173  0.29976193275858515  0.8380274157142935  1.0000
  C   C91       1.0  0.7997664703336866  0.3134723808235976  0.0880255768261691  1.0000
  C   C92       1.0  0.2002408270780123  0.6865283868593082  0.5880257315355166  1.0000
  C   C93       1.0  0.6865266489528492  0.20023725834800396  0.411974577031188  1.0000
  C   C94       1.0  0.31347155403090454  0.7997626140480208  0.911973219506443  1.0000
  C   C95       1.0  0.7002348633130281  0.8134729813333836  0.6619742528870702  1.0000
  C   C96       1.0  0.2997677816474392  0.18652694792807978  0.1619746720822945  1.0000
  C   C97       1.0  0.5112528743544614  0.669805811765471  0.2846812365147571  1.0000
  C   C98       1.0  0.48874423349123935  0.3301966537956816  0.7846766028701494  1.0000
  C   C99       1.0  0.8301942144175881  0.011249674847952902  0.0346826188882119  1.0000
  C   C100      1.0  0.16979995093159056  0.9887484169379094  0.5346802335284905  1.0000
  C   C101      1.0  0.9887469520337504  0.1698048164871366  0.46531990055088096  1.0000
  C   C102      1.0  0.0112547831940333  0.8301933011798681  0.9653236895131343  1.0000
  C   C103      1.0  0.6698004093414197  0.5112514679104905  0.715313739383589  1.0000
  C   C104      1.0  0.3301983834104547  0.488747445022966  0.21532148342146232  1.0000
  N   N1        1.0  0.9096672506661178  0.7518402985635789  0.1361373964092607  1.0000
  N   N2        1.0  0.0903339948870396  0.24816309983521023  0.6361368165220894  1.0000
  N   N3        1.0  0.7481596749631193  0.40966463959306754  0.886137229719104  1.0000
  N   N4        1.0  0.2518422977377739  0.5903342712897057  0.38613714963898355  1.0000
  N   N5        1.0  0.5903333315101236  0.2518427169103745  0.61386139025511  1.0000
  N   N6        1.0  0.4096657655037887  0.7481604891727401  0.11386376691307729  1.0000
  N   N7        1.0  0.7518372257349596  0.9096648924837892  0.8638636451192312  1.0000
  N   N8        1.0  0.24815669085305098  0.09033308763989821  0.36386167847763323  1.0000
  O   O1        1.0  0.20737336616701899  0.717025034803804  0.17608954988722297  1.0000
  O   O2        1.0  0.7926299749139429  0.28298978517241846  0.6760874882962682  1.0000
  O   O3        1.0  0.782973715912945  0.7073680248000187  0.9260877638861444  1.0000
  O   O4        1.0  0.21702444474023247  0.2926297541340688  0.42608987233131757  1.0000
  O   O5        1.0  0.29262638764878796  0.2170271509544079  0.5739074897317238  1.0000
  O   O6        1.0  0.7073706138426488  0.7829845714971736  0.073912684100776  1.0000
  O   O7        1.0  0.7170194497953728  0.2073694434284263  0.8239146788836393  1.0000
  O   O8        1.0  0.28298270951793103  0.7926296686518767  0.3239091143416744  1.0000
  O   O9        1.0  0.16588212439123134  0.6514679323261989  0.2630812691299766  1.0000
  O   O10       1.0  0.8341194788991259  0.3485262239093815  0.7630849673204239  1.0000
  O   O11       1.0  0.8485173938041938  0.6658798515262063  0.0130830151037884  1.0000
  O   O12       1.0  0.151473144085017  0.3341217459954321  0.5130830549294956  1.0000
  O   O13       1.0  0.3341205693571538  0.1514693061678187  0.48691514760606225  1.0000
  O   O14       1.0  0.6658803626616389  0.8485334286037727  0.9869183188950785  1.0000
  O   O15       1.0  0.6514802164134254  0.16587743770182328  0.7369185421297572  1.0000
  O   O16       1.0  0.34853475738848516  0.8341194463939348  0.23691605278958147  1.0000
  O   O17       1.0  0.49514226468285466  0.6780495521754232  0.2306736250027157  1.0000
  O   O18       1.0  0.5048550051205681  0.32194949334751755  0.7306754251226267  1.0000
  O   O19       1.0  0.8219488809951442  0.9951408950277664  0.9806698534391955  1.0000
  O   O20       1.0  0.17804837752078836  0.004858093604113397  0.48067202553677657  1.0000
  O   O21       1.0  0.0048589577884215  0.17805556689641114  0.5193241641582489  1.0000
  O   O22       1.0  0.9951418996382911  0.8219512536102159  0.0193239977033741  1.0000
  O   O23       1.0  0.6780509915624292  0.4951396188066822  0.7693256596729369  1.0000
  O   O24       1.0  0.32195133145024357  0.5048560682213008  0.2693278480756618  1.0000
  O   O25       1.0  0.44620673764352137  0.65744222531346  0.3235937490234519  1.0000
  O   O26       1.0  0.5537968995151985  0.34256279157025205  0.8235955590966669  1.0000
  O   O27       1.0  0.8425514218539406  0.9462085008632215  0.0735908624942567  1.0000
  O   O28       1.0  0.1574411499124864  0.053795834407957  0.5735918048590065  1.0000
  O   O29       1.0  0.053797434257965876  0.15744080213288217  0.426404411627388  1.0000
  O   O30       1.0  0.9462044176834395  0.8425540257508499  0.9264033934716666  1.0000
  O   O31       1.0  0.6574366478105204  0.4462099965157762  0.6764054698717601  1.0000
  O   O32       1.0  0.34256078474229656  0.5537930111198648  0.17640734827815413  1.0000
