data_image0
_chemical_formula_structural       Zn2H24C20N2O8
_chemical_formula_sum              "Zn2 H24 C20 N2 O8"
_cell_length_a       9.801199175070945
_cell_length_b       10.906946413412191
_cell_length_c       11.304460632225299
_cell_angle_alpha    89.80827773538378
_cell_angle_beta     86.34305245290018
_cell_angle_gamma    76.5582361803018

_space_group_name_H-M_alt    "P 1"
_space_group_IT_number       1

loop_
  _space_group_symop_operation_xyz
  'x, y, z'

loop_
  _atom_site_type_symbol
  _atom_site_label
  _atom_site_symmetry_multiplicity
  _atom_site_fract_x
  _atom_site_fract_y
  _atom_site_fract_z
  _atom_site_occupancy
  Zn  Zn1       1.0  0.3589391823794656  0.5266342871345985  0.481676134367362  1.0000
  Zn  Zn2       1.0  0.6382031314683303  0.46362538264968844  0.5152021284672728  1.0000
  H   H1        1.0  0.6994966892214052  0.07219630021389624  0.5798169525299033  1.0000
  H   H2        1.0  0.3946868210586699  0.8949324530751214  0.6746462654844693  1.0000
  H   H3        1.0  0.4750299835244149  0.08031658423149679  0.6875870460014044  1.0000
  H   H4        1.0  0.6178466754062412  0.47836909719929116  0.8981799133752731  1.0000
  H   H5        1.0  0.3748969598892557  0.5162767472530447  0.09837147127348092  1.0000
  H   H6        1.0  0.29705010404370563  0.5170255408344246  0.8887379034213938  1.0000
  H   H7        1.0  0.6973943655085082  0.45461181560961705  0.10706803132205782  1.0000
  H   H8        1.0  0.12280370833396864  0.42169352327568527  0.5723691654007581  1.0000
  H   H9        1.0  0.8699061301495307  0.5800996902774643  0.43370521667495865  1.0000
  H   H10       1.0  0.0957531459336991  0.6263441946286578  0.4008154568498128  1.0000
  H   H11       1.0  0.572382625169226  0.9007135594636894  0.31865820898241287  1.0000
  H   H12       1.0  0.9019377458278157  0.36831042234437933  0.5973597700830311  1.0000
  H   H13       1.0  0.48137247922075227  0.11852695395794652  0.3095513467111958  1.0000
  H   H14       1.0  0.3240047860070803  0.1141961651142722  0.3917147823666697  1.0000
  H   H15       1.0  0.2855925570609017  0.9502078460333082  0.5588722040542677  1.0000
  H   H16       1.0  0.6646585699637128  0.8696032832707704  0.621864245023886  1.0000
  H   H17       1.0  0.7304877465362837  0.8330344656929894  0.47433929851699475  1.0000
  H   H18       1.0  0.7104020643813271  0.0460826265534067  0.4256992058026654  1.0000
  H   H19       1.0  0.2588169914869098  0.9076549942593174  0.3641683751151491  1.0000
  H   H20       1.0  0.3404774160891151  0.9407565106631497  0.22667586820124802  1.0000
  H   H21       1.0  0.3874373190492831  0.7873641653694823  0.2880509127119595  1.0000
  H   H22       1.0  0.20178951966023115  0.1830627349066631  0.5659572295377728  1.0000
  H   H23       1.0  0.21262234633146446  0.1330486444657596  0.7155640036262201  1.0000
  H   H24       1.0  0.27983352684415763  0.26519199702159574  0.6692795453835885  1.0000
  C   C1        1.0  0.5564267506626949  0.484195885677167  0.2686564429596743  1.0000
  C   C2        1.0  0.49826527188585584  0.11532188597494304  0.5010955076763751  1.0000
  C   C3        1.0  0.41014411834505893  0.0810794708921136  0.6112372603031915  1.0000
  C   C4        1.0  0.6491330170379969  0.03514416330548901  0.5084900673572861  1.0000
  C   C5        1.0  0.5866516897092212  0.47779289813747283  0.1384054657802238  1.0000
  C   C6        1.0  0.4838199959549245  0.4961384245057231  0.061601074451921506  1.0000
  C   C7        1.0  0.4071926300103357  0.505091784362918  0.8577724420955734  1.0000
  C   C8        1.0  0.5093413749816093  0.49177544295567815  0.9348761867701115  1.0000
  C   C9        1.0  0.9224908802055795  0.5061202480741117  0.49255576662503847  1.0000
  C   C10       1.0  0.07192214275215747  0.49341970160355  0.5107635357428748  1.0000
  C   C11       1.0  0.5030163243021519  0.7335579100412419  0.49888559737178906  1.0000
  C   C12       1.0  0.4378592756439444  0.5033551990299046  0.727632553342666  1.0000
  C   C13       1.0  0.4962679511674748  0.2557771191420742  0.49976737906507657  1.0000
  C   C14       1.0  0.47304295218275166  0.9309196513646473  0.37362037619376315  1.0000
  C   C15       1.0  0.4385329118927006  0.07630920847532248  0.3877902802988232  1.0000
  C   C16       1.0  0.3904236426036718  0.9461348328629315  0.590445262327947  1.0000
  C   C17       1.0  0.6465674395492582  0.8958135358145117  0.5290828310221445  1.0000
  C   C18       1.0  0.503367209284356  0.8733875965046068  0.4989430843318915  1.0000
  C   C19       1.0  0.3587863546398892  0.8885355592733292  0.3098117405025961  1.0000
  C   C20       1.0  0.2681736470860159  0.17175838059678483  0.6420808042213438  1.0000
  N   N1        1.0  0.8487896664172042  0.4353440983926334  0.5422300816294836  1.0000
  N   N2        1.0  0.14739753886801313  0.5607510579561679  0.45790812916592233  1.0000
  O   O1        1.0  0.4301295352614218  0.5324114590953926  0.3077880483728706  1.0000
  O   O2        1.0  0.660182462469315  0.440953724349548  0.3317664149485466  1.0000
  O   O3        1.0  0.38406330980235026  0.7051028798554811  0.5123155658573424  1.0000
  O   O4        1.0  0.6207995504805408  0.6537613682216519  0.4843713529498076  1.0000
  O   O5        1.0  0.3351318905410851  0.5012615278587093  0.663680016806815  1.0000
  O   O6        1.0  0.5626349241391679  0.504561861138079  0.688793487491026  1.0000
  O   O7        1.0  0.38825126483929046  0.3313610223042929  0.4627516128553353  1.0000
  O   O8        1.0  0.6031964856540314  0.2886503849544225  0.5361997312390302  1.0000
