data_image0
_chemical_formula_structural       Zn3H72C132N18F18
_chemical_formula_sum              "Zn3 H72 C132 N18 F18"
_cell_length_a       9.17391760375671
_cell_length_b       19.430177159544506
_cell_length_c       19.430628709400363
_cell_angle_alpha    117.57007173008495
_cell_angle_beta     99.05178357008253
_cell_angle_gamma    99.05545042655227

_space_group_name_H-M_alt    "P 1"
_space_group_IT_number       1

loop_
  _space_group_symop_operation_xyz
  'x, y, z'

loop_
  _atom_site_type_symbol
  _atom_site_label
  _atom_site_symmetry_multiplicity
  _atom_site_fract_x
  _atom_site_fract_y
  _atom_site_fract_z
  _atom_site_occupancy
  Zn  Zn1       1.0  1.5323598761694424e-07  0.4999998972178974  0.9999998595300923  1.0000
  Zn  Zn2       1.0  0.5000000697154547  0.5000000065041946  0.4999997388844121  1.0000
  Zn  Zn3       1.0  8.390394870532365e-08  0.9999999278698369  0.5000003052068535  1.0000
  H   H1        1.0  0.6802089382558449  0.3483099998742959  0.11869153120688482  1.0000
  H   H2        1.0  0.3319276577667907  0.770377794127505  0.6516929844862033  1.0000
  H   H3        1.0  0.561492894854702  0.8812824145920717  0.22959785173410557  1.0000
  H   H4        1.0  0.31979260537710275  0.6516906148876062  0.8813088442415592  1.0000
  H   H5        1.0  0.6680716782888395  0.22962282065090286  0.3483072265707179  1.0000
  H   H6        1.0  0.4385072441199824  0.11871759840570921  0.7704021406472563  1.0000
  H   H7        1.0  0.965740972030801  0.4048081078192354  0.2135470446708184  1.0000
  H   H8        1.0  0.5608989615236909  0.8087808129234733  0.595180074527434  1.0000
  H   H9        1.0  0.7521374033842392  0.7864366728262696  0.19126716269965988  1.0000
  H   H10       1.0  0.034260571602153955  0.5951925069426668  0.7864533307776256  1.0000
  H   H11       1.0  0.43909977279272283  0.19121859831019358  0.4048195347868528  1.0000
  H   H12       1.0  0.24786273513421966  0.21356334016091694  0.8087333442942537  1.0000
  H   H13       1.0  0.4910303873890598  0.5848776311777186  0.23410286236836697  1.0000
  H   H14       1.0  0.9061479903304956  0.6492420732335803  0.4151347136005654  1.0000
  H   H15       1.0  0.25685525120960767  0.7658897429378873  0.35078689616221237  1.0000
  H   H16       1.0  0.5089694507160161  0.41512178004769856  0.7658968291416812  1.0000
  H   H17       1.0  0.0938521491004067  0.35075793977480885  0.5848647641682518  1.0000
  H   H18       1.0  0.7431448873088513  0.23411027004929966  0.6492136108317013  1.0000
  H   H19       1.0  0.5862200024888082  0.6513033344597475  0.14901286927263865  1.0000
  H   H20       1.0  0.934914231766072  0.4977414554730189  0.3487079748742588  1.0000
  H   H21       1.0  0.4372520076202236  0.8509833095873849  0.502276758996068  1.0000
  H   H22       1.0  0.41378124073075645  0.3486966785403853  0.8509866906919399  1.0000
  H   H23       1.0  0.06508590720860499  0.5022585575247689  0.6512920175071102  1.0000
  H   H24       1.0  0.562747830028627  0.14901610162743142  0.4977234471265248  1.0000
  H   H25       1.0  0.3727961201228213  0.4069015964646781  0.18524833238628696  1.0000
  H   H26       1.0  0.9658946310524071  0.7783548425535332  0.593023695679939  1.0000
  H   H27       1.0  0.1874463733985793  0.8146899823765852  0.22162564613991984  1.0000
  H   H28       1.0  0.6272029150632008  0.5930984165413593  0.8147515777993205  1.0000
  H   H29       1.0  0.034104705003223004  0.22164577222487486  0.40697651537698926  1.0000
  H   H30       1.0  0.8125526622436681  0.18531003064005355  0.7783737494331433  1.0000
  H   H31       1.0  0.25021780627476176  0.5757470547991659  0.43809402643076106  1.0000
  H   H32       1.0  0.6744183806971551  0.8623812280420328  0.42423214387103064  1.0000
  H   H33       1.0  0.8120469923281987  0.5618764614320001  0.1376685626841692  1.0000
  H   H34       1.0  0.7497831360751946  0.4242523564286033  0.5619052326625039  1.0000
  H   H35       1.0  0.32558035361925874  0.13761818319163413  0.5757674654432564  1.0000
  H   H36       1.0  0.18795204285783035  0.43812355157403726  0.8623313475014386  1.0000
  H   H37       1.0  0.47339603598180696  0.40762471182148374  0.31316136984957416  1.0000
  H   H38       1.0  0.06576063032228069  0.9055476890411783  0.5923154429977301  1.0000
  H   H39       1.0  0.16011480030140046  0.6868132359844596  0.09444466998099436  1.0000
  H   H40       1.0  0.5266026978783884  0.5923746994015887  0.6868387540772646  1.0000
  H   H41       1.0  0.9342395086524037  0.09445232395660955  0.4076845493836387  1.0000
  H   H42       1.0  0.8398853386732765  0.31318677701332837  0.9055553224003746  1.0000
  H   H43       1.0  0.13679521373897782  0.5808708173694441  0.31485129356089914  1.0000
  H   H44       1.0  0.5559208906851654  0.7339837738824503  0.4191074677346408  1.0000
  H   H45       1.0  0.8219151772428078  0.6851334190659772  0.2660508450619261  1.0000
  H   H46       1.0  0.8632063303501951  0.4191297974030591  0.6851485672749931  1.0000
  H   H47       1.0  0.4440792487457443  0.266016239125939  0.5808920100341766  1.0000
  H   H48       1.0  0.1780846608622682  0.31486599215944017  0.7339488464481222  1.0000
  H   H49       1.0  0.5845596215200075  0.23131563255343934  0.9563312577791335  1.0000
  H   H50       1.0  0.3533577708749648  0.7250960971422632  0.7687537981183398  1.0000
  H   H51       1.0  0.6281972920967859  0.04362027918956811  0.27492533402134  1.0000
  H   H52       1.0  0.4154405174546768  0.7686843804443486  0.04366873460223537  1.0000
  H   H53       1.0  0.6466418665064992  0.27490511941911683  0.23124619919735784  1.0000
  H   H54       1.0  0.37180284687789833  0.9563797338082198  0.725074658360029  1.0000
  H   H55       1.0  0.3367575390697581  0.1496851876957521  0.9471338826028202  1.0000
  H   H56       1.0  0.187070772541759  0.7974943957630674  0.8503302456401727  1.0000
  H   H57       1.0  0.38953074256070164  0.05280696016175312  0.202493744741588  1.0000
  H   H58       1.0  0.6632425999049258  0.8503148253020356  0.05286610977854179  1.0000
  H   H59       1.0  0.8129285635138715  0.2025062190153478  0.14966996541674862  1.0000
  H   H60       1.0  0.6104693968702082  0.9471930528466364  0.7975057330272295  1.0000
  H   H61       1.0  0.1490357254641168  0.3540979509948913  0.007714696905175282  1.0000
  H   H62       1.0  0.7950329347566125  0.6536123204377662  0.6458879611669276  1.0000
  H   H63       1.0  0.14123276542557073  0.9922790876449672  0.3463775634182087  1.0000
  H   H64       1.0  0.8509655168430044  0.6459020619840388  0.9922858922844995  1.0000
  H   H65       1.0  0.20496690334846332  0.34638709078765123  0.3541117303431207  1.0000
  H   H66       1.0  0.8587662693042263  0.007720925350476203  0.6536228613799437  1.0000
  H   H67       1.0  0.39374719315277673  0.43414036986840904  0.014290917920419602  1.0000
  H   H68       1.0  0.9597521926612771  0.5801530594798835  0.5659075488228282  1.0000
  H   H69       1.0  0.3794203793608303  0.9857636908738526  0.41985983839732904  1.0000
  H   H70       1.0  0.6062537487409613  0.565859041348759  0.9857088557853901  1.0000
  H   H71       1.0  0.040247946769632434  0.41984695352850576  0.4340919289459891  1.0000
  H   H72       1.0  0.6205783549555833  0.014235720359820904  0.5801397709169578  1.0000
  C   C1        1.0  0.7827337761665448  0.40200104763915334  0.04999535353771733  1.0000
  C   C2        1.0  0.3808131277407513  0.6480246273342802  0.5980212728123676  1.0000
  C   C3        1.0  0.7325815309335724  0.9499696963708645  0.3519947837181761  1.0000
  C   C4        1.0  0.21726636280813955  0.5979989653586346  0.9500046388436517  1.0000
  C   C5        1.0  0.6191867099080995  0.3519747838805359  0.4019789333102324  1.0000
  C   C6        1.0  0.2674189093669455  0.0500309184098882  0.6480049949219548  1.0000
  C   C7        1.0  0.7800904629241644  0.3808484010246361  0.11242482782067502  1.0000
  C   C8        1.0  0.3992520600973252  0.7315909129962963  0.6191701866810392  1.0000
  C   C9        1.0  0.6676099888991588  0.8875497301374441  0.26841048889527036  1.0000
  C   C10       1.0  0.21990967650674526  0.6191516119837532  0.8875746499481423  1.0000
  C   C11       1.0  0.60074727550208  0.2684097017715105  0.3808305389884411  1.0000
  C   C12       1.0  0.3323898496621354  0.11244968109857471  0.7315886880022262  1.0000
  C   C13       1.0  0.9254518259234317  0.41052212356451195  0.16135717856062828  1.0000
  C   C14       1.0  0.5148931934971088  0.7508742874658906  0.5894669471257784  1.0000
  C   C15       1.0  0.7640531249909659  0.8386121730540952  0.24916654779244146  1.0000
  C   C16       1.0  0.07454971816574142  0.5894784912079843  0.8386426822752712  1.0000
  C   C17       1.0  0.4851066455204034  0.2491251237807291  0.41053171515917347  1.0000
  C   C18       1.0  0.2359481177723808  0.1613878399354363  0.7508335267846817  1.0000
  C   C19       1.0  0.01796775970989022  0.45007297090916876  0.1292702553967331  1.0000
  C   C20       1.0  0.5679499685696571  0.6792352427323396  0.549914972604526  1.0000
  C   C21       1.0  0.8886658741534532  0.8707227613302353  0.3208134193081236  1.0000
  C   C22       1.0  0.9820337839230577  0.5499276438527334  0.870730120051718  1.0000
  C   C23       1.0  0.43204796282770275  0.32076477028195444  0.45008485538532744  1.0000
  C   C24       1.0  0.11133566947950163  0.12927785343166687  0.6791869561403202  1.0000
  C   C25       1.0  0.17450600236556102  0.49109168226212313  0.16403322354963018  1.0000
  C   C26       1.0  0.6835176986954536  0.6729708669828869  0.5089225712581467  1.0000
  C   C27       1.0  0.01051308757701718  0.8359780445916841  0.32708983019753646  1.0000
  C   C28       1.0  0.8254958421370023  0.5089095342721424  0.8359674527701273  1.0000
  C   C29       1.0  0.3164805331152962  0.3270297477931764  0.49107807221556504  1.0000
  C   C30       1.0  0.989488155186322  0.16402196839784725  0.6729102443795868  1.0000
  C   C31       1.0  0.2695715750967906  0.5310992550678223  0.13607135689803576  1.0000
  C   C32       1.0  0.7385325215667536  0.60498583014477  0.4689237684040107  1.0000
  C   C33       1.0  0.13351999504666887  0.8639400443738199  0.39506079574947967  1.0000
  C   C34       1.0  0.7304291660733354  0.468901961485308  0.8639287226134158  1.0000
  C   C35       1.0  0.26146791827753907  0.3950147846253885  0.5310765248486788  1.0000
  C   C36       1.0  0.8664804447976235  0.1360605703963316  0.604939497503203  1.0000
  C   C37       1.0  0.4269540782972712  0.5777576960070405  0.178157843017722  1.0000
  C   C38       1.0  0.8492312528072005  0.6004324614624892  0.4222737434123828  1.0000
  C   C39       1.0  0.2487569090812657  0.8218260748881436  0.3995951979027765  1.0000
  C   C40       1.0  0.5730474653356763  0.4222429187548613  0.8218425324307289  1.0000
  C   C41       1.0  0.1507691865808667  0.3995681532970679  0.5777270644528514  1.0000
  C   C42       1.0  0.7512432294371932  0.17817393809904303  0.600405309091137  1.0000
  C   C43       1.0  0.47564659072507  0.6110987412663178  0.13459723449044253  1.0000
  C   C44       1.0  0.8645967767345936  0.523530342061747  0.3889185973145856  1.0000
  C   C45       1.0  0.3411214967254353  0.8653970519601446  0.47648283171935907  1.0000
  C   C46       1.0  0.5243549529078849  0.3889018734955841  0.8654031409580015  1.0000
  C   C47       1.0  0.13540336178386536  0.4764696709254396  0.6110819096793279  1.0000
  C   C48       1.0  0.6588783413796406  0.13460235926527286  0.5235168597906892  1.0000
  C   C49       1.0  0.3481173164390016  0.5853218480519333  0.06588790922236853  1.0000
  C   C50       1.0  0.7628311037209983  0.4805614933297521  0.4146777035323056  1.0000
  C   C51       1.0  0.2823763980798049  0.9341499213096472  0.5194612673326661  1.0000
  C   C52       1.0  0.6518831238615094  0.41467876672881954  0.9341118694177625  1.0000
  C   C53       1.0  0.23716823233463205  0.5194391214486559  0.5853225075246158  1.0000
  C   C54       1.0  0.7176226371062172  0.0658500916963902  0.4805386428529416  1.0000
  C   C55       1.0  0.6531525829354193  0.3872911822120599  0.990153035860736  1.0000
  C   C56       1.0  0.26595441697374156  0.6028788428265771  0.612727758591646  1.0000
  C   C57       1.0  0.6628372633869333  0.009820367140477503  0.397118855322141  1.0000
  C   C58       1.0  0.3468486598279199  0.6127088307774713  0.009847038716387072  1.0000
  C   C59       1.0  0.7340449186256706  0.39712177194122944  0.387272967077827  1.0000
  C   C60       1.0  0.33716397937640635  0.9901796458490613  0.6028812192549822  1.0000
  C   C61       1.0  0.2451646249867778  0.4934835845675281  0.23974359351863225  1.0000
  C   C62       1.0  0.7517475705718014  0.7462493066867925  0.5064384847392702  1.0000
  C   C63       1.0  0.005450507902040147  0.7602148366068846  0.2537756430821787  1.0000
  C   C64       1.0  0.7548355144441318  0.506516428440861  0.760255884250185  1.0000
  C   C65       1.0  0.24825116374461234  0.25375010454687447  0.4935611245750167  1.0000
  C   C66       1.0  0.994549631072644  0.2397851763909032  0.7462243492991902  1.0000
  C   C67       1.0  0.3440357115229488  0.44569801423450883  0.2403107062556557  1.0000
  C   C68       1.0  0.8983664342965411  0.794620963141327  0.5542097641487445  1.0000
  C   C69       1.0  0.10361138157512065  0.7596441610816811  0.2053669258440038  1.0000
  C   C70       1.0  0.6559644279079606  0.5543019987738802  0.7596887715131615  1.0000
  C   C71       1.0  0.10163260043326261  0.20537904985410904  0.44579066064940776  1.0000
  C   C72       1.0  0.8963876531546829  0.24035585191376202  0.7946334989541484  1.0000
  C   C73       1.0  0.27406958385490304  0.538879420634892  0.38068327679690844  1.0000
  C   C74       1.0  0.7352020503212842  0.8418124590237781  0.4610545761589221  1.0000
  C   C75       1.0  0.8933329086432805  0.6192829939707214  0.15821008349541196  1.0000
  C   C76       1.0  0.7259305560322244  0.4611205923840915  0.6193156863593643  1.0000
  C   C77       1.0  0.2647966844513547  0.1581869522204968  0.5389445185428201  1.0000
  C   C78       1.0  0.10666722987517839  0.38071701901646565  0.8417904234985016  1.0000
  C   C79       1.0  0.3996684418981928  0.4459417471686323  0.31130390733034835  1.0000
  C   C80       1.0  0.9537354674245009  0.8653803800185075  0.553991729875051  1.0000
  C   C81       1.0  0.08826049449150021  0.6886717345608774  0.1346300328809846  1.0000
  C   C82       1.0  0.6003302928744463  0.5540576640756429  0.688695187371394  1.0000
  C   C83       1.0  0.0462632668919127  0.13461903121515922  0.446007879439236  1.0000
  C   C84       1.0  0.9117396444831839  0.31132827843691063  0.8653699595003772  1.0000
  C   C85       1.0  0.21155855003276974  0.5417745618803098  0.312264353405567  1.0000
  C   C86       1.0  0.6698547857171705  0.7704754565416396  0.4581552714235713  1.0000
  C   C87       1.0  0.8992890543315613  0.6877201633846755  0.22954398823110006  1.0000
  C   C88       1.0  0.7884415893981397  0.45822545112807944  0.6877351243632503  1.0000
  C   C89       1.0  0.3301442499250767  0.229524556474999  0.5418441241494847  1.0000
  C   C90       1.0  0.10071108464312327  0.31227984961311267  0.7704560041502688  1.0000
  C   C91       1.0  0.5059178218636758  0.33822719871919554  0.9853363054856102  1.0000
  C   C92       1.0  0.1678594895564629  0.6471273239952924  0.6618178095304047  1.0000
  C   C93       1.0  0.5205033088250061  0.014654421134913805  0.352868436359195  1.0000
  C   C94       1.0  0.4940831200300551  0.6617722124979651  0.014663468220199061  1.0000
  C   C95       1.0  0.8321406489619959  0.3528726889918943  0.338182697463516  1.0000
  C   C96       1.0  0.4794965292800697  0.9853449900905036  0.6471312551508532  1.0000
  C   C97       1.0  0.4885695836994656  0.2579953066767615  0.9673349487424827  1.0000
  C   C98       1.0  0.23065436351712534  0.7093872988242257  0.7420420380772655  1.0000
  C   C99       1.0  0.5211762360864824  0.03261102042046821  0.2906119875897489  1.0000
  C   C100      1.0  0.5114313581942653  0.7420041045403993  0.032664824963326636  1.0000
  C   C101      1.0  0.7693460758709493  0.2906133159353246  0.2579587697879688  1.0000
  C   C102      1.0  0.4788236020185865  0.9673883908049494  0.7093877039202995  1.0000
  C   C103      1.0  0.3500795459434869  0.2122266222748479  0.9624293342197703  1.0000
  C   C104      1.0  0.13789538660709172  0.7502435812500325  0.7877910049101474  1.0000
  C   C105      1.0  0.3875414285002705  0.03750753806149021  0.24974948584232237  1.0000
  C   C106      1.0  0.6499202921615891  0.7877727889505695  0.0375703572902779  1.0000
  C   C107      1.0  0.8621036485789377  0.24975643175600493  0.21220890527545325  1.0000
  C   C108      1.0  0.6124584096048056  0.9624918731639273  0.7502502056677259  1.0000
  C   C109      1.0  0.2272121623919432  0.2467463852436182  0.9766064403398218  1.0000
  C   C110      1.0  0.9805144481210919  0.7298960998888548  0.7532508703407217  1.0000
  C   C111      1.0  0.2505025067836185  0.0233510502605938  0.2701038246920788  1.0000
  C   C112      1.0  0.7727893807847863  0.7532542295076825  0.02339444972117379  1.0000
  C   C113      1.0  0.019483182406666848  0.27010331135306853  0.24674865677780386  1.0000
  C   C114      1.0  0.7494973317776826  0.9766483609754248  0.7298953522054178  1.0000
  C   C115      1.0  0.07488497334731653  0.19650845995456484  0.9668678862294797  1.0000
  C   C116      1.0  0.8783687319670506  0.77035757810566  0.803468941342274  1.0000
  C   C117      1.0  0.1079871756211404  0.03309254675010461  0.22960944398545993  1.0000
  C   C118      1.0  0.9251173727484597  0.8034915530161089  0.03313278515595645  1.0000
  C   C119      1.0  0.12163060363235456  0.2296430366621537  0.196531784327199  1.0000
  C   C120      1.0  0.8920126624839355  0.9669068644753125  0.7703902475245882  1.0000
  C   C121      1.0  0.24347709909840634  0.3267255155193781  0.9956005484268005  1.0000
  C   C122      1.0  0.9168673417117503  0.6688806067106513  0.673278636194631  1.0000
  C   C123      1.0  0.24779631621775164  0.004412984596321202  0.33113247609878727  1.0000
  C   C124      1.0  0.7565244440783163  0.6732750992319227  0.004400341634195196  1.0000
  C   C125      1.0  0.08313169347427157  0.33111940629539294  0.32672127399097656  1.0000
  C   C126      1.0  0.7522024180986621  0.9955864266373526  0.6688671332154997  1.0000
  C   C127      1.0  0.38156126844407373  0.3717714886373714  0.9993165225550626  1.0000
  C   C128      1.0  0.009967700637119553  0.6275518352881237  0.6282609455829871  1.0000
  C   C129      1.0  0.3821960433657878  0.0007326506247196003  0.3724747359641754  1.0000
  C   C130      1.0  0.6184402751888812  0.6282291261245306  0.0006838528933812319  1.0000
  C   C131      1.0  0.9900313345489095  0.37244817771791366  0.3717389646026206  1.0000
  C   C132      1.0  0.6178051993975585  0.9992673623648118  0.6275253386129478  1.0000
  N   N1        1.0  0.9290889203314946  0.4424865277426734  0.0611034243346467  1.0000
  N   N2        1.0  0.4866815142166062  0.6186591548503204  0.5575164767191155  1.0000
  N   N3        1.0  0.8678790417373462  0.9388792801381031  0.3813792363344461  1.0000
  N   N4        1.0  0.0709123228880699  0.5575134852574593  0.9388961356299318  1.0000
  N   N5        1.0  0.5133183229760192  0.3813402563538945  0.44248424401602904  1.0000
  N   N6        1.0  0.13212360614048183  0.0611213346261437  0.6186207066972074  1.0000
  N   N7        1.0  0.22633440641093477  0.535709353560634  0.06775995569450545  1.0000
  N   N8        1.0  0.6906768313098937  0.5320702888760707  0.464323396353663  1.0000
  N   N9        1.0  0.15868481829441095  0.9322813837737273  0.467985150349847  1.0000
  N   N10       1.0  0.7736663343029663  0.46429186298189523  0.932240638429498  1.0000
  N   N11       1.0  0.309323608534399  0.46793032589408784  0.5356768968990266  1.0000
  N   N12       1.0  0.8413167253385366  0.0677192309881747  0.532015225098597  1.0000
  N   N13       1.0  0.36527325049289067  0.49115409242714503  0.3803516461669433  1.0000
  N   N14       1.0  0.8740985959898497  0.8892074725731833  0.5087910856006701  1.0000
  N   N15       1.0  0.9848132579513091  0.6196186188574659  0.11079681123983685  1.0000
  N   N16       1.0  0.634725483823523  0.5088453188065288  0.6196479631473508  1.0000
  N   N17       1.0  0.12590154298483472  0.11079254042460461  0.49120890678069884  1.0000
  N   N18       1.0  0.015186880567156943  0.38038139412972083  0.8892036957540839  1.0000
  F   F1        1.0  0.08847442541195963  0.13785848529290942  0.985325880120456  1.0000
  F   F2        1.0  0.9505749424827317  0.8474626595866683  0.8621084889291313  1.0000
  F   F3        1.0  0.10315683192543901  0.014673065093205706  0.1525333975403314  1.0000
  F   F4        1.0  0.911524308904454  0.8621409259407643  0.014673729193830825  1.0000
  F   F5        1.0  0.04942519603572749  0.1525373534005183  0.13789201806478246  1.0000
  F   F6        1.0  0.8968419028471999  0.9853263461510624  0.8474656971614111  1.0000
  F   F7        1.0  0.9861410950379794  0.15820735463442764  0.8886035114798715  1.0000
  F   F8        1.0  0.8279896392228424  0.7303766065061199  0.8417835777499648  1.0000
  F   F9        1.0  0.09753183982497403  0.11137438221130941  0.2696190645552221  1.0000
  F   F10       1.0  0.013861251514022531  0.8417926583468474  0.11139664529301295  1.0000
  F   F11       1.0  0.17200969728901333  0.26962400828288935  0.158216118694412  1.0000
  F   F12       1.0  0.9024676969542682  0.8886244272311433  0.7303808406960641  1.0000
  F   F13       1.0  0.9899644684656508  0.24112001913964326  0.012842321402118304  1.0000
  F   F14       1.0  0.7488600796618101  0.7716825820812971  0.7588560599803813  1.0000
  F   F15       1.0  0.9770993447359472  0.9871072605244464  0.22824460631534288  1.0000
  F   F16       1.0  0.010035971378641862  0.7588805956305152  0.9871579718505641  1.0000
  F   F17       1.0  0.25113955726343556  0.22831863446948125  0.2411444519478607  1.0000
  F   F18       1.0  0.022899389580473398  0.012892150709220106  0.7717550029989438  1.0000
