data_image0
_chemical_formula_structural       H32Pb8C24Br8O16
_chemical_formula_sum              "H32 Pb8 C24 Br8 O16"
_cell_length_a       9.005553617524356
_cell_length_b       9.005560454045868
_cell_length_c       14.233169976797216
_cell_angle_alpha    89.97068552979506
_cell_angle_beta     89.98240533978696
_cell_angle_gamma    89.98762174699739

_space_group_name_H-M_alt    "P 1"
_space_group_IT_number       1

loop_
  _space_group_symop_operation_xyz
  'x, y, z'

loop_
  _atom_site_type_symbol
  _atom_site_label
  _atom_site_symmetry_multiplicity
  _atom_site_fract_x
  _atom_site_fract_y
  _atom_site_fract_z
  _atom_site_occupancy
  H   H1        1.0  0.5158719148911146  0.21069277669121078  0.3820961592166156  1.0000
  H   H2        1.0  0.48440106996522303  0.7895610841511385  0.8819303913477439  1.0000
  H   H3        1.0  0.28933698699822225  0.015784972252752997  0.6320173255523895  1.0000
  H   H4        1.0  0.7105456241815984  0.9842873556194293  0.13200463930200357  1.0000
  H   H5        1.0  0.9841635886433051  0.7106433142104008  0.8680114775685437  1.0000
  H   H6        1.0  0.015814115169987996  0.2894325015353729  0.36797053710314725  1.0000
  H   H7        1.0  0.21056977985588077  0.515815093919407  0.6179857283257914  1.0000
  H   H8        1.0  0.7894194393725938  0.4841903414832628  0.11801081477729265  1.0000
  H   H9        1.0  0.5022549076216549  0.35220674486210163  0.2966372964914682  1.0000
  H   H10       1.0  0.4977975421157125  0.6479175813413888  0.796537344674881  1.0000
  H   H11       1.0  0.14769692373840826  0.0022689085091655995  0.5466288893008836  1.0000
  H   H12       1.0  0.8521293049519725  0.9978447692804191  0.04662840999835538  1.0000
  H   H13       1.0  0.9977948941548929  0.8521101574311841  0.953498130964  1.0000
  H   H14       1.0  0.0021991261247649003  0.14785740380710877  0.4533749715336126  1.0000
  H   H15       1.0  0.3520557818573806  0.5022709266685438  0.7034754778977115  1.0000
  H   H16       1.0  0.6478208628020211  0.4977794623632761  0.20340377256768954  1.0000
  H   H17       1.0  0.7628906333069025  0.29831396319318776  0.3546021620319805  1.0000
  H   H18       1.0  0.23733672977859743  0.7017523975493204  0.8545889331715484  1.0000
  H   H19       1.0  0.20170807650226408  0.26286585716479743  0.6046286250973975  1.0000
  H   H20       1.0  0.7982541905334769  0.7373087779064916  0.10458686622643397  1.0000
  H   H21       1.0  0.7371594727066864  0.7981830230632311  0.8954421410567972  1.0000
  H   H22       1.0  0.2628039587379972  0.2017513309102199  0.39549669445333524  1.0000
  H   H23       1.0  0.2982196470485404  0.7627868376815314  0.645453554134171  1.0000
  H   H24       1.0  0.7016964502676544  0.23715049595743656  0.14545486920169987  1.0000
  H   H25       1.0  0.7510173029261792  0.1170445375116671  0.3089973854290022  1.0000
  H   H26       1.0  0.24900738522887172  0.8830334246651502  0.8090241422820836  1.0000
  H   H27       1.0  0.38297683560392665  0.2509972629856064  0.5590508238102528  1.0000
  H   H28       1.0  0.6169827732492266  0.7489881052907207  0.05897396293453028  1.0000
  H   H29       1.0  0.7489331530032003  0.6169661626099696  0.9410570256659481  1.0000
  H   H30       1.0  0.25107851556975896  0.38301861045150076  0.4411019616923823  1.0000
  H   H31       1.0  0.11697141725279889  0.7510988546249848  0.691038951891933  1.0000
  H   H32       1.0  0.882987299616495  0.2490477439419293  0.19106230271851385  1.0000
  Pb  Pb1       1.0  0.30171732050514066  0.9122355753224196  0.12627572007007604  1.0000
  Pb  Pb2       1.0  0.6983049179368094  0.0878810609336469  0.6261290558928037  1.0000
  Pb  Pb3       1.0  0.588093653489473  0.8011684261921346  0.3768473826580346  1.0000
  Pb  Pb4       1.0  0.412207805435031  0.19836570106995302  0.8761067689504498  1.0000
  Pb  Pb5       1.0  0.19895275061119824  0.41226178280036396  0.12343465963459715  1.0000
  Pb  Pb6       1.0  0.801811019795359  0.5875691040368167  0.6239642132655162  1.0000
  Pb  Pb7       1.0  0.9119679666288362  0.3014050043251045  0.8736370469092589  1.0000
  Pb  Pb8       1.0  0.0879461929091931  0.6984131294682924  0.37352646110481647  1.0000
  C   C1        1.0  0.4627753779209554  0.13195770240891844  0.24626618972455813  1.0000
  C   C2        1.0  0.5372110739837622  0.8679842128829803  0.7460459523470743  1.0000
  C   C3        1.0  0.3678192059409398  0.9627258041291922  0.4962143028603234  1.0000
  C   C4        1.0  0.6319902182516798  0.03724406342423239  0.9961647529023376  1.0000
  C   C5        1.0  0.0372373486159958  0.6319391897685803  0.0037973154102103985  1.0000
  C   C6        1.0  0.9627837106621655  0.3680214760194573  0.5038064127257939  1.0000
  C   C7        1.0  0.1319030780195689  0.4627523592866964  0.7537981609590998  1.0000
  C   C8        1.0  0.8680120591276647  0.5372018988046604  0.2538549140779054  1.0000
  C   C9        1.0  0.544271341881533  0.2396446815401063  0.3091382760051359  1.0000
  C   C10       1.0  0.45579092472293325  0.76045961899802  0.8090392472365405  1.0000
  C   C11       1.0  0.2602409958784904  0.0442833704738064  0.559103623133417  1.0000
  C   C12       1.0  0.7395818291970143  0.9557615721576693  0.05908275896987898  1.0000
  C   C13       1.0  0.9557200754424566  0.7396156842790802  0.9409456596800607  1.0000
  C   C14       1.0  0.044264117672007296  0.2604163518875778  0.4409091266659714  1.0000
  C   C15       1.0  0.239523364141462  0.544295861505077  0.6909237019623403  1.0000
  C   C16       1.0  0.7603723609201154  0.45574237633296394  0.19094563035781675  1.0000
  C   C17       1.0  0.7131755152594933  0.23189829206174284  0.2978825807929794  1.0000
  C   C18       1.0  0.2868920926165258  0.7682140670467845  0.7978340098388156  1.0000
  C   C19       1.0  0.26812148006761294  0.2131632696481489  0.5478936730779862  1.0000
  C   C20       1.0  0.731809957414697  0.7868797674240965  0.04783600926010929  1.0000
  C   C21       1.0  0.7868272922696419  0.7317994693862673  0.9521982945910279  1.0000
  C   C22       1.0  0.21316035797748606  0.2681920978302016  0.4522185818874787  1.0000
  C   C23       1.0  0.2317892085538986  0.7131806887079434  0.702205725323331  1.0000
  C   C24       1.0  0.7681188849981807  0.28684938121177334  0.2021800476098007  1.0000
  Br  Br1       1.0  0.127444914165153  0.1271728578720683  0.999640133284991  1.0000
  Br  Br2       1.0  0.8728188706721268  0.8725082880607998  0.5002670707823851  1.0000
  Br  Br3       1.0  0.37296836337389994  0.6275118500477671  0.2498570512533219  1.0000
  Br  Br4       1.0  0.6267657175968252  0.37305948336751976  0.749944211609616  1.0000
  Br  Br5       1.0  0.04465234939488029  0.9551627136967868  0.24976753735114693  1.0000
  Br  Br6       1.0  0.9551978198157299  0.0447606257165702  0.7498177248595397  1.0000
  Br  Br7       1.0  0.5446736442758605  0.5442783564082347  0.5002712248098928  1.0000
  Br  Br8       1.0  0.45556560160240167  0.4556193498333839  0.9996185203579839  1.0000
  O   O1        1.0  0.35720587372945534  0.1755795791882022  0.19342560757790742  1.0000
  O   O2        1.0  0.642892528972105  0.8243263355143357  0.6933512567300395  1.0000
  O   O3        1.0  0.3243502843419677  0.8567291024521778  0.44375663110908886  1.0000
  O   O4        1.0  0.6756484602226748  0.14303952147319873  0.9435318152309686  1.0000
  O   O5        1.0  0.14286996141872524  0.6755081369781379  0.056551241404363885  1.0000
  O   O6        1.0  0.8571925014733209  0.3243009351112461  0.556582783527922  1.0000
  O   O7        1.0  0.1755629277737114  0.3571568754913698  0.8065696182815995  1.0000
  O   O8        1.0  0.8244745527810621  0.6429079467530912  0.30658158667666396  1.0000
  O   O9        1.0  0.5004124332860584  0.9939250693016531  0.24685973430216981  1.0000
  O   O10       1.0  0.4993787096866951  0.0059992076645656  0.7464191131513613  1.0000
  O   O11       1.0  0.5057562612896334  0.000800500872927  0.49651961190970423  1.0000
  O   O12       1.0  0.4940079690330207  0.9993723337736142  0.9964981878260982  1.0000
  O   O13       1.0  0.9995611548681467  0.4939238970431602  0.003207810770824399  1.0000
  O   O14       1.0  0.0004743010148474001  0.5060489577646266  0.5033476700164952  1.0000
  O   O15       1.0  0.9938318682478593  0.50040539089688  0.7532958931905039  1.0000
  O   O16       1.0  0.006014442671165899  0.4994043878319942  0.2533411549741515  1.0000
