data_image0
_chemical_formula_structural       Ni4H52C44N12O24
_chemical_formula_sum              "Ni4 H52 C44 N12 O24"
_cell_length_a       7.852822916
_cell_length_b       12.5138086629537
_cell_length_c       14.2417
_cell_angle_alpha    90.0
_cell_angle_beta     90.0
_cell_angle_gamma    95.72834206094146

_space_group_name_H-M_alt    "P 1"
_space_group_IT_number       1

loop_
  _space_group_symop_operation_xyz
  'x, y, z'

loop_
  _atom_site_type_symbol
  _atom_site_label
  _atom_site_symmetry_multiplicity
  _atom_site_fract_x
  _atom_site_fract_y
  _atom_site_fract_z
  _atom_site_occupancy
  Ni  Ni1       1.0  0.1860543819050022  0.759816709945575  0.6859454980795832  1.0000
  Ni  Ni2       1.0  0.31394947427717307  0.740183448109974  0.1859476045696766  1.0000
  Ni  Ni3       1.0  0.8139461156844234  0.2401825922970033  0.3140516932669541  1.0000
  Ni  Ni4       1.0  0.6860500053671925  0.2598174603881773  0.8140537997570547  1.0000
  H   H1        1.0  0.48992226378779685  0.5217840907293976  0.6820414697683574  1.0000
  H   H2        1.0  0.010061469053710005  0.9782096423038737  0.1820365546248013  1.0000
  H   H3        1.0  0.5100795112134051  0.4782232427910387  0.3179585302316426  1.0000
  H   H4        1.0  0.9899265457595519  0.0217832349164269  0.8179585302316426  1.0000
  H   H5        1.0  0.2378351696324756  0.2822174974435896  0.4990057366746967  1.0000
  H   H6        1.0  0.26216055630351315  0.2177777364748792  0.9990071410014281  1.0000
  H   H7        1.0  0.7621682580353165  0.7177842141823448  0.5009963698154039  1.0000
  H   H8        1.0  0.7378366279840165  0.7822167470009872  0.0009928589985719  1.0000
  H   H9        1.0  0.18100217279319245  0.6155331970891069  0.4515170239507924  1.0000
  H   H10       1.0  0.3190037192791024  0.8844637484552962  0.9515205347676172  1.0000
  H   H11       1.0  0.8190022728196595  0.3844669082812544  0.5484780609056514  1.0000
  H   H12       1.0  0.6810018720199904  0.1155355537872822  0.0484794652323828  1.0000
  H   H13       1.0  0.3363586935115492  0.0098198434289429  0.6879108533391403  1.0000
  H   H14       1.0  0.1636404734675168  0.4901810123840278  0.1879115555025024  1.0000
  H   H15       1.0  0.6636437162111832  0.9901834744525644  0.3120926574776917  1.0000
  H   H16       1.0  0.8363620600120356  0.5098150773474117  0.8120968704578786  1.0000
  H   H17       1.0  0.20068918296446006  0.0253129815321316  0.4003258038015147  1.0000
  H   H18       1.0  0.29931164066555027  0.474690283664195  0.9003265059648768  1.0000
  H   H19       1.0  0.7993169192993432  0.9746895332215928  0.5996763026885858  1.0000
  H   H20       1.0  0.7006745937399401  0.5253074123228174  0.0996784091786793  1.0000
  H   H21       1.0  0.08724828615050477  0.823532852779877  0.47267671696496893  1.0000
  H   H22       1.0  0.4127585001100371  0.6764697146590279  0.9726795256184317  1.0000
  H   H23       1.0  0.9127446986155974  0.17646725259049129  0.5273253895251244  1.0000
  H   H24       1.0  0.5872273550562782  0.3235336032224794  0.0273218787082996  1.0000
  H   H25       1.0  0.3917442139209796  0.739237363579079  0.5377616436240089  1.0000
  H   H26       1.0  0.10825760238671478  0.7607579757097582  0.0377637501141024  1.0000
  H   H27       1.0  0.60826074265659  0.2607659543024283  0.4622348455591663  1.0000
  H   H28       1.0  0.8917412385517595  0.2392389171494642  0.962234845559166  1.0000
  H   H29       1.0  0.4789779456967835  0.7035704586408897  0.637873287599092  1.0000
  H   H30       1.0  0.021022469442314708  0.7964240775201645  0.137873287599092  1.0000
  H   H31       1.0  0.521024591767123  0.2964336623684076  0.3621246059108145  1.0000
  H   H32       1.0  0.9789761160138113  0.203571209083492  0.8621224994207137  1.0000
  H   H33       1.0  0.3540361482715042  0.1253080126768964  0.5443479359907855  1.0000
  H   H34       1.0  0.1459631464487359  0.3746936462638573  0.04434863815415469  1.0000
  H   H35       1.0  0.645967407137462  0.8746945020768209  0.455654170499308  1.0000
  H   H36       1.0  0.8540325089290234  0.6252992309564434  0.9556590856428642  1.0000
  H   H37       1.0  0.11030010719986189  0.5755414490279236  0.7436296228680561  1.0000
  H   H38       1.0  0.38970374898231336  0.9244587090276255  0.243628920704694  1.0000
  H   H39       1.0  0.8897000071660343  0.4244554438312989  0.2563675684784812  1.0000
  H   H40       1.0  0.6103036267089053  0.0755438057260989  0.7563668663151191  1.0000
  H   H41       1.0  0.11725536061359779  0.6554663168219789  0.831503261548832  1.0000
  H   H42       1.0  0.3827411104864353  0.8445354474891431  0.33150396371219404  1.0000
  H   H43       1.0  0.8827430971013468  0.3445281666538946  0.1684946319610745  1.0000
  H   H44       1.0  0.6172591356049963  0.1554702797757201  0.6684939297977053  1.0000
  H   H45       1.0  0.42610910499239196  0.8882183708508435  0.8001706256977741  1.0000
  H   H46       1.0  0.07389589687602437  0.6117809840769226  0.3001720300245054  1.0000
  H   H47       1.0  0.573898649938009  0.111778522008386  0.1998286721388567  1.0000
  H   H48       1.0  0.926101674619396  0.3882239400601577  0.6998279699754946  1.0000
  H   H49       1.0  0.4065321738149024  0.7618847639923132  0.8185974988940927  1.0000
  H   H50       1.0  0.09347270031233991  0.7381137878076629  0.3186003075475554  1.0000
  H   H51       1.0  0.5934706151470053  0.2381129319946922  0.18140179894254518  1.0000
  H   H52       1.0  0.9065295816692183  0.2618887269460615  0.6814017989425452  1.0000
  C   C1        1.0  0.3389831232011176  0.5815038697048251  0.5697957406770228  1.0000
  C   C2        1.0  0.16101359939690948  0.9184914695840121  0.0697950385136608  1.0000
  C   C3        1.0  0.6610245079724565  0.41850025130446505  0.4302049614863392  1.0000
  C   C4        1.0  0.838984730576861  0.0815022107640715  0.9302042593229771  1.0000
  C   C5        1.0  0.4065272818462233  0.5014994922600451  0.6221364022553502  1.0000
  C   C6        1.0  0.09346307361471419  0.998495847028792  0.1221342957652496  1.0000
  C   C7        1.0  0.5934720740413226  0.4985086443881741  0.3778614912545564  1.0000
  C   C8        1.0  0.9065325817630379  0.0014970301915085  0.8778621934179185  1.0000
  C   C9        1.0  0.3747913925671682  0.3938667158785663  0.5956297352141959  1.0000
  C   C10       1.0  0.1252042056276395  0.1061277149121196  0.0956311395409273  1.0000
  C   C11       1.0  0.6252128015476898  0.6061398145140799  0.4043723712758975  1.0000
  C   C12       1.0  0.8747938688637757  0.8938643591803981  0.904369562622442  1.0000
  C   C13       1.0  0.2662199956267912  0.3656431992530784  0.520118384743391  1.0000
  C   C14       1.0  0.2337809517600391  0.1343528377931733  0.0201204912334916  1.0000
  C   C15       1.0  0.7337838152645303  0.6343609217562118  0.479881615256609  1.0000
  C   C16       1.0  0.7662189071235018  0.8656424488104761  0.9798781044397771  1.0000
  C   C17       1.0  0.1947093543495342  0.44536889135641633  0.4686898333766365  1.0000
  C   C18       1.0  0.3052910820725856  0.0546239331786964  0.9686926420300921  1.0000
  C   C19       1.0  0.8052925444084877  0.5546312140139449  0.5313101666233635  1.0000
  C   C20       1.0  0.694712852575563  0.9453729596805259  0.0313087622966393  1.0000
  C   C21       1.0  0.2342251423622272  0.5533012344017507  0.4923316738872501  1.0000
  C   C22       1.0  0.2657783305964116  0.9466965142704424  0.9923323760506122  1.0000
  C   C23       1.0  0.7657833790152323  0.4467004772241836  0.5076634109691938  1.0000
  C   C24       1.0  0.734224713847844  0.0533027879721359  0.0076683261127499  1.0000
  C   C25       1.0  0.4721995887328204  0.3128351379965935  0.6444230674708749  1.0000
  C   C26       1.0  0.027793973571860392  0.18716250530523837  0.1444237696342441  1.0000
  C   C27       1.0  0.527799383931189  0.6871705892682698  0.3555748260390246  1.0000
  C   C28       1.0  0.972200663860832  0.8128319781706352  0.8555741238756622  1.0000
  C   C29       1.0  0.0752994138862775  0.4124832179381741  0.3893467774212382  1.0000
  C   C30       1.0  0.424702934669149  0.0875136222358677  0.8893495860746938  1.0000
  C   C31       1.0  0.9247026126129256  0.5875176905599702  0.6106476052718435  1.0000
  C   C32       1.0  0.5752969242143846  0.9124816643677889  0.11064760527184349  1.0000
  C   C33       1.0  0.2831779954493853  0.9850675504612028  0.6201183847433924  1.0000
  C   C34       1.0  0.21682191270936357  0.5149318044665563  0.1201190869067617  1.0000
  C   C35       1.0  0.7168174084303799  0.014931751781375598  0.3798823174199697  1.0000
  C   C36       1.0  0.7831799860486583  0.48506830090381203  0.879883721746701  1.0000
  C   C37       1.0  0.213072448759668  0.9916274982102493  0.46972482217712747  1.0000
  C   C38       1.0  0.2869226211717688  0.5083734629730827  0.9697255243404896  1.0000
  C   C39       1.0  0.7869283043121129  0.008373410287895  0.5302793908030665  1.0000
  C   C40       1.0  0.7130662878297329  0.4916250361417127  0.0302807951297979  1.0000
  C   C41       1.0  0.15898075130257888  0.8918999086179369  0.5056685648482997  1.0000
  C   C42       1.0  0.3410208135071215  0.6081018556931852  0.0056706713383932  1.0000
  C   C43       1.0  0.8410271353533573  0.1081058186469264  0.494334243805163  1.0000
  C   C44       1.0  0.658963508765062  0.3918918246549055  0.9943335416418009  1.0000
  N   N1        1.0  0.37351245161423213  0.6907750267679943  0.5958474058574481  1.0000
  N   N2        1.0  0.1264870733209804  0.8092219187764158  0.0958481080208102  1.0000
  N   N3        1.0  0.6264912315359153  0.3092282911135129  0.4041469768356336  1.0000
  N   N4        1.0  0.8735090930214822  0.19077417095502366  0.9041490833257271  1.0000
  N   N5        1.0  0.20393414318233735  0.8888263385841952  0.599427034693889  1.0000
  N   N6        1.0  0.2960694575174827  0.6111722132157809  0.09942843902062037  1.0000
  N   N7        1.0  0.7960657196855577  0.1111769792973121  0.4005750717962044  1.0000
  N   N8        1.0  0.703925435397572  0.3888238765156586  0.9005736674694729  1.0000
  N   N9        1.0  0.2906031121143258  0.0489699135712911  0.5432209637894374  1.0000
  N   N10       1.0  0.20939796699803984  0.4510349578806014  0.0432216659527995  1.0000
  N   N11       1.0  0.7094006987769956  0.9510342074379992  0.4567832491907566  1.0000
  N   N12       1.0  0.7906002392189109  0.5489659506175499  0.9567853556808501  1.0000
  O   O1        1.0  0.5283690113704154  0.3378694341872759  0.7257293721957367  1.0000
  O   O2        1.0  0.9716129702540781  0.1621217840922711  0.2257265635422741  1.0000
  O   O3        1.0  0.4716367116542131  0.6621387024609432  0.2742720321309946  1.0000
  O   O4        1.0  0.028374022629755313  0.8378646681057447  0.7742727342943638  1.0000
  O   O5        1.0  0.49883456598928416  0.2267840114574682  0.5995492111194594  1.0000
  O   O6        1.0  0.001169566958267902  0.2732160412277125  0.0995534240996534  1.0000
  O   O7        1.0  0.5011672090119177  0.773223322062961  0.400452193207272  1.0000
  O   O8        1.0  0.9988262161606656  0.7267776391203711  0.9004472780637158  1.0000
  O   O9        1.0  0.014996207701628406  0.3140703485301373  0.3895019555249704  1.0000
  O   O10       1.0  0.48500372174014217  0.1859272947716875  0.8895054663418022  1.0000
  O   O11       1.0  0.9850090003739351  0.6859265443290852  0.6104938314948356  1.0000
  O   O12       1.0  0.5149958856454048  0.8140744168542468  0.1104917250047421  1.0000
  O   O13       1.0  0.039563262608659486  0.48187345857451186  0.3282880554989944  1.0000
  O   O14       1.0  0.4604392136879483  0.0181241847273199  0.8282908641524569  1.0000
  O   O15       1.0  0.9604387638905436  0.5181274499236395  0.6717070293574494  1.0000
  O   O16       1.0  0.5395663776111519  0.9818751175152656  0.1717091358475429  1.0000
  O   O17       1.0  0.1900659023530622  0.6280756437096855  0.7802298882858096  1.0000
  O   O18       1.0  0.3099370636252274  0.8719269237292195  0.2802284839590783  1.0000
  O   O19       1.0  0.809934212012834  0.3719212491495441  0.2197680052240969  1.0000
  O   O20       1.0  0.6900658570622156  0.1280796066634267  0.7197687073874589  1.0000
  O   O21       1.0  0.417660537276589  0.8158059603590146  0.769146239564094  1.0000
  O   O22       1.0  0.08234446459182723  0.6841933945687444  0.2691490482175567  1.0000
  O   O23       1.0  0.5823445430577933  0.1841901293724248  0.2308530582725368  1.0000
  O   O24       1.0  0.9176518334761781  0.3158115295683288  0.7308530582725367  1.0000
