data_image0
_chemical_formula_structural       Cu2H38C44N10O6
_chemical_formula_sum              "Cu2 H38 C44 N10 O6"
_cell_length_a       9.553093250092006
_cell_length_b       10.230700408048065
_cell_length_c       10.887465932575312
_cell_angle_alpha    107.97956686718835
_cell_angle_beta     90.00049310986944
_cell_angle_gamma    89.9999474961729

_space_group_name_H-M_alt    "P 1"
_space_group_IT_number       1

loop_
  _space_group_symop_operation_xyz
  'x, y, z'

loop_
  _atom_site_type_symbol
  _atom_site_label
  _atom_site_symmetry_multiplicity
  _atom_site_fract_x
  _atom_site_fract_y
  _atom_site_fract_z
  _atom_site_occupancy
  Cu  Cu1       1.0  0.84476755936609  0.320251630469741  0.3144796683282749  1.0000
  Cu  Cu2       1.0  0.34477513458074316  0.6797553999191592  0.6855238061988658  1.0000
  H   H1        1.0  0.11190902329570918  0.935050796566088  0.4623115973680428  1.0000
  H   H2        1.0  0.6119154070734821  0.06494451362581799  0.5376867656007605  1.0000
  H   H3        1.0  0.13283647417666336  0.6552407754077122  0.4746800807954373  1.0000
  H   H4        1.0  0.6328382752352011  0.3447648743158425  0.525326911211252  1.0000
  H   H5        1.0  0.019862052942208695  0.5464005657110106  0.3535064351610017  1.0000
  H   H6        1.0  0.5198670322149963  0.45360796058403696  0.6464996099976261  1.0000
  H   H7        1.0  0.7039536504474666  0.1302614087860263  0.9684348874280388  1.0000
  H   H8        1.0  0.20396193804275237  0.8697484397705462  0.03156557659099932  1.0000
  H   H9        1.0  0.7339661757808996  0.24264615851348034  0.818916469431926  1.0000
  H   H10       1.0  0.2339676690861977  0.7573575693270767  0.18108063149951184  1.0000
  H   H11       1.0  0.8267880097434455  0.4325975789979921  0.744894426854785  1.0000
  H   H12       1.0  0.32677890218673156  0.5674001447347621  0.2551007365027473  1.0000
  H   H13       1.0  0.9729790092693662  0.6160797290925045  0.8962874029691719  1.0000
  H   H14       1.0  0.4729675463010776  0.3839182603298282  0.10370985737433357  1.0000
  H   H15       1.0  0.0179002453956372  0.6123740717573227  0.11879016018723115  1.0000
  H   H16       1.0  0.5178971289241757  0.38762929133664414  0.8812097994151102  1.0000
  H   H17       1.0  0.6067297370161809  0.03988781974882729  0.1265356012595973  1.0000
  H   H18       1.0  0.10673783852171675  0.9601198040442752  0.8734644111229456  1.0000
  H   H19       1.0  0.7501426329220066  0.8550865357414635  0.13891561124874838  1.0000
  H   H20       1.0  0.25014931751508834  0.144920290957522  0.8610797434241634  1.0000
  H   H21       1.0  0.8336071955904172  0.9330653543565787  0.034887047712402385  1.0000
  H   H22       1.0  0.33362335352553874  0.06694163883261693  0.9651126580540962  1.0000
  H   H23       1.0  0.891965785651173  0.8336055642730432  0.3455373310401769  1.0000
  H   H24       1.0  0.39198088574815415  0.1663984460708861  0.6544610423049522  1.0000
  H   H25       1.0  0.34795423772237644  0.08500715365426709  0.4190416534572137  1.0000
  H   H26       1.0  0.8479591676394874  0.9149752625903955  0.5809639828733708  1.0000
  H   H27       1.0  0.4083800843680975  0.2516214077222116  0.3024936372510254  1.0000
  H   H28       1.0  0.9083800425749754  0.7483642166799385  0.6975170472299583  1.0000
  H   H29       1.0  0.25081769973547097  0.2836782056531391  0.13206205728184983  1.0000
  H   H30       1.0  0.7508120373600135  0.7163194512675871  0.8679472099929485  1.0000
  H   H31       1.0  0.03206320066292529  0.1513095609169994  0.07354769196757618  1.0000
  H   H32       1.0  0.5320579838380438  0.8486866255034542  0.9264484827160048  1.0000
  H   H33       1.0  0.9309824367966182  0.17945693894772316  0.48708058054924663  1.0000
  H   H34       1.0  0.43097561589615196  0.8205471454487634  0.5129190266361618  1.0000
  H   H35       1.0  0.09619089199536998  0.20036538978580146  0.6707769017297451  1.0000
  H   H36       1.0  0.5961808986647695  0.7996339898440538  0.3292197522636542  1.0000
  H   H37       1.0  0.24266935319246838  0.4189154368225799  0.7436358292277633  1.0000
  H   H38       1.0  0.7426619979981621  0.5810842219554074  0.25636568327785614  1.0000
  C   C1        1.0  0.7578468047543436  0.2092791004783479  0.04629755150117629  1.0000
  C   C2        1.0  0.2578537674113902  0.7907287891861118  0.9537027580806807  1.0000
  C   C3        1.0  0.8185640857031867  0.3211206369454373  0.011585372142995664  1.0000
  C   C4        1.0  0.3185694056020195  0.6788832680333741  0.9884179284468715  1.0000
  C   C5        1.0  0.795270160511407  0.32533554500177075  0.8842844156051796  1.0000
  C   C6        1.0  0.29526690506951775  0.6746672863843627  0.11571748342086607  1.0000
  C   C7        1.0  0.847506387587458  0.4302599846330182  0.8425262968826247  1.0000
  C   C8        1.0  0.3475015518440328  0.5697429185792088  0.15747142413939488  1.0000
  C   C9        1.0  0.9286061443526348  0.5336443657255217  0.9281892760931071  1.0000
  C   C10       1.0  0.4286005677077965  0.46635559530117365  0.07180729564170454  1.0000
  C   C11       1.0  0.9549451421839944  0.5322033142690117  0.052846486797321304  1.0000
  C   C12       1.0  0.454939795338859  0.46779567485287293  0.9471518422905234  1.0000
  C   C13       1.0  0.900927315876913  0.4270160943508259  0.09918705379030973  1.0000
  C   C14       1.0  0.4009287379287655  0.5729930830629327  0.9008156219308461  1.0000
  C   C15       1.0  0.7050217124714704  0.07037982571738159  0.1808371623419731  1.0000
  C   C16       1.0  0.20502931000128644  0.9296259142526607  0.8191621334166257  1.0000
  C   C17       1.0  0.8087508193005702  0.9468760919964295  0.13676644225115803  1.0000
  C   C18       1.0  0.30875761492010406  0.053130839489604384  0.8632293843894844  1.0000
  C   C19       1.0  0.938037079693174  0.9613183302006973  0.21703040436132426  1.0000
  C   C20       1.0  0.43804100681153085  0.038680602818914195  0.7829622702220576  1.0000
  C   C21       1.0  0.9604533571003909  0.901069172929077  0.3130000682153024  1.0000
  C   C22       1.0  0.46045942207519613  0.09892465773825168  0.686990396089513  1.0000
  C   C23       1.0  0.15145823873412917  0.029034293658753495  0.3154719186879049  1.0000
  C   C24       1.0  0.6514609916025831  0.9709425727575147  0.6845177879674224  1.0000
  C   C25       1.0  0.278028874916238  0.10045443107058105  0.3458024877015903  1.0000
  C   C26       1.0  0.7780261656826679  0.8995226918330343  0.6541946763083645  1.0000
  C   C27       1.0  0.31186047417934754  0.1920390902768716  0.2787423527277184  1.0000
  C   C28       1.0  0.8118606074955392  0.8079463313621458  0.7212611163759846  1.0000
  C   C29       1.0  0.2229202095845508  0.20972670026635853  0.18166387582333954  1.0000
  C   C30       1.0  0.722919221025087  0.7902667704042015  0.8183384715727584  1.0000
  C   C31       1.0  0.09899791939441367  0.13582589812605048  0.14887610973789833  1.0000
  C   C32       1.0  0.598988806499065  0.8641642335950336  0.8511169992013804  1.0000
  C   C33       1.0  0.05981203866348038  0.04484068838943499  0.21705757469050013  1.0000
  C   C34       1.0  0.5598105406060866  0.9551431989070734  0.7829316139696657  1.0000
  C   C35       1.0  0.6750153698961581  0.100741460268047  0.3246533029877057  1.0000
  C   C36       1.0  0.17502367686512335  0.8992652450507135  0.6753442058888055  1.0000
  C   C37       1.0  0.00013118855979139994  0.26757991674566733  0.521919244828581  1.0000
  C   C38       1.0  0.5001248180557737  0.7324244508263078  0.478082705343283  1.0000
  C   C39       1.0  0.09051392928262907  0.2802356953724185  0.6243409731147481  1.0000
  C   C40       1.0  0.5905086578354852  0.7197678061740759  0.37566141069223835  1.0000
  C   C41       1.0  0.17039708553934219  0.3993231492683122  0.6626287155184158  1.0000
  C   C42       1.0  0.6703957414489494  0.6006784441722743  0.3373746428984674  1.0000
  C   C43       1.0  0.07580909546430087  0.47548666921750266  0.502203996950513  1.0000
  C   C44       1.0  0.5758083563215519  0.5245188742298197  0.4978016160783767  1.0000
  N   N1        1.0  0.7625987124991623  0.1938918559480101  0.1601401369188338  1.0000
  N   N2        1.0  0.2626076812685482  0.8061119532856366  0.8398636327312233  1.0000
  N   N3        1.0  0.08935880505732287  0.9384922178375559  0.370281693875647  1.0000
  N   N4        1.0  0.5893671437301929  0.061501001103643184  0.6297168188069051  1.0000
  N   N5        1.0  0.9885196068115787  0.36390539122798765  0.4618099953062398  1.0000
  N   N6        1.0  0.4885184489161246  0.636099840923002  0.5381940483807526  1.0000
  N   N7        1.0  0.16576264554898754  0.49563798721001  0.6032814571893255  1.0000
  N   N8        1.0  0.66575988566629  0.5043666808149326  0.39672274654506623  1.0000
  N   N9        1.0  0.07134108222887649  0.5699701658311014  0.4403383619622049  1.0000
  N   N10       1.0  0.5713431373963757  0.430037437818136  0.5596705627179333  1.0000
  O   O1        1.0  0.9279516119071755  0.43346284505474836  0.21951054636785014  1.0000
  O   O2        1.0  0.427961278423318  0.5665443383761115  0.7804945177730006  1.0000
  O   O3        1.0  0.6020381895631458  0.020348146507913598  0.3633064974466366  1.0000
  O   O4        1.0  0.10204603778597489  0.9796563644583216  0.6366879958581535  1.0000
  O   O5        1.0  0.7334470321342934  0.20957879929709827  0.4018979569384059  1.0000
  O   O6        1.0  0.23345468632491148  0.7904208386921283  0.598102561630583  1.0000
