data_image0
_chemical_formula_structural       Zn2H24C28N12O8
_chemical_formula_sum              "Zn2 H24 C28 N12 O8"
_cell_length_a       9.605480733792902
_cell_length_b       9.47105828777691
_cell_length_c       10.274404074223229
_cell_angle_alpha    100.13341198161562
_cell_angle_beta     104.30368963843898
_cell_angle_gamma    92.89732908521806

_space_group_name_H-M_alt    "P 1"
_space_group_IT_number       1

loop_
  _space_group_symop_operation_xyz
  'x, y, z'

loop_
  _atom_site_type_symbol
  _atom_site_label
  _atom_site_symmetry_multiplicity
  _atom_site_fract_x
  _atom_site_fract_y
  _atom_site_fract_z
  _atom_site_occupancy
  Zn  Zn1       1.0  0.43086705165428196  0.2629432429970181  0.32425231163902885  1.0000
  Zn  Zn2       1.0  0.5691383574110418  0.7370561961042271  0.675750773292677  1.0000
  H   H1        1.0  0.23883334557576316  0.6184328992862194  0.14232492546781833  1.0000
  H   H2        1.0  0.7611722678981039  0.3815686668683682  0.8576805237195728  1.0000
  H   H3        1.0  0.9354948898162687  0.2405849450060913  0.9927062249135686  1.0000
  H   H4        1.0  0.06451405376743928  0.759417719436783  0.007299213098335121  1.0000
  H   H5        1.0  0.8288048423912072  0.4383979039013326  0.6321322166121135  1.0000
  H   H6        1.0  0.1711941274660163  0.5616015793174044  0.36786549152999026  1.0000
  H   H7        1.0  0.9240926343328297  0.4375685129715808  0.2457671383368591  1.0000
  H   H8        1.0  0.07590450126885169  0.5624342134132406  0.754229736126817  1.0000
  H   H9        1.0  0.22617632212616456  0.9630682643909056  0.18677577304961093  1.0000
  H   H10       1.0  0.773817481290301  0.0369333495005435  0.8132220830140825  1.0000
  H   H11       1.0  0.6612573359116426  0.06596901693755801  0.20059001844307295  1.0000
  H   H12       1.0  0.3387428024332735  0.9340314751046398  0.7994130027069063  1.0000
  H   H13       1.0  0.8631007135665173  0.8542667659382204  0.5759561614900762  1.0000
  H   H14       1.0  0.13689804773140676  0.14573056181698968  0.42404112324540216  1.0000
  H   H15       1.0  0.47033495839302464  0.6097533152423438  0.3566353500199781  1.0000
  H   H16       1.0  0.5296638008295175  0.3902439983077812  0.6433629051400374  1.0000
  H   H17       1.0  0.7122246369165167  0.8168125670692917  0.08645611038823385  1.0000
  H   H18       1.0  0.28777120931478345  0.18318795911959998  0.9135430027605055  1.0000
  H   H19       1.0  0.5554138830705853  0.720595561029711  0.9634531015875327  1.0000
  H   H20       1.0  0.44458206951575346  0.2794060570960185  0.03654525283998569  1.0000
  H   H21       1.0  0.509281138709909  0.573201470686982  0.12540305559902984  1.0000
  H   H22       1.0  0.4907155776977916  0.42679693056570045  0.87459394247594  1.0000
  H   H23       1.0  0.6929728647131697  0.5654049825412883  0.12067054626281498  1.0000
  H   H24       1.0  0.3070240602538306  0.4345955741749208  0.879326875218773  1.0000
  C   C1        1.0  0.19956147824263576  0.3356363550658656  0.15779761251802432  1.0000
  C   C2        1.0  0.8004473652121789  0.6643652600554262  0.8422056729415034  1.0000
  C   C3        1.0  0.09779189590707918  0.42040473739834994  0.07472195434463201  1.0000
  C   C4        1.0  0.9022159730916925  0.5795979249273769  0.9252832344853559  1.0000
  C   C5        1.0  0.1340239328731414  0.566981564759985  0.08028797998468926  1.0000
  C   C6        1.0  0.865985004484429  0.4330210570676274  0.9197203693008121  1.0000
  C   C7        1.0  0.963000242395772  0.3538599061999861  0.9939933592236443  1.0000
  C   C8        1.0  0.037007628678381393  0.6461427703308331  0.006010859181820596  1.0000
  C   C9        1.0  0.713421914298742  0.36123814769976553  0.3575859983877764  1.0000
  C   C10       1.0  0.2865760748762938  0.638762340108144  0.642416524398385  1.0000
  C   C11       1.0  0.8621415077254398  0.43098258636972997  0.43181725607314564  1.0000
  C   C12       1.0  0.13785531503728518  0.5690169068198045  0.5681789832806032  1.0000
  C   C13       1.0  0.9047236478786759  0.46582244910080567  0.5753400942416818  1.0000
  C   C14       1.0  0.09527456023256062  0.5341802651960635  0.4246579998284403  1.0000
  C   C15       1.0  0.958569603841191  0.46549556636222195  0.35708289717256053  1.0000
  C   C16       1.0  0.041428504141151686  0.5345060986130648  0.6429130443451926  1.0000
  C   C17       1.0  0.3349928273614324  0.9517496604216051  0.176560431685111  1.0000
  C   C18       1.0  0.6650082895902827  0.0482498128263273  0.8234387452453475  1.0000
  C   C19       1.0  0.5565219698477932  0.0074912177172379016  0.1855062098810407  1.0000
  C   C20       1.0  0.4434714102239212  0.992506042631895  0.8144937106430064  1.0000
  C   C21       1.0  0.776366402293668  0.7952790529379855  0.4922131142842403  1.0000
  C   C22       1.0  0.2236312844193193  0.20471827270008452  0.507783921269322  1.0000
  C   C23       1.0  0.5758089302234808  0.6706816527279429  0.3845860655862055  1.0000
  C   C24       1.0  0.42419003963373575  0.3293178304907869  0.6154116425558982  1.0000
  C   C25       1.0  0.6048863790746067  0.7619134855529524  0.07287001037549597  1.0000
  C   C26       1.0  0.3951093649524253  0.2380859771092574  0.927127920645404  1.0000
  C   C27       1.0  0.614228605007753  0.6366724610187474  0.1492669088630976  1.0000
  C   C28       1.0  0.3857682177549719  0.36332703217078693  0.8507293304906441  1.0000
  N   N1        1.0  0.517479952198826  0.8689425172787111  0.12382318053050768  1.0000
  N   N2        1.0  0.48251620479605617  0.13106122790037492  0.876177538152696  1.0000
  N   N3        1.0  0.37698303962427804  0.8313117689509326  0.11785934091047778  1.0000
  N   N4        1.0  0.623012910886679  0.1686898349697117  0.8821399839415776  1.0000
  N   N5        1.0  0.4422403602526401  0.06314935996890367  0.22001846179139767  1.0000
  N   N6        1.0  0.5577574203630958  0.9368489723754859  0.7799836375881455  1.0000
  N   N7        1.0  0.6551311179851068  0.6876427082396789  0.29676639268080157  1.0000
  N   N8        1.0  0.3448657006268547  0.3123567565396784  0.7032317875220073  1.0000
  N   N9        1.0  0.7831028455998279  0.7680810197664416  0.362928864819196  1.0000
  N   N10       1.0  0.21689505174783363  0.23191847554023337  0.6370676237164618  1.0000
  N   N11       1.0  0.6500779810525047  0.738281903237791  0.5100983262891391  1.0000
  N   N12       1.0  0.34992088452506914  0.261716502249179  0.4898991701496556  1.0000
  O   O1        1.0  0.3304424359424089  0.39813225143191744  0.2144804710838102  1.0000
  O   O2        1.0  0.6695664075124056  0.6018693636893744  0.7855228143757172  1.0000
  O   O3        1.0  0.15943440569063938  0.21210001546423035  0.1708580116147118  1.0000
  O   O4        1.0  0.8405734674588884  0.7879026752716741  0.829145236366216  1.0000
  O   O5        1.0  0.6267991607838467  0.344450786146524  0.4344731075716552  1.0000
  O   O6        1.0  0.3732073442779438  0.6555378088459564  0.5655332108134203  1.0000
  O   O7        1.0  0.6771268430778292  0.3244255039323392  0.2293810349391593  1.0000
  O   O8        1.0  0.32286103215188433  0.6755814717099612  0.7706173549741494  1.0000
