data_image0
_chemical_formula_structural       Zn2H44C56N20O8
_chemical_formula_sum              "Zn2 H44 C56 N20 O8"
_cell_length_a       7.094457495693276
_cell_length_b       12.875028211808011
_cell_length_c       16.110329756259137
_cell_angle_alpha    77.49765999080623
_cell_angle_beta     77.31943066849401
_cell_angle_gamma    74.0390498868043

_space_group_name_H-M_alt    "P 1"
_space_group_IT_number       1

loop_
  _space_group_symop_operation_xyz
  'x, y, z'

loop_
  _atom_site_type_symbol
  _atom_site_label
  _atom_site_symmetry_multiplicity
  _atom_site_fract_x
  _atom_site_fract_y
  _atom_site_fract_z
  _atom_site_occupancy
  Zn  Zn1       1.0  0.9337998460446503  0.7499336660033933  0.24998181407168832  1.0000
  Zn  Zn2       1.0  0.06618831908387791  0.2500614590432306  0.750019863213744  1.0000
  H   H1        1.0  0.8382086235892674  0.04877179379766259  0.2146528760303923  1.0000
  H   H2        1.0  0.10208679971100337  0.4511651827030077  0.28558858264840137  1.0000
  H   H3        1.0  0.16178295362414746  0.9512323368181936  0.7853401558930599  1.0000
  H   H4        1.0  0.8979143588710983  0.5488307586614168  0.7144082047478335  1.0000
  H   H5        1.0  0.7510584925976572  0.040121090694753996  0.374733106138997  1.0000
  H   H6        1.0  0.16591065140321612  0.45983247675081856  0.12548345836280111  1.0000
  H   H7        1.0  0.2489261503927409  0.9598764841879656  0.625260462478245  1.0000
  H   H8        1.0  0.834089564282053  0.5401610056744204  0.874512760218103  1.0000
  H   H9        1.0  0.6411560474008554  0.20897354962596634  0.4399534320036977  1.0000
  H   H10       1.0  0.28945522015872893  0.29099164204792055  0.06027030775209141  1.0000
  H   H11       1.0  0.35882523686662177  0.7910191144301066  0.5600463779871205  1.0000
  H   H12       1.0  0.7105354727940069  0.7090026575148299  0.9397248553406854  1.0000
  H   H13       1.0  0.6285094463075186  0.39199119236580043  0.35021046189164207  1.0000
  H   H14       1.0  0.3700502212628579  0.10797221679562334  0.1499964290983513  1.0000
  H   H15       1.0  0.3714936587535644  0.6080031194902275  0.6497955695098128  1.0000
  H   H16       1.0  0.6299368982389596  0.8920212625877894  0.849998435704542  1.0000
  H   H17       1.0  0.8069094457520056  0.5542809579462682  0.10579912312958581  1.0000
  H   H18       1.0  0.4671701501334128  0.9457040901883855  0.39448694285424324  1.0000
  H   H19       1.0  0.19309691013219799  0.4457231915620383  0.8942111836818183  1.0000
  H   H20       1.0  0.5328250704844778  0.054291849124666676  0.6055085460627083  1.0000
  H   H21       1.0  0.740145842883102  0.5361300678897719  0.21992337477190196  1.0000
  H   H22       1.0  0.4961551958527508  0.96375744766776  0.28036530829568557  1.0000
  H   H23       1.0  0.2598624553817643  0.4638708026558404  0.7800853632649449  1.0000
  H   H24       1.0  0.5038443203416916  0.0362360339228474  0.7196301533171406  1.0000
  H   H25       1.0  0.5137219910323625  0.5814580802127124  0.01659152052826583  1.0000
  H   H26       1.0  0.11199121881544741  0.9183462684648518  0.48366165876861794  1.0000
  H   H27       1.0  0.48629135566184095  0.4185444281876585  0.9834155431841225  1.0000
  H   H28       1.0  0.8880073512571228  0.08165704577021417  0.5163335364457069  1.0000
  H   H29       1.0  0.12123371787553346  0.6983890365787246  0.05536341842285711  1.0000
  H   H30       1.0  0.8756788402458395  0.8010762006131741  0.44481571268114806  1.0000
  H   H31       1.0  0.8787789406452404  0.3016118316188069  0.9446423470404071  1.0000
  H   H32       1.0  0.12430486998925278  0.1989303922729348  0.5551824546464417  1.0000
  H   H33       1.0  0.37965186480872154  0.612587976959574  0.2808395624909608  1.0000
  H   H34       1.0  0.27312256328049517  0.8872707137294001  0.2194124803109716  1.0000
  H   H35       1.0  0.62035053149328  0.3874087981571818  0.7191716596133588  1.0000
  H   H36       1.0  0.7268670214153303  0.11272030952292056  0.7805842219586266  1.0000
  H   H37       1.0  0.3007800194428398  0.6820058385221798  0.4423662817830873  1.0000
  H   H38       1.0  0.42735131133294874  0.8174064284836999  0.05719106381531702  1.0000
  H   H39       1.0  0.6992067034835827  0.31799666705516927  0.5576414530802651  1.0000
  H   H40       1.0  0.5726731151121814  0.18260672394903565  0.9428059509662391  1.0000
  H   H41       1.0  0.8675666323120838  0.4508476847787719  0.4519835961764045  1.0000
  H   H42       1.0  0.7694961099029953  0.05009640162300139  0.04812968383036059  1.0000
  H   H43       1.0  0.1324228865285093  0.5491539994099809  0.5480217601693553  1.0000
  H   H44       1.0  0.2305199380678646  0.9499167508801845  0.9518685188330237  1.0000
  C   C1        1.0  0.7868121590429594  0.22659846015299925  0.19271533939746624  1.0000
  C   C2        1.0  0.20657961003069414  0.27337410582335747  0.3074912023271921  1.0000
  C   C3        1.0  0.2131801197104369  0.7734064960246415  0.8072838558839521  1.0000
  C   C4        1.0  0.7934241770563378  0.7266193720540668  0.6924999081536996  1.0000
  C   C5        1.0  0.7965281429962091  0.1226032788642968  0.24376012924542323  1.0000
  C   C6        1.0  0.16325202777702685  0.37734768443899463  0.25644737585257366  1.0000
  C   C7        1.0  0.2034609937071467  0.8774008538733679  0.7562353890391336  1.0000
  C   C8        1.0  0.8367583320857009  0.6226433409500698  0.7435487353451292  1.0000
  C   C9        1.0  0.7459297387633442  0.11902509283635959  0.3325175919909782  1.0000
  C   C10       1.0  0.19750509798126373  0.3809368552309848  0.1677018766788549  1.0000
  C   C11       1.0  0.2540618857688273  0.8809733050337838  0.6674786811981833  1.0000
  C   C12       1.0  0.8025008882589901  0.6190549871472297  0.8322923419835746  1.0000
  C   C13       1.0  0.6850733516556886  0.21529320531109153  0.3701357681736114  1.0000
  C   C14       1.0  0.2702720469908826  0.2846653825346834  0.1300822718372174  1.0000
  C   C15       1.0  0.3149198619021828  0.7847035575902975  0.6298642347873624  1.0000
  C   C16       1.0  0.7297256501384198  0.7153264612790694  0.8699145132653925  1.0000
  C   C17       1.0  0.6749948539965303  0.31860550684054795  0.3204993142017685  1.0000
  C   C18       1.0  0.31392676102720435  0.18134354354619833  0.17972023021766145  1.0000
  C   C19       1.0  0.3250004693512308  0.6813896191965298  0.6795024183823842  1.0000
  C   C20       1.0  0.6860714455488905  0.8186499377402252  0.8202750960173618  1.0000
  C   C21       1.0  0.7284473815381959  0.3219836393793045  0.23124428410218914  1.0000
  C   C22       1.0  0.28186896007577644  0.17797886749012545  0.26898134422521736  1.0000
  C   C23       1.0  0.2715485066674859  0.6780180436001826  0.7687589920158758  1.0000
  C   C24       1.0  0.7181330746746398  0.8220162527119754  0.7310135508659029  1.0000
  C   C25       1.0  0.707183013491921  0.5209731987865851  0.1608065642415539  1.0000
  C   C26       1.0  0.3890622427445792  0.9789672671414278  0.3394594893579352  1.0000
  C   C27       1.0  0.29282917762661514  0.4790317660490685  0.8391987973819326  1.0000
  C   C28       1.0  0.610938860426401  0.0210237547532657  0.6605342956368078  1.0000
  C   C29       1.0  0.4257191710069536  0.60492272178719  0.07647475385556395  1.0000
  C   C30       1.0  0.10740968716850582  0.8948719511988158  0.42375243714355554  1.0000
  C   C31       1.0  0.5742836001089275  0.39508224690999305  0.9235357959470036  1.0000
  C   C32       1.0  0.892584111832925  0.10512726518139459  0.5762426203993413  1.0000
  C   C33       1.0  0.23247242770165155  0.6624526077417698  0.09648392171533261  1.0000
  C   C34       1.0  0.9918629951385968  0.83714152711115  0.4037002613700267  1.0000
  C   C35       1.0  0.767543661544771  0.33754498452742604  0.903523167467867  1.0000
  C   C36       1.0  0.008129395612925902  0.16286015169514909  0.5962992299076575  1.0000
  C   C37       1.0  0.35916574580086574  0.6202819914149913  0.21478986072501982  1.0000
  C   C38       1.0  0.19432363158480848  0.8795530398818485  0.2854395973878781  1.0000
  C   C39       1.0  0.6408389430117156  0.37972215232877454  0.7852147964751808  1.0000
  C   C40       1.0  0.8056661851996195  0.12044208084323317  0.7145574580100202  1.0000
  C   C41       1.0  0.6883298748071383  0.6572087476086851  0.3767247675919236  1.0000
  C   C42       1.0  0.7233309684224238  0.8430126193815823  0.1230934532091226  1.0000
  C   C43       1.0  0.31165548104065266  0.3427880134676115  0.6232744231022451  1.0000
  C   C44       1.0  0.27668431537824767  0.15699807691260045  0.8769069377556348  1.0000
  C   C45       1.0  0.5936264055871733  0.5749342340848286  0.4403408741595527  1.0000
  C   C46       1.0  0.6096804242789204  0.9252099123090715  0.059490669360798214  1.0000
  C   C47       1.0  0.40636411273724365  0.42506171220203715  0.5596623445963189  1.0000
  C   C48       1.0  0.390340552030807  0.07479750320477757  0.9405058018460863  1.0000
  C   C49       1.0  0.38684293000966363  0.6016896623792007  0.46763705523293453  1.0000
  C   C50       1.0  0.4574713351911656  0.8979510302315603  0.03210557649427413  1.0000
  C   C51       1.0  0.6131475543625555  0.3983112020123085  0.5323677873660699  1.0000
  C   C52       1.0  0.5425510287828246  0.10205802631977427  0.9678929499298051  1.0000
  C   C53       1.0  0.706929117023634  0.4723875289326713  0.47315157263020774  1.0000
  C   C54       1.0  0.6519707980759935  0.02811371421439899  0.02692864094182571  1.0000
  C   C55       1.0  0.29305648427931896  0.5276125149753099  0.52685283630111  1.0000
  C   C56       1.0  0.348046316107222  0.9718969804884167  0.9730698852520945  1.0000
  N   N1        1.0  0.8290919022199931  0.2577559129786735  0.10430945520822381  1.0000
  N   N2        1.0  0.19185863911764778  0.24220469286630208  0.39590179310513923  1.0000
  N   N3        1.0  0.17091135160956827  0.7422523224733054  0.8956899055090658  1.0000
  N   N4        1.0  0.8081432415900877  0.7577879705963325  0.6040946686970728  1.0000
  N   N5        1.0  0.8026694770222209  0.3637077040569919  0.08704071129456284  1.0000
  N   N6        1.0  0.25402268239319886  0.13625922049950387  0.4131761255816286  1.0000
  N   N7        1.0  0.19734059298902215  0.6363005370111735  0.9129634619867915  1.0000
  N   N8        1.0  0.7459761343104109  0.8637342602564713  0.5868185790631132  1.0000
  N   N9        1.0  0.7418529387650497  0.4049661256776318  0.16259435545822504  1.0000
  N   N10       1.0  0.30972761428359513  0.09500013119929208  0.3376233271534375  1.0000
  N   N11       1.0  0.25815139464341313  0.5950388373329217  0.8374101938984637  1.0000
  N   N12       1.0  0.6902732115291887  0.9049933506954912  0.6623722698371851  1.0000
  N   N13       1.0  0.5032934086424348  0.5788060511885291  0.1519634235231422  1.0000
  N   N14       1.0  0.2341017626283632  0.9211259738087417  0.34827998257695475  1.0000
  N   N15       1.0  0.49671417881419416  0.4211964578906587  0.8480450988266667  1.0000
  N   N16       1.0  0.7658929485427282  0.07886832803164619  0.6517169652075837  1.0000
  N   N17       1.0  0.1934242062366707  0.6715073529177147  0.1828133450972658  1.0000
  N   N18       1.0  0.0480870624937781  0.8281352400419093  0.31737084243665936  1.0000
  N   N19       1.0  0.8065837592588785  0.3284910581582564  0.8171942025339688  1.0000
  N   N20       1.0  0.9518982933540201  0.1718615210343799  0.6826283482575093  1.0000
  O   O1        1.0  0.6097740157564717  0.7575997333503252  0.3736815094981765  1.0000
  O   O2        1.0  0.7424938380350316  0.7425940966043353  0.12603139105680583  1.0000
  O   O3        1.0  0.3902295073389297  0.24239538988612705  0.6263162780874509  1.0000
  O   O4        1.0  0.25751751895975855  0.2574174235044424  0.8739740001644377  1.0000
  O   O5        1.0  0.8503551305530196  0.618953050653509  0.3256278276548983  1.0000
  O   O6        1.0  0.7956664441512377  0.8812942195908703  0.17436297338949913  1.0000
  O   O7        1.0  0.14962625234601745  0.38103715067229155  0.6743674132233296  1.0000
  O   O8        1.0  0.20434786280040387  0.1187189358687633  0.8256384726030603  1.0000
