data_image0
_chemical_formula_structural       Mg4H64C32O28
_chemical_formula_sum              "Mg4 H64 C32 O28"
_cell_length_a       8.039814335
_cell_length_b       9.022945882010012
_cell_length_c       17.0609
_cell_angle_alpha    101.36639197500554
_cell_angle_beta     90.0
_cell_angle_gamma    90.0

_space_group_name_H-M_alt    "P 1"
_space_group_IT_number       1

loop_
  _space_group_symop_operation_xyz
  'x, y, z'

loop_
  _atom_site_type_symbol
  _atom_site_label
  _atom_site_symmetry_multiplicity
  _atom_site_fract_x
  _atom_site_fract_y
  _atom_site_fract_z
  _atom_site_occupancy
  Mg  Mg1       1.0  0.8494039433561156  0.9897311124520058  0.3667597967998333  1.0000
  Mg  Mg2       1.0  0.349403591046979  0.5102691661491718  0.633239909864308  1.0000
  Mg  Mg3       1.0  0.15059551745233074  0.010269073282110203  0.6332403983999625  1.0000
  Mg  Mg4       1.0  0.6505958697614602  0.48973101958495147  0.36675969919993895  1.0000
  H   H1        1.0  0.5961704835811972  0.1516463126928684  0.3572195503723847  1.0000
  H   H2        1.0  0.0961713750818873  0.34835264971697916  0.6427804293996003  1.0000
  H   H3        1.0  0.4038289772272491  0.8483527425840407  0.6427811131350438  1.0000
  H   H4        1.0  0.903828085726559  0.6516464055599303  0.3572190618367301  1.0000
  H   H5        1.0  0.5024867281341299  0.011509184839845  0.38656614583995  1.0000
  H   H6        1.0  0.0024876196348131  0.4884909080272095  0.6134339517599443  1.0000
  H   H7        1.0  0.4975127326743163  0.9884910008942711  0.6134334632242896  1.0000
  H   H8        1.0  0.9975130849834457  0.5115092777069066  0.3865662434398516  1.0000
  H   H9        1.0  0.8403415450264902  0.2659524933314259  0.45869405943701475  1.0000
  H   H10       1.0  0.3403411927173536  0.2340487299928427  0.5413055698552398  1.0000
  H   H11       1.0  0.1596579157819562  0.7340488228598973  0.5413062535906833  1.0000
  H   H12       1.0  0.6596582680910856  0.7659514557412805  0.458694039209  1.0000
  H   H13       1.0  0.0183984348190762  0.2607580424583205  0.4194565573244092  1.0000
  H   H14       1.0  0.5183987871282127  0.2392409199515271  0.580543422447569  1.0000
  H   H15       1.0  0.981601025989363  0.7392421432757958  0.5805436378753797  1.0000
  H   H16       1.0  0.4816006736802335  0.7607581353253821  0.4194560687887545  1.0000
  H   H17       1.0  0.9085993401861288  0.8713824168358217  0.5008878260062346  1.0000
  H   H18       1.0  0.4086002316868188  0.6286178617653633  0.4991124667934557  1.0000
  H   H19       1.0  0.0914013644321301  0.1286188993555086  0.49911248702147043  1.0000
  H   H20       1.0  0.5914004729314399  0.37138119351155313  0.5008876105784239  1.0000
  H   H21       1.0  0.7559204412896463  0.9855857258683969  0.5193817811276062  1.0000
  H   H22       1.0  0.2559213327903294  0.5144145527327808  0.480617925536535  1.0000
  H   H23       1.0  0.2440790195188001  0.014414459865719202  0.4806184140721896  1.0000
  H   H24       1.0  0.7440793718279295  0.48558563300134244  0.5193816835277048  1.0000
  H   H25       1.0  0.35478182469744707  0.6526039028155424  0.2883131238113137  1.0000
  H   H26       1.0  0.8547821770065767  0.8473952453284286  0.7116888095671073  1.0000
  H   H27       1.0  0.6452176361109991  0.34739515246137403  0.7116881258316639  1.0000
  H   H28       1.0  0.1452185276116822  0.1526049404056877  0.28831138563268155  1.0000
  H   H29       1.0  0.039278270223889  0.7753885125179281  0.2216204715129706  1.0000
  H   H30       1.0  0.5392773787231986  0.7246117660832496  0.7783786490156146  1.0000
  H   H31       1.0  0.9607211905845574  0.2246116732161951  0.7783779652801712  1.0000
  H   H32       1.0  0.46072332589506  0.2753884196508665  0.2216209600486252  1.0000
  H   H33       1.0  0.265849422752872  0.495629745298956  0.1614059069430454  1.0000
  H   H34       1.0  0.7658472874423694  0.0043692171108916  0.8385952451000378  1.0000
  H   H35       1.0  0.734153769485026  0.5043693099779532  0.8385953426999322  1.0000
  H   H36       1.0  0.234152173366077  0.9956309686232245  0.161404950099751  1.0000
  H   H37       1.0  0.0473481083192198  0.5026035358182597  0.1439403121414955  1.0000
  H   H38       1.0  0.5473447291988975  0.9973978732401251  0.8560612707572092  1.0000
  H   H39       1.0  0.9526563277284907  0.4973966499158564  0.8560604691938494  1.0000
  H   H40       1.0  0.4526547316095417  0.0026023124939911  0.1439389244425868  1.0000
  H   H41       1.0  0.1825514792811447  0.612525803402214  0.09729568620268479  1.0000
  H   H42       1.0  0.6825481001608225  0.887471083827343  0.9027042531132636  1.0000
  H   H43       1.0  0.8174529567665656  0.3874709909602815  0.9027035693778203  1.0000
  H   H44       1.0  0.3174513606476239  0.1125291019067802  0.0972959420865251  1.0000
  H   H45       1.0  0.7230117211407006  0.8646301959293866  0.1762814321696951  1.0000
  H   H46       1.0  0.2230138564512032  0.6353734740434194  0.8237203863848279  1.0000
  H   H47       1.0  0.2769877396677457  0.1353711202619436  0.823719466993559  1.0000
  H   H48       1.0  0.7769868481670628  0.3646278421479039  0.17627992664287714  1.0000
  H   H49       1.0  0.5667842328351469  0.551342067905992  0.11520559874922752  1.0000
  H   H50       1.0  0.0667826367161979  0.948658210695193  0.8847941079149068  1.0000
  H   H51       1.0  0.4332177155929315  0.4486569873709243  0.884795064758201  1.0000
  H   H52       1.0  0.933218067902061  0.0513419750389303  0.1152060872848821  1.0000
  H   H53       1.0  0.6366017655058229  0.825829513161672  0.033557553679081295  1.0000
  H   H54       1.0  0.1366014131966864  0.6741730263539267  0.9664429747764274  1.0000
  H   H55       1.0  0.3633976953026233  0.1741706725724441  0.9664426415207076  1.0000
  H   H56       1.0  0.8633980476117529  0.3258282898374034  0.0335567521157216  1.0000
  H   H57       1.0  0.4610516916868548  0.7039142250526282  0.011898822546569906  1.0000
  H   H58       1.0  0.9610508001861717  0.7960871840057566  0.9881015880810295  1.0000
  H   H59       1.0  0.5389490129314041  0.296084830224281  0.9881018409608586  1.0000
  H   H60       1.0  0.0389499044320871  0.2039130017283597  0.0118980209832102  1.0000
  H   H61       1.0  0.6612279560806511  0.6330876895678088  0.9846705867869758  1.0000
  H   H62       1.0  0.1612263599617094  0.866913719490576  0.015329823840623608  1.0000
  H   H63       1.0  0.3387715047277879  0.36691136570910043  0.015330076720452697  1.0000
  H   H64       1.0  0.8387718570369174  0.1330864662435474  0.984669785223616  1.0000
  C   C1        1.0  0.2225785230151089  0.8542593814985082  0.3527520734850853  1.0000
  C   C2        1.0  0.7225788753242384  0.6457420275598835  0.6472477510069651  1.0000
  C   C3        1.0  0.7774221816031499  0.1457396737784009  0.6472474177512453  1.0000
  C   C4        1.0  0.277420585484208  0.35425928863144673  0.35275197588519097  1.0000
  C   C5        1.0  0.24714127928925925  0.7249836865048493  0.2854545578085066  1.0000
  C   C6        1.0  0.7471453630278404  0.7750165920963286  0.7145457349911766  1.0000
  C   C7        1.0  0.7528544500897354  0.2750164992292667  0.7145450512557332  1.0000
  C   C8        1.0  0.252856585400238  0.2249835936377949  0.2854538740730632  1.0000
  C   C9        1.0  0.144199847371226  0.6984303771341445  0.2222604257532552  1.0000
  C   C10       1.0  0.6442014434901748  0.8015676405526193  0.7777402175261584  1.0000
  C   C11       1.0  0.8557983696274005  0.3015686781427647  0.7777408238897223  1.0000
  C   C12       1.0  0.355801748747723  0.1984302842670829  0.2222603281533608  1.0000
  C   C13       1.0  0.1623619583250004  0.5702082682588243  0.1529321586633046  1.0000
  C   C14       1.0  0.6623610668243103  0.9297897494279397  0.8470678984805601  1.0000
  C   C15       1.0  0.8376399901030778  0.4297896565608781  0.8470672147451168  1.0000
  C   C16       1.0  0.3376396377939486  0.07021043630618352  0.1529317105836796  1.0000
  C   C17       1.0  0.6982325419583191  0.6969359127044967  0.2523521822959864  1.0000
  C   C18       1.0  0.1982346772688217  0.803065496353895  0.747648814467162  1.0000
  C   C19       1.0  0.3017669188501202  0.3030654034868334  0.7476487168672605  1.0000
  C   C20       1.0  0.8017660273494371  0.1969358198374351  0.2523514985605431  1.0000
  C   C21       1.0  0.6757792871344961  0.7509152444108766  0.1761433919237447  1.0000
  C   C22       1.0  0.1757814224449987  0.7490872951047152  0.823857722667313  1.0000
  C   C23       1.0  0.3242201736739503  0.2490849413232397  0.823857389411593  1.0000
  C   C24       1.0  0.8242180383634476  0.2509140210866079  0.176142590360385  1.0000
  C   C25       1.0  0.6099518963580619  0.6644002237863518  0.110515760314577  1.0000
  C   C26       1.0  0.1099527878587523  0.8356023157292469  0.8894847681409316  1.0000
  C   C27       1.0  0.39004756445037697  0.3355999619477714  0.8894838487496628  1.0000
  C   C28       1.0  0.890046672949694  0.1643978700048692  0.1105148409233081  1.0000
  C   C29       1.0  0.5918482444657087  0.7101068696408532  0.03156262403086169  1.0000
  C   C30       1.0  0.0918478921565793  0.7898934089603245  0.9684364964977236  1.0000
  C   C31       1.0  0.4081512163427305  0.2898921856360559  0.9684374533410178  1.0000
  C   C32       1.0  0.9081528124616796  0.2101056463165847  0.0315624086030581  1.0000
  O   O1        1.0  0.6073523338396851  0.0687419723923242  0.3868729847811281  1.0000
  O   O2        1.0  0.1073519815305559  0.43125812047473744  0.6131265266832173  1.0000
  O   O3        1.0  0.3926483707785805  0.931258213341792  0.6131266242831188  1.0000
  O   O4        1.0  0.8926474792778902  0.5687420652593859  0.3868730823810225  1.0000
  O   O5        1.0  0.9341646071731091  0.1950377821843432  0.43992805020019426  1.0000
  O   O6        1.0  0.4341654986737921  0.3049611802255043  0.5600719295717909  1.0000
  O   O7        1.0  0.0658348536353373  0.8049624035497731  0.5600721449995945  1.0000
  O   O8        1.0  0.5658352059444667  0.6950378750514048  0.43992756166453967  1.0000
  O   O9        1.0  0.8088408175908481  0.9084444564168379  0.47599207336079263  1.0000
  O   O10       1.0  0.30884046528171166  0.5915546917271328  0.5240075154754322  1.0000
  O   O11       1.0  0.1911598870274176  0.0915557293172782  0.524008121838996  1.0000
  O   O12       1.0  0.691160239336547  0.4084454940069904  0.4759920935888147  1.0000
  O   O13       1.0  0.0892470858283829  0.929164606591634  0.3597963202885808  1.0000
  O   O14       1.0  0.5892499257571444  0.5708390633811717  0.6402054982659422  1.0000
  O   O15       1.0  0.9107473997407922  0.0708378400569032  0.6402052828381315  1.0000
  O   O16       1.0  0.410752022670934  0.4291622528101584  0.3597948147617629  1.0000
  O   O17       1.0  0.3420812826519111  0.8880758784338951  0.4041030939640606  1.0000
  O   O18       1.0  0.8420816349610405  0.6119244001672826  0.5958977849711715  1.0000
  O   O19       1.0  0.6579169343467157  0.11192430730022103  0.5958971012357281  1.0000
  O   O20       1.0  0.15791782584740585  0.3880757855668335  0.4041024102286173  1.0000
  O   O21       1.0  0.6361054853886756  0.5712539411766926  0.2604850709633553  1.0000
  O   O22       1.0  0.1361051330795462  0.9287463374244851  0.739515221836335  1.0000
  O   O23       1.0  0.3638964630394027  0.4287462445574235  0.7395151242364336  1.0000
  O   O24       1.0  0.8638943277289002  0.071252717852424  0.2604848555355446  1.0000
  O   O25       1.0  0.7859833245763639  0.7794027660653458  0.306641683673881  1.0000
  O   O26       1.0  0.2859817284574149  0.7205975125358322  0.6933586091258093  1.0000
  O   O27       1.0  0.2140173800419021  0.2205985501259775  0.6933592154893731  1.0000
  O   O28       1.0  0.7140177323510315  0.2794026731982911  0.30664158607397957  1.0000
