data_image0
_chemical_formula_structural       Zn4P8H40C32O16
_chemical_formula_sum              "Zn4 P8 H40 C32 O16"
_cell_length_a       5.410424309035639
_cell_length_b       8.813950491057614
_cell_length_c       21.182521503015003
_cell_angle_alpha    89.99991889518157
_cell_angle_beta     90.00011153514319
_cell_angle_gamma    90.00040321985692

_space_group_name_H-M_alt    "P 1"
_space_group_IT_number       1

loop_
  _space_group_symop_operation_xyz
  'x, y, z'

loop_
  _atom_site_type_symbol
  _atom_site_label
  _atom_site_symmetry_multiplicity
  _atom_site_fract_x
  _atom_site_fract_y
  _atom_site_fract_z
  _atom_site_occupancy
  Zn  Zn1       1.0  0.8554320100308389  0.8018386283786045  0.7248154638486356  1.0000
  Zn  Zn2       1.0  0.6445669832511952  0.19816188395954984  0.2248165800108524  1.0000
  Zn  Zn3       1.0  0.355435619458909  0.6981651252096697  0.2751824061473158  1.0000
  Zn  Zn4       1.0  0.1445664075174378  0.3018364809168971  0.7751838587871376  1.0000
  P   P1        1.0  0.3581836770236039  0.9629298712520863  0.7491858558351083  1.0000
  P   P2        1.0  0.14181445260459213  0.0370706835438881  0.24918565484607316  1.0000
  P   P3        1.0  0.8581844452637386  0.5370704904558963  0.2508143759477974  1.0000
  P   P4        1.0  0.6418147487983817  0.4629288040695626  0.750815726776068  1.0000
  P   P5        1.0  0.5350728159064032  0.9029346696162506  0.6136066858005549  1.0000
  P   P6        1.0  0.9649216219609901  0.0970673333661765  0.1136066059114924  1.0000
  P   P7        1.0  0.0350798156477978  0.5970688418688894  0.38639291537958803  1.0000
  P   P8        1.0  0.46491752532746494  0.40293127359203856  0.8863930458746978  1.0000
  H   H1        1.0  0.19200808352933765  0.052298282108353106  0.6496337393211178  1.0000
  H   H2        1.0  0.3079874289934921  0.94770372601063  0.1496330519608193  1.0000
  H   H3        1.0  0.6920125047615784  0.4477025557757132  0.3503671948389383  1.0000
  H   H4        1.0  0.8079893064059079  0.5522952854267302  0.8503676272841717  1.0000
  H   H5        1.0  0.48411328621310906  0.13926215571800074  0.6677321957927873  1.0000
  H   H6        1.0  0.015886062646977502  0.8607397944594196  0.16773094727435736  1.0000
  H   H7        1.0  0.9841147171616456  0.36074107198260924  0.33226840958327136  1.0000
  H   H8        1.0  0.5158869542671952  0.6392624999952474  0.832269588666442  1.0000
  H   H9        1.0  0.364288359204501  0.6717824981430527  0.6533583574438425  1.0000
  H   H10       1.0  0.1357090303698598  0.3282194980526114  0.15335844397912277  1.0000
  H   H11       1.0  0.8642895263709677  0.8282201589270884  0.3466432935953492  1.0000
  H   H12       1.0  0.6357011663459815  0.1717799633058519  0.8466434067330795  1.0000
  H   H13       1.0  0.4118979332878681  0.6636104625020424  0.5696775879757965  1.0000
  H   H14       1.0  0.088104354885715  0.33639180164670535  0.0696781181462924  1.0000
  H   H15       1.0  0.9118998408922466  0.8363923991612553  0.43032408642044123  1.0000
  H   H16       1.0  0.5880914980854614  0.16360858969479614  0.9303241812971949  1.0000
  H   H17       1.0  0.15534945559814872  0.7665807129213816  0.6017265575358907  1.0000
  H   H18       1.0  0.34464753522453867  0.23341917946429186  0.10172822195647062  1.0000
  H   H19       1.0  0.6553554738007107  0.7334165080305725  0.39827499100218944  1.0000
  H   H20       1.0  0.8446393142066172  0.2665800451936491  0.8982746754341734  1.0000
  H   H21       1.0  0.19921877147733374  0.8836658052307839  0.5042102847394929  1.0000
  H   H22       1.0  0.3007719214175141  0.11634007221281446  0.004210584390158101  1.0000
  H   H23       1.0  0.6992389796767925  0.6163338734056437  0.495787980711981  1.0000
  H   H24       1.0  0.8007639545261611  0.3836589639067753  0.9957880426895684  1.0000
  H   H25       1.0  0.23152142568311976  0.9907145284122835  0.39546541511261785  1.0000
  H   H26       1.0  0.268475985388072  0.009290096257302602  0.8954666388963093  1.0000
  H   H27       1.0  0.7315375434568239  0.5092909618539778  0.6045328661835043  1.0000
  H   H28       1.0  0.7684679139862568  0.4907019936857678  0.10453291651605671  1.0000
  H   H29       1.0  0.5865292899352497  0.15009228187272328  0.3661104300141177  1.0000
  H   H30       1.0  0.9134707945425119  0.8499066434796276  0.8661121448720125  1.0000
  H   H31       1.0  0.08653926671178173  0.349909237321178  0.6338876198759352  1.0000
  H   H32       1.0  0.41348015189814197  0.6500916866993337  0.13388905821177133  1.0000
  H   H33       1.0  0.9152047108653036  0.2086557039013215  0.445630770439479  1.0000
  H   H34       1.0  0.5847959877320646  0.7913429668323602  0.9456314163987899  1.0000
  H   H35       1.0  0.4152133985616048  0.29134155487422925  0.5543674406974973  1.0000
  H   H36       1.0  0.08480170937586001  0.7086618928863119  0.054370097523786916  1.0000
  H   H37       1.0  0.8896501230808057  0.09938778818261798  0.5530254726523796  1.0000
  H   H38       1.0  0.6103419986524372  0.9006155433378638  0.05302613395729591  1.0000
  H   H39       1.0  0.3896610889678342  0.40061162991272425  0.44697272594758186  1.0000
  H   H40       1.0  0.11034596130976132  0.5993928298511833  0.9469749204091259  1.0000
  C   C1        1.0  0.3806753046918986  0.03160646252068489  0.6670948860940342  1.0000
  C   C2        1.0  0.1193221909660451  0.9683954896919147  0.16709456535873815  1.0000
  C   C3        1.0  0.8806779812687182  0.4683963206808672  0.3329056685365047  1.0000
  C   C4        1.0  0.619321846789795  0.5316061146880814  0.8329064934143562  1.0000
  C   C5        1.0  0.3496945020510368  0.7349596571005604  0.6088829868898031  1.0000
  C   C6        1.0  0.15030254404395293  0.26504134693653475  0.10888406415861603  1.0000
  C   C7        1.0  0.8496989811523578  0.765041802697816  0.3911186569909263  1.0000
  C   C8        1.0  0.6502939033231172  0.23495817713189368  0.8911182658001808  1.0000
  C   C9        1.0  0.5421611571866906  0.9850285312575763  0.535803365493976  1.0000
  C   C10       1.0  0.9578252867033896  0.014977124525778202  0.03580380540762461  1.0000
  C   C11       1.0  0.0421844462233736  0.5149738761596154  0.4641952949933454  1.0000
  C   C12       1.0  0.4578245852838733  0.4850203173782645  0.9641967870729999  1.0000
  C   C13       1.0  0.3552179936261979  0.9558029398977652  0.49151067927204667  1.0000
  C   C14       1.0  0.1447746143290232  0.044201377230656605  0.9915099322488247  1.0000
  C   C15       1.0  0.8552393168425213  0.5441996782415828  0.5084886068855924  1.0000
  C   C16       1.0  0.6447617023102411  0.45579585394953176  0.0084886182990402  1.0000
  C   C17       1.0  0.37073978205775404  0.0168892417344537  0.430911485845428  1.0000
  C   C18       1.0  0.12925420619037453  0.9831141348628167  0.9309143944616454  1.0000
  C   C19       1.0  0.8707573902314253  0.48311349881028337  0.5690848151285266  1.0000
  C   C20       1.0  0.6292570348826914  0.5168807048152075  0.0690861970995869  1.0000
  C   C21       1.0  0.5717632925845564  0.10783302935733022  0.4142869515039607  1.0000
  C   C22       1.0  0.9282334673912587  0.8921680108612406  0.9142867589011275  1.0000
  C   C23       1.0  0.0717752326096743  0.39216729182065546  0.5857120353175135  1.0000
  C   C24       1.0  0.4282290276550995  0.6078303827296452  0.0857130351597277  1.0000
  C   C25       1.0  0.7568008852501863  0.13888186292694374  0.45839127384563494  1.0000
  C   C26       1.0  0.7431906705004891  0.8611201706211274  0.9583933702625916  1.0000
  C   C27       1.0  0.25681397512200027  0.36112038797873686  0.5416063874917114  1.0000
  C   C28       1.0  0.2432065790842303  0.638878562395959  0.041607749284409606  1.0000
  C   C29       1.0  0.7430273538117691  0.07744050168388128  0.5190002213720675  1.0000
  C   C30       1.0  0.7569663534252699  0.9225618042234555  0.019000468835564305  1.0000
  C   C31       1.0  0.24304068370118867  0.422559420900548  0.4809993215581727  1.0000
  C   C32       1.0  0.25696293276333654  0.577440391644366  0.9810011295512028  1.0000
  O   O1        1.0  0.19591091699940222  0.8191914793035409  0.7489852237348844  1.0000
  O   O2        1.0  0.3040872110811251  0.18080907613410346  0.24898548480388885  1.0000
  O   O3        1.0  0.6959151916279397  0.6808093196466416  0.25101445635151265  1.0000
  O   O4        1.0  0.8040858522751579  0.31919224337269014  0.7510155043398543  1.0000
  O   O5        1.0  0.619455107100329  0.9245287722341972  0.7728200398549205  1.0000
  O   O6        1.0  0.8805442569015584  0.0754693172652026  0.2728213482995727  1.0000
  O   O7        1.0  0.11945508349988641  0.5754682944605705  0.22717913063555537  1.0000
  O   O8        1.0  0.38054657273121256  0.4245300616765774  0.727179678354979  1.0000
  O   O9        1.0  0.24253353119557633  0.0920794243694658  0.7870078474679545  1.0000
  O   O10       1.0  0.2574704353741382  0.9079210093357163  0.2870066880440589  1.0000
  O   O11       1.0  0.7425253433212761  0.4079193614793297  0.2129931114770898  1.0000
  O   O12       1.0  0.7574735586472982  0.5920800541503439  0.7129930222426495  1.0000
  O   O13       1.0  0.8024954016142801  0.8775345678135694  0.6351646272019522  1.0000
  O   O14       1.0  0.6975028993163549  0.12246736614650187  0.135166288627282  1.0000
  O   O15       1.0  0.3024988310359547  0.6224712274210732  0.36483321682298003  1.0000
  O   O16       1.0  0.19749649517119391  0.37753122619700014  0.864834648226534  1.0000
