data_image0
_chemical_formula_structural       Cs2H30C32S2O18
_chemical_formula_sum              "Cs2 H30 C32 S2 O18"
_cell_length_a       6.856266143348385
_cell_length_b       9.449767176105624
_cell_length_c       14.705299148196321
_cell_angle_alpha    102.47168996793482
_cell_angle_beta     96.45919256698225
_cell_angle_gamma    108.2522743449031

_space_group_name_H-M_alt    "P 1"
_space_group_IT_number       1

loop_
  _space_group_symop_operation_xyz
  'x, y, z'

loop_
  _atom_site_type_symbol
  _atom_site_label
  _atom_site_symmetry_multiplicity
  _atom_site_fract_x
  _atom_site_fract_y
  _atom_site_fract_z
  _atom_site_occupancy
  Cs  Cs1       1.0  0.2167981770358907  0.2491627633455877  0.4926953088167281  1.0000
  Cs  Cs2       1.0  0.783198135573663  0.7508352144510014  0.5073037252004013  1.0000
  H   H1        1.0  0.1469292606026684  0.9434877710003204  0.19455841827992507  1.0000
  H   H2        1.0  0.8530600698106455  0.0565114120469161  0.8054430023132753  1.0000
  H   H3        1.0  0.052519970149902014  0.0802119598754487  0.0792770707657056  1.0000
  H   H4        1.0  0.9474731167713557  0.919782566581901  0.9207226577888223  1.0000
  H   H5        1.0  0.5460699800187214  0.12739930222271306  0.21635521477327302  1.0000
  H   H6        1.0  0.45392102629764974  0.8725918011249619  0.7836493753379943  1.0000
  H   H7        1.0  0.6814063135580355  0.019590983466308408  0.9484589922694371  1.0000
  H   H8        1.0  0.31859900654686174  0.9804139254640134  0.051543599139954176  1.0000
  H   H9        1.0  0.6263982235769987  0.3622326085740823  0.7922772859109986  1.0000
  H   H10       1.0  0.37361464191291566  0.6377745291911552  0.20771863294648094  1.0000
  H   H11       1.0  0.7403175048188971  0.7916005047754169  0.005276260044148296  1.0000
  H   H12       1.0  0.25967248366911383  0.20839982304223534  0.9947239917063513  1.0000
  H   H13       1.0  0.8233757108832336  0.6703940669664303  0.13197990086329273  1.0000
  H   H14       1.0  0.17660471841551137  0.32959817374550954  0.8680166073090023  1.0000
  H   H15       1.0  0.679363659089809  0.5396881113095732  0.7008940956059888  1.0000
  H   H16       1.0  0.3206520586714845  0.46031446507904417  0.2991116489562202  1.0000
  H   H17       1.0  0.5209295933500118  0.658537526127603  0.6937818344720058  1.0000
  H   H18       1.0  0.4790725563723799  0.341459218188767  0.3062106459497188  1.0000
  H   H19       1.0  0.4158146139468429  0.4782419603766359  0.7228503389585228  1.0000
  H   H20       1.0  0.5841932216124449  0.5217525011280486  0.2771490539016384  1.0000
  H   H21       1.0  0.6971962626141138  0.2551571166497695  0.48024240095229237  1.0000
  H   H22       1.0  0.3028088781295538  0.7448465971031197  0.5197552616709444  1.0000
  H   H23       1.0  0.8081526928898909  0.4264050444978976  0.5458222719604893  1.0000
  H   H24       1.0  0.19185819837591117  0.573598658956108  0.4541771534250928  1.0000
  H   H25       1.0  0.9449491272636339  0.42700255504817625  0.3048278491659175  1.0000
  H   H26       1.0  0.05505812428562247  0.5730000199864236  0.6951732187098258  1.0000
  H   H27       1.0  0.876938808217574  0.40130949972816415  0.4029012538099721  1.0000
  H   H28       1.0  0.123067339943816  0.598690763362491  0.5970994416938994  1.0000
  H   H29       1.0  0.11657900058209246  0.9082853734532321  0.3369914510410155  1.0000
  H   H30       1.0  0.8834192319769797  0.09170799233404381  0.6630105316042363  1.0000
  C   C1        1.0  0.90275256706704  0.960511127722185  0.270654373255141  1.0000
  C   C2        1.0  0.09725703933425932  0.03949377628436681  0.7293498789831717  1.0000
  C   C3        1.0  0.013891671950460835  0.9826078511118371  0.19763173506727588  1.0000
  C   C4        1.0  0.9861052559540443  0.017385503248206605  0.8023681131016006  1.0000
  C   C5        1.0  0.9604972365110812  0.05893465181573281  0.13365691224963433  1.0000
  C   C6        1.0  0.03950199305508314  0.9410610371170449  0.8663467977961261  1.0000
  C   C7        1.0  0.7964181702890516  0.11671680004951672  0.14034913359825651  1.0000
  C   C8        1.0  0.20359060908695176  0.8832799902014444  0.8596526641767284  1.0000
  C   C9        1.0  0.6784091614721889  0.08778823072719183  0.2105148742138283  1.0000
  C   C10       1.0  0.32159079914912797  0.9122098093549982  0.7894939508040295  1.0000
  C   C11       1.0  0.7262254655459232  0.007267174789667802  0.2739792454005966  1.0000
  C   C12       1.0  0.2737847561503202  0.9927331057803386  0.7260258209894632  1.0000
  C   C13       1.0  0.7601362126476303  0.20864471749694496  0.0747859798700503  1.0000
  C   C14       1.0  0.23985341500252144  0.7913579276397585  0.9252145423188978  1.0000
  C   C15       1.0  0.7099027626860491  0.14151622949844267  0.9795875479664958  1.0000
  C   C16       1.0  0.2900843505409016  0.8584841034686479  0.020411822402834946  1.0000
  C   C17       1.0  0.7115394960956396  0.3680006279850332  0.9387798329428138  1.0000
  C   C18       1.0  0.28847249855802204  0.6320053874129173  0.06121996481464011  1.0000
  C   C19       1.0  0.6701808733857818  0.4331246438640833  0.8655231554122907  1.0000
  C   C20       1.0  0.3298251798896814  0.5668779085417198  0.13447442295843362  1.0000
  C   C21       1.0  0.6800684505847914  0.5865616210901834  0.8908078937429524  1.0000
  C   C22       1.0  0.3199320534352453  0.41343864109779105  0.10918968396994441  1.0000
  C   C23       1.0  0.7380085718152856  0.6729568114486782  0.987257195109493  1.0000
  C   C24       1.0  0.2619958691581346  0.32704804124816894  0.012737841708983  1.0000
  C   C25       1.0  0.7817899506036172  0.6058882188245462  0.05748990519126813  1.0000
  C   C26       1.0  0.21820500416098557  0.3941097531455995  0.9425076718638011  1.0000
  C   C27       1.0  0.7669611568782458  0.44960060608694624  0.035233214203770985  1.0000
  C   C28       1.0  0.23302888480016293  0.5503997161299239  0.9647663600324066  1.0000
  C   C29       1.0  0.8003242212325432  0.37424736828383937  0.10926387870947002  1.0000
  C   C30       1.0  0.1996678050806082  0.6257506144365195  0.890733494478738  1.0000
  C   C31       1.0  0.558202003204933  0.577901258470014  0.7301173405059418  1.0000
  C   C32       1.0  0.4418002726883047  0.42209668662457034  0.2698807462162521  1.0000
  S   S1        1.0  0.5710479188135127  0.9701861753491061  0.3619829011746348  1.0000
  S   S2        1.0  0.428943374329073  0.029814163895771607  0.63801948505224  1.0000
  O   O1        1.0  0.39296244294125415  0.022107646623261704  0.3414696877819097  1.0000
  O   O2        1.0  0.6070244158286046  0.9778949924613161  0.6585285979972256  1.0000
  O   O3        1.0  0.5075422792823121  0.8038371283769551  0.3523848491536016  1.0000
  O   O4        1.0  0.492451762950495  0.19616200494026262  0.6476128121539731  1.0000
  O   O5        1.0  0.7121419278444705  0.0647054055590957  0.45361923893209893  1.0000
  O   O6        1.0  0.2878594553070357  0.9352949128623536  0.5463858933717205  1.0000
  O   O7        1.0  0.9991190603020997  0.43071380187098635  0.37129132921270985  1.0000
  O   O8        1.0  0.0008890724940400037  0.5692841217231646  0.628707165243192  1.0000
  O   O9        1.0  0.7092489348751059  0.3638891954736253  0.48444825584135753  1.0000
  O   O10       1.0  0.2907524597712411  0.6361134010614152  0.5155524043006778  1.0000
  O   O11       1.0  0.9677152033248932  0.8975979531537988  0.3384154235613508  1.0000
  O   O12       1.0  0.032285141123985284  0.10240232583651482  0.6615841866944978  1.0000
  O   O13       1.0  0.6886881157881461  0.21411478155417293  0.9115492918485018  1.0000
  O   O14       1.0  0.31131682368882  0.7858912327154286  0.0884466086702247  1.0000
  O   O15       1.0  0.8601346697052108  0.44800919890972324  0.19523206430621803  1.0000
  O   O16       1.0  0.1398693040495759  0.5519979823077394  0.8047645979793359  1.0000
  O   O17       1.0  0.6324931681949479  0.662884494242185  0.8283381510084453  1.0000
  O   O18       1.0  0.367503685697912  0.3371204133341195  0.1716597637144872  1.0000
