data_image0
_chemical_formula_structural       Zn2H40C36S8N4O4
_chemical_formula_sum              "Zn2 H40 C36 S8 N4 O4"
_cell_length_a       6.503597246336358
_cell_length_b       10.97551574921358
_cell_length_c       15.337617672066806
_cell_angle_alpha    79.71133296840188
_cell_angle_beta     77.74751181226239
_cell_angle_gamma    72.75864247488101

_space_group_name_H-M_alt    "P 1"
_space_group_IT_number       1

loop_
  _space_group_symop_operation_xyz
  'x, y, z'

loop_
  _atom_site_type_symbol
  _atom_site_label
  _atom_site_symmetry_multiplicity
  _atom_site_fract_x
  _atom_site_fract_y
  _atom_site_fract_z
  _atom_site_occupancy
  Zn  Zn1       1.0  0.9757805639533362  0.24994537811300435  0.7499127339489604  1.0000
  Zn  Zn2       1.0  0.02421452992903985  0.7500529165825897  0.25008468104804393  1.0000
  H   H1        1.0  0.462135275489139  0.5333107664020391  0.5985482488257361  1.0000
  H   H2        1.0  0.5943248217380773  0.9665738633769011  0.9011931095818824  1.0000
  H   H3        1.0  0.5378529136877005  0.4666999234706709  0.40145877986293504  1.0000
  H   H4        1.0  0.40567204723250694  0.0334253073545199  0.09881305051195713  1.0000
  H   H5        1.0  0.6379889838682689  0.6271152165729035  0.5338542308820209  1.0000
  H   H6        1.0  0.7988523468546164  0.8729974216561586  0.9661491261727589  1.0000
  H   H7        1.0  0.36200383457988056  0.37289162493901534  0.4661533975562762  1.0000
  H   H8        1.0  0.2011529310230601  0.1270027502065432  0.03385281430831811  1.0000
  H   H9        1.0  0.3169735792810897  0.7659220860256895  0.6249869827689595  1.0000
  H   H10       1.0  0.708960531663365  0.7337628214705844  0.8749408637117  1.0000
  H   H11       1.0  0.683022498927123  0.23408958470440674  0.3750179257216645  1.0000
  H   H12       1.0  0.29103735429929156  0.26623928652541207  0.1250595560297327  1.0000
  H   H13       1.0  0.5581717467662771  0.7548315597161095  0.6671041066061819  1.0000
  H   H14       1.0  0.9811545252955161  0.745101642288475  0.8329549423198798  1.0000
  H   H15       1.0  0.4418199047791379  0.2451801292525744  0.3328989285837877  1.0000
  H   H16       1.0  0.01884226871973029  0.2549014208036199  0.1670460509735889  1.0000
  H   H17       1.0  0.3736349766697343  0.6628557569202869  0.7251022930764393  1.0000
  H   H18       1.0  0.7627112247204054  0.8368677805596436  0.7748554842370867  1.0000
  H   H19       1.0  0.6263605589033788  0.3371587902527011  0.27490317330591557  1.0000
  H   H20       1.0  0.23728361744513657  0.16313526367535763  0.22514746636383623  1.0000
  H   H21       1.0  0.7862393852718769  0.4993607328701018  0.8235885120968048  1.0000
  H   H22       1.0  0.10907249879299032  0.0005742255363400994  0.6763682760651051  1.0000
  H   H23       1.0  0.21377038445906751  0.5006308068303014  0.1764120389235941  1.0000
  H   H24       1.0  0.8909178248104512  0.9994182597021747  0.32363389507081314  1.0000
  H   H25       1.0  0.43182220567415924  0.6175297920364003  0.9094741705453872  1.0000
  H   H26       1.0  0.9587691557147621  0.8823116173667745  0.5906098427288597  1.0000
  H   H27       1.0  0.5681929813627208  0.3824626893904082  0.0905283169991478  1.0000
  H   H28       1.0  0.04123056743893027  0.11768282896802158  0.4093881720177706  1.0000
  H   H29       1.0  0.2061212562251171  0.27869429338570484  0.9277717350088536  1.0000
  H   H30       1.0  0.41224282587770505  0.22115419179738893  0.572360003931351  1.0000
  H   H31       1.0  0.7938782643200499  0.7213039830712873  0.07222755328880483  1.0000
  H   H32       1.0  0.5877608076526073  0.7788450900412869  0.4276346384317833  1.0000
  H   H33       1.0  0.5656405074439306  0.17600035859655352  0.845075484274119  1.0000
  H   H34       1.0  0.5864859054339606  0.32384605189101734  0.6548886542695982  1.0000
  H   H35       1.0  0.4343587743789216  0.8239950491200433  0.1549224515887317  1.0000
  H   H36       1.0  0.41351717878405486  0.6761513086008648  0.3451060037538483  1.0000
  H   H37       1.0  0.07187337196940298  0.625721288732727  0.9857044059273292  1.0000
  H   H38       1.0  0.683460872976902  0.8742422996385315  0.5141668759931832  1.0000
  H   H39       1.0  0.9281322098210651  0.37427313794668043  0.014295624227223388  1.0000
  H   H40       1.0  0.3165401286505516  0.12575505598444892  0.485828292358832  1.0000
  C   C1        1.0  0.9460286845315266  0.5265732029529177  0.6254443423211384  1.0000
  C   C2        1.0  0.0984364063431898  0.9733772725036474  0.8743797729780101  1.0000
  C   C3        1.0  0.05396441507004127  0.4734307900924932  0.3745598342676431  1.0000
  C   C4        1.0  0.9015656939088859  0.026623925812927496  0.12561536405338106  1.0000
  C   C5        1.0  0.5687151680421678  0.5925169513282  0.6020705277145098  1.0000
  C   C6        1.0  0.763657636836179  0.90740063323549  0.8978682044276951  1.0000
  C   C7        1.0  0.43127445310865653  0.4074937371277088  0.39793664308141535  1.0000
  C   C8        1.0  0.23633959850991465  0.092601468474804  0.10213286774955321  1.0000
  C   C9        1.0  0.4484299951712529  0.7003266025765315  0.6586196934743356  1.0000
  C   C10       1.0  0.8082939015375249  0.7994726889079472  0.8413718931124521  1.0000
  C   C11       1.0  0.5515640004464046  0.2996850632846702  0.3413857253448569  1.0000
  C   C12       1.0  0.19170203257542073  0.20052940023095542  0.1586304839364345  1.0000
  C   C13       1.0  0.6531052095876361  0.45429319279919866  0.8497234991444813  1.0000
  C   C14       1.0  0.9570722181903264  0.04563560647644491  0.6502183781326566  1.0000
  C   C15       1.0  0.3469055507864526  0.5456993068662115  0.1502771150993922  1.0000
  C   C16       1.0  0.042927194373369386  0.95435978725196  0.3497810047090866  1.0000
  C   C17       1.0  0.45645964935162947  0.5188507049693953  0.897257104004062  1.0000
  C   C18       1.0  0.87251254314851  0.9810163737610439  0.6027496524726105  1.0000
  C   C19       1.0  0.5435510324775664  0.4811408130403195  0.10274568853831312  1.0000
  C   C20       1.0  0.12748725855006876  0.0189790542294475  0.3972461839755326  1.0000
  C   C21       1.0  0.2876236655500221  0.4578198567878429  0.928767601620656  1.0000
  C   C22       1.0  0.6740745650341181  0.042019181627488016  0.5712645697919143  1.0000
  C   C23       1.0  0.7123831161693206  0.5421764975240535  0.07123176043776881  1.0000
  C   C24       1.0  0.3259302617478708  0.9579772300539846  0.4287288622436733  1.0000
  C   C25       1.0  0.32923343650181636  0.3319376308015975  0.9084189158888166  1.0000
  C   C26       1.0  0.5693520856028375  0.1678810342297297  0.5916332115916489  1.0000
  C   C27       1.0  0.6707699319572529  0.6680568049971072  0.09158017761539843  1.0000
  C   C28       1.0  0.43065099861517125  0.8321163262621528  0.4083614464317975  1.0000
  C   C29       1.0  0.5305180786902782  0.2734561747669275  0.8611458861243619  1.0000
  C   C30       1.0  0.6649632840656635  0.22641401214754345  0.6388063445224575  1.0000
  C   C31       1.0  0.4694857083402514  0.7265401963667628  0.13885174474065565  1.0000
  C   C32       1.0  0.33503607630207444  0.7735823772247418  0.3611894130418989  1.0000
  C   C33       1.0  0.08355901628471016  0.5257512013842457  0.980181888199148  1.0000
  C   C34       1.0  0.5894974309510349  0.9741782447302542  0.5198026222572949  1.0000
  C   C35       1.0  0.9164468533363747  0.47424517461834625  0.019815232337300898  1.0000
  C   C36       1.0  0.4105043520338326  0.02581910319023001  0.4801933406377898  1.0000
  S   S1        1.0  0.13320393632883296  0.41602318365671936  0.6853076570642784  1.0000
  S   S2        1.0  0.23490625161889514  0.08386580598725153  0.814399927874085  1.0000
  S   S3        1.0  0.8667934003215122  0.5839770029924765  0.3146927783374593  1.0000
  S   S4        1.0  0.7650939458917778  0.9161344540550118  0.18559290441186965  1.0000
  S   S5        1.0  0.010327049388031391  0.6473735978874445  0.5533997232140068  1.0000
  S   S6        1.0  0.21135953333461552  0.8526788409393619  0.9465061665205353  1.0000
  S   S7        1.0  0.9896738018268535  0.352626592213845  0.4466003439664163  1.0000
  S   S8        1.0  0.788648814689118  0.14732237198390413  0.0534874395251634  1.0000
  N   N1        1.0  0.691309171599656  0.33287868868629994  0.8318762821079488  1.0000
  N   N2        1.0  0.8559780260514535  0.1670542890904088  0.6680293163010589  1.0000
  N   N3        1.0  0.30869385683283196  0.6671147934331005  0.168122095736976  1.0000
  N   N4        1.0  0.14401982379742154  0.8329411200429818  0.3319684774545379  1.0000
  O   O1        1.0  0.7477295594723831  0.5036898399008792  0.6438381904776379  1.0000
  O   O2        1.0  0.8955753765972715  0.9962397328950914  0.8560714056953387  1.0000
  O   O3        1.0  0.2522624776183519  0.49631700931352907  0.3561686434175897  1.0000
  O   O4        1.0  0.10442029603399312  0.0037623842202024003  0.1439280773957563  1.0000
