data_image0
_chemical_formula_structural       Zr6H50C61O34
_chemical_formula_sum              "Zr6 H50 C61 O34"
_cell_length_a       14.77866534774989
_cell_length_b       14.772248459551285
_cell_length_c       14.791619332769121
_cell_angle_alpha    60.19982806078424
_cell_angle_beta     59.89929209441923
_cell_angle_gamma    60.0581527709032

_space_group_name_H-M_alt    "P 1"
_space_group_IT_number       1

loop_
  _space_group_symop_operation_xyz
  'x, y, z'

loop_
  _atom_site_type_symbol
  _atom_site_label
  _atom_site_symmetry_multiplicity
  _atom_site_fract_x
  _atom_site_fract_y
  _atom_site_fract_z
  _atom_site_occupancy
  Zr  Zr1       1.0  0.8793521738541157  0.883758029799964  0.613519215364505  1.0000
  Zr  Zr2       1.0  0.12348173116949818  0.11744519977940376  0.37999203568735135  1.0000
  Zr  Zr3       1.0  0.11877227024572774  0.8795767157608626  0.6179139915231674  1.0000
  Zr  Zr4       1.0  0.8840106473852883  0.12235488347650408  0.3753285501235554  1.0000
  Zr  Zr5       1.0  0.1207858384659344  0.8812994684807691  0.37701045492050167  1.0000
  Zr  Zr6       1.0  0.8810770680203105  0.11999053855326744  0.6169054064169189  1.0000
  H   H1        1.0  0.09261682054708584  0.7187444949870497  0.590108587478305  1.0000
  H   H2        1.0  0.09932565551896741  0.09442834457038882  0.21434954945191012  1.0000
  H   H3        1.0  0.09470960022004245  0.09055518233996912  0.5956601737824556  1.0000
  H   H4        1.0  0.7187706899463109  0.09888347293536284  0.5873877999972309  1.0000
  H   H5        1.0  0.16807221725223795  0.5483201446239933  0.4178354994714653  1.0000
  H   H6        1.0  0.8297344430387099  0.45604044599109306  0.5746675759754041  1.0000
  H   H7        1.0  0.6385498285081963  0.07968920457056337  0.9505082479867966  1.0000
  H   H8        1.0  0.3735115081895658  0.9075110709057982  0.053674525292706235  1.0000
  H   H9        1.0  0.8567070987885756  0.13488459127129465  0.09388871430261503  1.0000
  H   H10       1.0  0.12990698065694753  0.852312887222986  0.914920197299523  1.0000
  H   H11       1.0  0.6025784924287833  0.4180035615390383  0.34865772643264153  1.0000
  H   H12       1.0  0.4138361595266815  0.5975815372404158  0.630755486903297  1.0000
  H   H13       1.0  0.1341765476844401  0.6000640935161318  0.9165390096835112  1.0000
  H   H14       1.0  0.7329280521732144  0.6301147381779375  0.9732317962398512  1.0000
  H   H15       1.0  0.8210838421684908  0.5455787433182095  0.8868456378991354  1.0000
  H   H16       1.0  0.8296102828520232  0.37456908035427755  0.05614225873483038  1.0000
  H   H17       1.0  0.7408770755337315  0.4588159982643349  0.14266538205367163  1.0000
  H   H18       1.0  0.600770268017605  0.8597542192141675  0.6268229103598556  1.0000
  H   H19       1.0  0.4078575581162697  0.13709891252195663  0.35925388552949045  1.0000
  H   H20       1.0  0.23061610904295546  0.264411823526963  0.46285969788682024  1.0000
  H   H21       1.0  0.23484242198074406  0.35299429531490745  0.32691118982453565  1.0000
  H   H22       1.0  0.2819429991649045  0.37566518550958966  0.4013785111526148  1.0000
  H   H23       1.0  0.715804451492943  0.6221102007554862  0.6038286754247651  1.0000
  H   H24       1.0  0.7687963279558897  0.6492302289035481  0.6695750965269623  1.0000
  H   H25       1.0  0.7641255756093557  0.7366461984408943  0.5362845930249308  1.0000
  H   H26       1.0  0.4146361968198847  0.17909316704113823  0.13590397995858441  1.0000
  H   H27       1.0  0.4562945716607274  0.047926050293938406  0.23204602022697438  1.0000
  H   H28       1.0  0.5584386713972833  0.10722159373302295  0.11839298093118343  1.0000
  H   H29       1.0  0.5445080368366104  0.9446390397875393  0.7734604818474012  1.0000
  H   H30       1.0  0.6039862338074184  0.813909838116388  0.8581263524371325  1.0000
  H   H31       1.0  0.45682727918622157  0.8708962122260504  0.8922082653562173  1.0000
  H   H32       1.0  0.761955805445858  0.22395832483015007  0.9766595355192607  1.0000
  H   H33       1.0  0.8439348399622871  0.22891847062335594  0.8364574733544217  1.0000
  H   H34       1.0  0.7604142291627269  0.1450131153968215  0.9175177462622984  1.0000
  H   H35       1.0  0.22054945638406312  0.7594457448794287  0.036058426616030294  1.0000
  H   H36       1.0  0.22969822271377874  0.8421018543564288  0.08535812621637007  1.0000
  H   H37       1.0  0.14271195535058465  0.7616307835193014  0.17465298209060617  1.0000
  H   H38       1.0  0.4836283632117357  0.5390340717223268  0.25558370707920375  1.0000
  H   H39       1.0  0.34269679400396297  0.5919005355918828  0.336392997463463  1.0000
  H   H40       1.0  0.42392828023962875  0.6782114752174593  0.25570848831054593  1.0000
  H   H41       1.0  0.5383938517317121  0.48251741734070214  0.7180348397131624  1.0000
  H   H42       1.0  0.5846892579232232  0.3422296635689152  0.7276650728397344  1.0000
  H   H43       1.0  0.677386750993854  0.41662661689209585  0.6422955536528079  1.0000
  H   H44       1.0  0.4867839696191464  0.7608162533126687  0.7167185860894919  1.0000
  H   H45       1.0  0.34471461032705236  0.838616130914929  0.727562551763505  1.0000
  H   H46       1.0  0.4267340305871627  0.7600241145298555  0.6381922490309295  1.0000
  H   H47       1.0  0.5246335172315284  0.23334789972727787  0.2665021719282735  1.0000
  H   H48       1.0  0.583126948442924  0.2361169468476661  0.34518258590271245  1.0000
  H   H49       1.0  0.6662545273921906  0.15531142869679132  0.25787477414174037  1.0000
  H   H50       1.0  0.06994628014385272  0.4510317527530675  0.2295492929022345  1.0000
  C   C1        1.0  0.9934890980605289  0.702087019525827  0.49281252511751467  1.0000
  C   C2        1.0  0.31246181140788554  0.9949599795850831  0.19962757740909598  1.0000
  C   C3        1.0  0.0034930007916144845  0.3036853492251268  0.49781529392380724  1.0000
  C   C4        1.0  0.6963011689617956  0.9977215405991445  0.8012968941317811  1.0000
  C   C5        1.0  0.9914833667370714  0.7044376809225098  0.8053308003285835  1.0000
  C   C6        1.0  0.7001106301529064  0.005070306670241208  0.4862534363998209  1.0000
  C   C7        1.0  0.9995796504859413  0.3101850317942054  0.19995173025594676  1.0000
  C   C8        1.0  0.3087508509745405  0.9912235059055732  0.5000405231184075  1.0000
  C   C9        1.0  0.3083202223048787  0.6995723421832597  0.4907548776679321  1.0000
  C   C10       1.0  0.9914171230621206  0.996886533643789  0.8078284779841383  1.0000
  C   C11       1.0  0.7035892405453907  0.31161678527748643  0.49309568056024483  1.0000
  C   C12       1.0  0.0009520107249941934  0.9957293233815675  0.19526875837444627  1.0000
  C   C13       1.0  0.005903634141851821  0.4041185046413673  0.4966346640249953  1.0000
  C   C14       1.0  0.991728484738978  0.6007134755480764  0.4951629323571892  1.0000
  C   C15       1.0  0.10504869297710671  0.42704496774517525  0.4521171977249949  1.0000
  C   C16       1.0  0.892991116117017  0.5764155612643408  0.5418916536084099  1.0000
  C   C17       1.0  0.09397120003418263  0.526730987741722  0.4519289358227851  1.0000
  C   C18       1.0  0.9037429096782359  0.4777396147867209  0.5405096066565349  1.0000
  C   C19       1.0  0.4149158101596909  0.9945196877826135  0.09991687723721296  1.0000
  C   C20       1.0  0.5967261863538124  0.9936811182610231  0.9037330944457553  1.0000
  C   C21       1.0  0.48955802564068307  0.04427580878902413  0.07333274371308823  1.0000
  C   C22       1.0  0.5226184483835823  0.9428922775138349  0.9308606617620185  1.0000
  C   C23       1.0  0.5789369141654886  0.04211466267479118  0.9745904399561311  1.0000
  C   C24       1.0  0.43330652979796686  0.9449121507335935  0.029615757081920456  1.0000
  C   C25       1.0  0.9874341772138423  0.9982217951436286  0.910257951943436  1.0000
  C   C26       1.0  0.000166009331081503  0.9899586963328066  0.09755983800817354  1.0000
  C   C27       1.0  0.9066541318032862  0.0805733928681747  0.9602348487297762  1.0000
  C   C28       1.0  0.07989032977999955  0.9065804637482062  0.04864747018377363  1.0000
  C   C29       1.0  0.9164462577202032  0.07294836221085182  0.05310355984659761  1.0000
  C   C30       1.0  0.07011825412515563  0.9142280575219103  0.9557345208330972  1.0000
  C   C31       1.0  0.4124551510205093  0.6016481939672432  0.4852431868841053  1.0000
  C   C32       1.0  0.6038015747406292  0.41397137784127114  0.4942562425857562  1.0000
  C   C33       1.0  0.4650959713034555  0.5525070308250194  0.40201882255648513  1.0000
  C   C34       1.0  0.5521482921443805  0.4641311497972326  0.5764378478743453  1.0000
  C   C35       1.0  0.5598042215369644  0.4593341434704288  0.41013821740218503  1.0000
  C   C36       1.0  0.4571947641892745  0.5571325854063077  0.5685236595899356  1.0000
  C   C37       1.0  0.9879132339196349  0.6087877413080137  0.9100119523372568  1.0000
  C   C38       1.0  0.9944243175653468  0.41536162386175596  0.10514111257300134  1.0000
  C   C39       1.0  0.9083992515226664  0.5575055195793941  0.964025240214447  1.0000
  C   C40       1.0  0.07425461950298738  0.46892043024063673  0.05253563859690051  1.0000
  C   C41       1.0  0.9125688457260352  0.4634292543077406  0.05807379803971464  1.0000
  C   C42       1.0  0.07025189308115633  0.5623407652728859  0.9572825127516111  1.0000
  C   C43       1.0  0.8074427160184  0.5576978463599646  0.960803016678675  1.0000
  C   C44       1.0  0.8124979621561932  0.4506431838040046  0.06694249421986603  1.0000
  C   C45       1.0  0.4104261513805552  0.9900625537903311  0.4999617867210731  1.0000
  C   C46       1.0  0.5992559842941602  0.005703500947625334  0.48515614421936  1.0000
  C   C47       1.0  0.4640346377485327  0.9084633307542092  0.5783707165611818  1.0000
  C   C48       1.0  0.5457691070231122  0.08718012595907253  0.4065848088902939  1.0000
  C   C49       1.0  0.5572114036138557  0.9200732349157125  0.5679512405412339  1.0000
  C   C50       1.0  0.45203329313451956  0.07609132630998533  0.41748705740292996  1.0000
  C   C51       1.0  0.21924514229674938  0.35078575387963434  0.40868508592676284  1.0000
  C   C52       1.0  0.7792840708291068  0.6500461644158338  0.5902041941970354  1.0000
  C   C53       1.0  0.47933626764199744  0.09712675695801219  0.14400384091596416  1.0000
  C   C54       1.0  0.5323080054990117  0.8904424141343201  0.8599426020027822  1.0000
  C   C55       1.0  0.8131852720288961  0.1746876956174576  0.9208303037818126  1.0000
  C   C56       1.0  0.17321872122144544  0.8122585470585834  0.08818355314014796  1.0000
  C   C57       1.0  0.42699944363513226  0.592408737211372  0.30728388199027995  1.0000
  C   C58       1.0  0.5902139532199867  0.42462954549856147  0.6710443959039126  1.0000
  C   C59       1.0  0.428829511419053  0.8116746427887807  0.6702565723433197  1.0000
  C   C60       1.0  0.5816665289251972  0.18333893090964895  0.3139413404437903  1.0000
  C   C61       1.0  0.17078355288387576  0.43091439920308977  0.08794090201698174  1.0000
  O   O1        1.0  0.9172498630385559  0.7430165596307463  0.5693461422455499  1.0000
  O   O2        1.0  0.2709091696726773  0.07195084821410805  0.23988995217904832  1.0000
  O   O3        1.0  0.07941385642960337  0.2634869089405073  0.42067694048407844  1.0000
  O   O4        1.0  0.736543142434925  0.9231670869035826  0.7581551378637386  1.0000
  O   O5        1.0  0.07132105462198254  0.7409796840371142  0.7633673274078491  1.0000
  O   O6        1.0  0.7409369389350716  0.08167522935793425  0.4117070282408406  1.0000
  O   O7        1.0  0.9248984734611058  0.2692540228881343  0.23507311436227957  1.0000
  O   O8        1.0  0.2662386639291011  0.9164299141386325  0.5765386867889789  1.0000
  O   O9        1.0  0.2651918726985726  0.7390829088472303  0.41681828724124864  1.0000
  O   O10       1.0  0.9166742101925679  0.07345646174998431  0.7653562133608318  1.0000
  O   O11       1.0  0.7434950859743308  0.26851510742768897  0.5703377015441902  1.0000
  O   O12       1.0  0.07789613649835989  0.9212763673770114  0.23543697714994502  1.0000
  O   O13       1.0  0.0703469426699784  0.920870393181801  0.7675499783916139  1.0000
  O   O14       1.0  0.7419714200319232  0.27209881234792743  0.41617567576761877  1.0000
  O   O15       1.0  0.9258329132192032  0.07550072907991294  0.231890959046936  1.0000
  O   O16       1.0  0.26762726487345373  0.7368986752074992  0.5698169775965882  1.0000
  O   O17       1.0  0.9166106276218214  0.74075333642913  0.7647237536737778  1.0000
  O   O18       1.0  0.2693827850588235  0.06895910679740089  0.4235559913180751  1.0000
  O   O19       1.0  0.07821107683342633  0.268171298441601  0.23755266553569504  1.0000
  O   O20       1.0  0.7386644537818013  0.9277703438401023  0.5633939128239264  1.0000
  O   O21       1.0  0.7351007777983654  0.07483777292915049  0.7633471080920843  1.0000
  O   O22       1.0  0.07244259808600609  0.7390775877730038  0.41689933904577003  1.0000
  O   O23       1.0  0.27092763894410166  0.9201934648224681  0.23618606557196387  1.0000
  O   O24       1.0  0.9252883858607674  0.2658586933361066  0.5743165987312155  1.0000
  O   O25       1.0  0.7991346445963999  0.07090370733909188  0.561453984235534  1.0000
  O   O26       1.0  0.06812809786129755  0.0655298566037743  0.5669923353313422  1.0000
  O   O27       1.0  0.07108573797970047  0.06859551535939801  0.2945762476916585  1.0000
  O   O28       1.0  0.06604153180145979  0.7989368969413065  0.563933392211183  1.0000
  O   O29       1.0  0.15030428487647615  0.9493998467789813  0.4486634597608372  1.0000
  O   O30       1.0  0.9515540754714066  0.9531260939533585  0.4449925301196277  1.0000
  O   O31       1.0  0.953510899060504  0.1497455818235881  0.4473754024339129  1.0000
  O   O32       1.0  0.9495652926722042  0.9512123461153552  0.6453775016040026  1.0000
  O   O33       1.0  0.14752406228355128  0.44330640327730464  0.1834467255233463  1.0000
  O   O34       1.0  0.2667518767158866  0.4017836469774991  0.029063429015096228  1.0000
