data_image0
_chemical_formula_structural       Ni8H54C72N24O6
_chemical_formula_sum              "Ni8 H54 C72 N24 O6"
_cell_length_a       17.874897167027722
_cell_length_b       17.873614073510396
_cell_length_c       17.874597777504572
_cell_angle_alpha    59.994702538563324
_cell_angle_beta     59.99816915463239
_cell_angle_gamma    59.996115338097084

_space_group_name_H-M_alt    "P 1"
_space_group_IT_number       1

loop_
  _space_group_symop_operation_xyz
  'x, y, z'

loop_
  _atom_site_type_symbol
  _atom_site_label
  _atom_site_symmetry_multiplicity
  _atom_site_fract_x
  _atom_site_fract_y
  _atom_site_fract_z
  _atom_site_occupancy
  Ni  Ni1       1.0  0.05904774359812847  0.8227816811375632  0.059057629824778135  1.0000
  Ni  Ni2       1.0  0.8227479762689425  0.059022322501597696  0.05908290098744119  1.0000
  Ni  Ni3       1.0  0.059122907425035  0.059065514770701114  0.059121709223596504  1.0000
  Ni  Ni4       1.0  0.059089264207507534  0.0590360487577896  0.8227270180611228  1.0000
  Ni  Ni5       1.0  0.177251532488995  0.9409778153230095  0.9409174662081696  1.0000
  Ni  Ni6       1.0  0.9409504569871242  0.17721938644515942  0.9409444861612855  1.0000
  Ni  Ni7       1.0  0.9408768526710883  0.9409371125530728  0.9408800282328754  1.0000
  Ni  Ni8       1.0  0.9409099134572472  0.9409648769960841  0.1772735774932957  1.0000
  H   H1        1.0  0.11830923052792733  0.8816643274320342  0.8817514340406659  1.0000
  H   H2        1.0  0.8816890336122752  0.11833568468119197  0.11824824797049883  1.0000
  H   H3        1.0  0.11824243202236318  0.8815799048087456  0.11836456407989719  1.0000
  H   H4        1.0  0.8817582983962636  0.1184180976382336  0.8816353464251205  1.0000
  H   H5        1.0  0.8817964048065576  0.8815965370022312  0.11838019524812188  1.0000
  H   H6        1.0  0.11820329317542627  0.11840379010245533  0.8816184231030205  1.0000
  H   H7        1.0  0.6535654939952522  0.5171452212150245  0.9146377385204189  1.0000
  H   H8        1.0  0.7833446105819273  0.38804750348408856  0.9142591922010652  1.0000
  H   H9        1.0  0.5169805637586438  0.6536506284316629  0.9146818583917379  1.0000
  H   H10       1.0  0.3879416236480183  0.7833185415446593  0.9143434033563551  1.0000
  H   H11       1.0  0.9146850193103262  0.9146791151762201  0.6536325639389419  1.0000
  H   H12       1.0  0.9144076379587956  0.9143368846991606  0.7833529998516724  1.0000
  H   H13       1.0  0.914656851650207  0.9146420058228985  0.5171313720094731  1.0000
  H   H14       1.0  0.9143725542915677  0.9142635590374438  0.3879820670225413  1.0000
  H   H15       1.0  0.9146609492430073  0.5170794703114511  0.6535977825058269  1.0000
  H   H16       1.0  0.914327482364044  0.38805704736726176  0.7832798066556492  1.0000
  H   H17       1.0  0.9146739021590095  0.6536306304449937  0.5170188054106646  1.0000
  H   H18       1.0  0.9143380505991701  0.783289586688511  0.38801707452233797  1.0000
  H   H19       1.0  0.5170891203236038  0.9146589376408446  0.914660920602678  1.0000
  H   H20       1.0  0.3879183587361793  0.9143309765211497  0.9143578507313422  1.0000
  H   H21       1.0  0.6536058279889615  0.9146660111247659  0.9146693322674793  1.0000
  H   H22       1.0  0.7833927525706272  0.9143333705675402  0.914365906470998  1.0000
  H   H23       1.0  0.9146491364517498  0.5171562302563828  0.9146355201057331  1.0000
  H   H24       1.0  0.9143478167684547  0.38804388858072536  0.9142652228065131  1.0000
  H   H25       1.0  0.9146895385362512  0.6536587294254799  0.9146860169739099  1.0000
  H   H26       1.0  0.914396777070287  0.7833250858185253  0.9143598383918456  1.0000
  H   H27       1.0  0.6535793136636631  0.9146415786532456  0.5171196450216727  1.0000
  H   H28       1.0  0.7833724924764951  0.9142546514406504  0.38799363626265654  1.0000
  H   H29       1.0  0.5170178051384937  0.9146736131888886  0.6536292669643942  1.0000
  H   H30       1.0  0.38793362575312784  0.9143215504580554  0.7833450286080746  1.0000
  H   H31       1.0  0.4830276102618924  0.3463559378996237  0.08530958171103016  1.0000
  H   H32       1.0  0.6120607839483371  0.21668561471123837  0.08565073183384436  1.0000
  H   H33       1.0  0.3464426800252767  0.48286134511626244  0.08535370158234916  1.0000
  H   H34       1.0  0.21666319443355755  0.611951979280157  0.08573627442606839  1.0000
  H   H35       1.0  0.08530741609597212  0.0853117099648841  0.34637802253039496  1.0000
  H   H36       1.0  0.08558440279936969  0.08565578384071419  0.21666024895136365  1.0000
  H   H37       1.0  0.08533567836811781  0.08534891395825642  0.4828783400376295  1.0000
  H   H38       1.0  0.08562025146280662  0.08572875564330229  0.6120246040802398  1.0000
  H   H39       1.0  0.4829905834557949  0.08531750044022601  0.34637878119866633  1.0000
  H   H40       1.0  0.6120684045425692  0.08567215653263095  0.21666404390493446  1.0000
  H   H41       1.0  0.34643061148445053  0.0853488336279113  0.4828868827367501  1.0000
  H   H42       1.0  0.21663941798549044  0.08573886563114284  0.6120057459470943  1.0000
  H   H43       1.0  0.0853424371492507  0.48285723385271245  0.08535397498031472  1.0000
  H   H44       1.0  0.0856460743870285  0.6119618216847157  0.08572833800593574  1.0000
  H   H45       1.0  0.08530123100923963  0.3463572877514949  0.08530241434408481  1.0000
  H   H46       1.0  0.08559811277872602  0.21668833773446752  0.08563323270620063  1.0000
  H   H47       1.0  0.4829243835879424  0.08533057790436513  0.08532853646969582  1.0000
  H   H48       1.0  0.6120851542948174  0.08566309460065469  0.08563567147325563  1.0000
  H   H49       1.0  0.34640934624552233  0.08532293684260144  0.08531970720829925  1.0000
  H   H50       1.0  0.21662260134706204  0.08566023334796567  0.08562651956292201  1.0000
  H   H51       1.0  0.08531737111249522  0.3463780566864613  0.48298947030095013  1.0000
  H   H52       1.0  0.08565182808544597  0.216721062920378  0.6119885778415508  1.0000
  H   H53       1.0  0.08533014290447476  0.48292791656045614  0.34641265972787494  1.0000
  H   H54       1.0  0.08566461926302779  0.6119457537579223  0.2167307858568748  1.0000
  C   C1        1.0  0.5799618281988969  0.4200861019895328  0.9999703974803185  1.0000
  C   C2        1.0  0.6616159339254962  0.3384555709868238  0.9999545070235314  1.0000
  C   C3        1.0  0.42004686613886105  0.5799198656925739  1.9065419174217205e-05  1.0000
  C   C4        1.0  0.3383897116046839  0.6615484664528068  3.9249718099744175e-05  1.0000
  C   C5        1.0  9.602456934498306e-06  1.569810466854418e-05  0.5799565259993428  1.0000
  C   C6        1.0  1.1518242764851979e-05  2.9695384753875478e-05  0.6616035475514009  1.0000
  C   C7        1.0  0.9999840384100053  0.9999752136177449  0.4200527684241565  1.0000
  C   C8        1.0  0.9999802158200809  0.9999626664848053  0.3384055184052601  1.0000
  C   C9        1.0  0.9999902982947616  0.4200837669093861  0.5799359358597798  1.0000
  C   C10       1.0  0.9999870733462045  0.33845619231000523  0.6615714138146487  1.0000
  C   C11       1.0  1.0857888099932397e-06  0.5799227929031828  0.4200723007848381  1.0000
  C   C12       1.0  3.2864007549131095e-06  0.6615515811808097  0.33843594835371954  1.0000
  C   C13       1.0  0.4200350338750023  0.9999906956258047  0.9999906440905164  1.0000
  C   C14       1.0  0.33837353873067133  0.9999941918597275  0.9999943508488441  1.0000
  C   C15       1.0  0.5799814803261256  0.9999974677285478  0.9999975910122672  1.0000
  C   C16       1.0  0.6616379955587206  0.9999968243376999  0.9999966965963835  1.0000
  C   C17       1.0  0.9999779215533807  0.4200801224071924  0.9999659437217475  1.0000
  C   C18       1.0  0.9999718119373072  0.33843981971593023  0.9999506739957909  1.0000
  C   C19       1.0  1.374665963975643e-05  0.5799334363419464  2.267694207348242e-05  1.0000
  C   C20       1.0  2.147924374193655e-05  0.6615720049659402  4.0798401570876464e-05  1.0000
  C   C21       1.0  0.5799717423658846  0.9999782765259086  0.42006250799919775  1.0000
  C   C22       1.0  0.661626387628942  0.9999659196941696  0.33842254001937266  1.0000
  C   C23       1.0  0.4200374814387756  1.3672483696297576e-05  0.579942499246549  1.0000
  C   C24       1.0  0.3383822605013478  2.881079346647776e-05  0.6615816318441291  1.0000
  C   C25       1.0  0.5863551459400825  0.5087050661978196  0.9524648013486754  1.0000
  C   C26       1.0  0.7541875800621867  0.33338973682286627  0.9561867369115546  1.0000
  C   C27       1.0  0.5086218550366793  0.5863988389773382  0.9524876029879864  1.0000
  C   C28       1.0  0.3333041797772863  0.75413596444362  0.9562728701333822  1.0000
  C   C29       1.0  0.9524970942835224  0.9524932531989379  0.5863909303779594  1.0000
  C   C30       1.0  0.9562839027123219  0.9562599306035792  0.7541840550083664  1.0000
  C   C31       1.0  0.9524825943185107  0.9524733193002958  0.508686410740154  1.0000
  C   C32       1.0  0.9562515717683269  0.9561942550352072  0.3333266466788985  1.0000
  C   C33       1.0  0.9524736960063578  0.5086821291936375  0.5863693604309859  1.0000
  C   C34       1.0  0.9562356663454779  0.33338895020483506  0.754142509228018  1.0000
  C   C35       1.0  0.9524800600800846  0.5863859488651142  0.5086530234484458  1.0000
  C   C36       1.0  0.9562478444165093  0.754132807053331  0.33336410310030123  1.0000
  C   C37       1.0  0.5086617044430355  0.9524832438955072  0.9524838996691187  1.0000
  C   C38       1.0  0.333283984691782  0.9562439879969561  0.9562477057233209  1.0000
  C   C39       1.0  0.586378629246546  0.9524882983262444  0.9524908815452519  1.0000
  C   C40       1.0  0.7542263887584821  0.9562412161804374  0.9562496740386592  1.0000
  C   C41       1.0  0.9524731976596001  0.5087113983698187  0.9524644128796923  1.0000
  C   C42       1.0  0.9562397304412188  0.33336953662020385  0.9561863637804963  1.0000
  C   C43       1.0  0.9524943799359988  0.5864041355156717  0.9524915149605704  1.0000
  C   C44       1.0  0.9562860879796913  0.7541540599109877  0.9562741372932418  1.0000
  C   C45       1.0  0.5863641007915344  0.9524721407152654  0.5086814023969026  1.0000
  C   C46       1.0  0.7542031264802916  0.9561935408523894  0.33335039507837666  1.0000
  C   C47       1.0  0.5086328804009881  0.9524884353299043  0.586388506272357  1.0000
  C   C48       1.0  0.33329969210584676  0.9562596760647964  0.7541624536054315  1.0000
  C   C49       1.0  0.4913861933147601  0.4136064826043651  0.04750315198435133  1.0000
  C   C50       1.0  0.6666981251070182  0.24586920815169577  0.043721721801432606  1.0000
  C   C51       1.0  0.4136537767788155  0.4913011298944454  0.047524889936632085  1.0000
  C   C52       1.0  0.24581909790463635  0.6666119759590502  0.04380831198393761  1.0000
  C   C53       1.0  0.047495112741643176  0.047497343532015235  0.4136194277055622  1.0000
  C   C54       1.0  0.0437076731835475  0.043733392095440124  0.24582831934542776  1.0000
  C   C55       1.0  0.04751104654842922  0.04751759242211762  0.4913228836833453  1.0000
  C   C56       1.0  0.0437421475105992  0.04379897328617939  0.6666809379671291  1.0000
  C   C57       1.0  0.4913772650282411  0.047503316340879585  0.4136178321942553  1.0000
  C   C58       1.0  0.6667037720316316  0.0437343459173505  0.24584555524754853  1.0000
  C   C59       1.0  0.41364669872402987  0.04751914607645347  0.4913240616744829  1.0000
  C   C60       1.0  0.2458066095415744  0.04379892048750385  0.6666522172864758  1.0000
  C   C61       1.0  0.04751712322364201  0.4913030510073639  0.04752397934429103  1.0000
  C   C62       1.0  0.043753624196995106  0.666638994253347  0.04380833887999807  1.0000
  C   C63       1.0  0.047497280177005025  0.4136105342129285  0.047496688025624706  1.0000
  C   C64       1.0  0.043707462639566985  0.24585914329058775  0.043719123042592394  1.0000
  C   C65       1.0  0.49135324141030884  0.04750547566169421  0.047504911420851774  1.0000
  C   C66       1.0  0.6667209702810126  0.04374928713684772  0.04374517049886617  1.0000
  C   C67       1.0  0.4136362300948021  0.04749921561145236  0.04749922164456423  1.0000
  C   C68       1.0  0.2457884137849149  0.043751836274708474  0.04374316964587171  1.0000
  C   C69       1.0  0.04751056720509429  0.4136220921659373  0.4913565443360142  1.0000
  C   C70       1.0  0.04374149099383118  0.24587618011572226  0.6666423845918173  1.0000
  C   C71       1.0  0.047516702897688244  0.4913256834272559  0.4136399789676659  1.0000
  C   C72       1.0  0.043754150127199576  0.666617160846144  0.24586568826858016  1.0000
  N   N1        1.0  0.8084799284037488  0.24500545729626577  0.9732426546890593  1.0000
  N   N2        1.0  0.24493787958230934  0.8084330031321231  0.9733120210833804  1.0000
  N   N3        1.0  0.9733112214708012  0.9733011080974948  0.8084695657370135  1.0000
  N   N4        1.0  0.9732850678770717  0.9732540371282852  0.24495507830373256  1.0000
  N   N5        1.0  0.9732812521679012  0.24500479151454607  0.8084377233384785  1.0000
  N   N6        1.0  0.973285000134979  0.808432309514636  0.24499062584342832  1.0000
  N   N7        1.0  0.2449068718782354  0.9732975094009859  0.9732949192103674  1.0000
  N   N8        1.0  0.8085070176565238  0.9732821070953721  0.9732874510018875  1.0000
  N   N9        1.0  0.9732801027291698  0.2449863736600547  0.9732439457955592  1.0000
  N   N10       1.0  0.9733100624309544  0.8084498300845057  0.9733087063968925  1.0000
  N   N11       1.0  0.8084903013656725  0.9732471948833138  0.24497841557952432  1.0000
  N   N12       1.0  0.2449304563314598  0.9733070320342351  0.8084518607529105  1.0000
  N   N13       1.0  0.7550632360414086  0.1915698609229606  0.026684698252509586  1.0000
  N   N14       1.0  0.19152277103090393  0.7549956335614639  0.026754939150087895  1.0000
  N   N15       1.0  0.02668172480968421  0.02669582340130461  0.19153851469362587  1.0000
  N   N16       1.0  0.02670783924632047  0.026742855240442457  0.7550510248966235  1.0000
  N   N17       1.0  0.7550720308243086  0.026689370115590874  0.19155200429369054  1.0000
  N   N18       1.0  0.19151436833023894  0.026749152018958  0.7550226369895938  1.0000
  N   N19       1.0  0.026714315402749333  0.7550209826653288  0.02675360857146104  1.0000
  N   N20       1.0  0.026684575982081085  0.19155886563049762  0.026688658678324404  1.0000
  N   N21       1.0  0.7550962384045973  0.026699516099050406  0.026700847650310878  1.0000
  N   N22       1.0  0.1915005751778693  0.02671492529978539  0.02670862259466843  1.0000
  N   N23       1.0  0.026705336654927626  0.19157320288716312  0.7550155944498939  1.0000
  N   N24       1.0  0.026709635996304874  0.7550012723476199  0.19156807930423267  1.0000
  O   O1        1.0  0.0795927355604459  0.9204072797234205  0.9202904396518858  1.0000
  O   O2        1.0  0.9204032203705309  0.07959154288777638  0.07971136970633817  1.0000
  O   O3        1.0  0.07964243276898479  0.920435048802446  0.07968139897491965  1.0000
  O   O4        1.0  0.9203555326781299  0.07956130732217997  0.9203201821055202  1.0000
  O   O5        1.0  0.9202954307005626  0.920379260995269  0.07962377228716384  1.0000
  O   O6        1.0  0.07970356593796893  0.07962260283787258  0.9203733255513099  1.0000
