data_image0
_chemical_formula_structural       Zn2H44C58N4O18
_chemical_formula_sum              "Zn2 H44 C58 N4 O18"
_cell_length_a       10.052133330566864
_cell_length_b       12.123755766343344
_cell_length_c       12.566
_cell_angle_alpha    60.206442087123726
_cell_angle_beta     87.5379048367291
_cell_angle_gamma    85.56726423768453

_space_group_name_H-M_alt    "P 1"
_space_group_IT_number       1

loop_
  _space_group_symop_operation_xyz
  'x, y, z'

loop_
  _atom_site_type_symbol
  _atom_site_label
  _atom_site_symmetry_multiplicity
  _atom_site_fract_x
  _atom_site_fract_y
  _atom_site_fract_z
  _atom_site_occupancy
  Zn  Zn1       1.0  0.3404053022421607  0.6805968190623943  0.359604817599724  1.0000
  Zn  Zn2       1.0  0.6595948711530966  0.3194042173847791  0.6403913372274062  1.0000
  H   H1        1.0  0.3020871909124025  0.437831784139334  0.8115342456280317  1.0000
  H   H2        1.0  0.6979130468657218  0.5621682998660305  0.18846634256811254  1.0000
  H   H3        1.0  0.8409300960189369  0.08101946233323082  0.4006895044537374  1.0000
  H   H4        1.0  0.15907200445926858  0.9189825265557517  0.5993132897432999  1.0000
  H   H5        1.0  0.6599200991720195  0.6667645066957918  0.9379544756202164  1.0000
  H   H6        1.0  0.3400805249033212  0.3332298626587331  0.06204883884442582  1.0000
  H   H7        1.0  0.5857353496069635  0.8912931383355485  0.7796210745434423  1.0000
  H   H8        1.0  0.4142653388512441  0.1087002785771674  0.2203858774920278  1.0000
  H   H9        1.0  0.4688748640189359  0.9304061135918361  0.5926830104403751  1.0000
  H   H10       1.0  0.5311345285039479  0.0695911130881086  0.4073194287276466  1.0000
  H   H11       1.0  0.6910939651449723  0.291518626152282  0.13768649558370785  1.0000
  H   H12       1.0  0.3089093242147385  0.7084805054112806  0.8623184233279277  1.0000
  H   H13       1.0  0.11556740129849168  0.2836219311284225  0.0732607385332358  1.0000
  H   H14       1.0  0.8844325789481573  0.7163819626441779  0.9267428069396858  1.0000
  H   H15       1.0  0.851640727877431  0.5515409541808012  0.7830752804402579  1.0000
  H   H16       1.0  0.1483597030493087  0.4484562724991434  0.21692507929375898  1.0000
  H   H17       1.0  0.16153760296879935  0.8048057075869225  0.46732438048594094  1.0000
  H   H18       1.0  0.8384631498722824  0.1951867568839845  0.5326830259276109  1.0000
  H   H19       1.0  0.9161058388174156  0.8404994167552077  0.48935845151438434  1.0000
  H   H20       1.0  0.0838950427894005  0.1594911428320813  0.5106498636553312  1.0000
  H   H21       1.0  0.8567500624195432  0.5853288272927912  0.35115464131811086  1.0000
  H   H22       1.0  0.1432481195099058  0.41467220915438224  0.64884476513744  1.0000
  H   H23       1.0  0.10414659270069392  0.5608863131934854  0.33387978386006273  1.0000
  H   H24       1.0  0.8958495333800726  0.439115675695497  0.6661176450567087  1.0000
  H   H25       1.0  0.6884709756073022  0.772937004716532  0.48426571777184085  1.0000
  H   H26       1.0  0.31152906902221394  0.2270659366142525  0.5157335072900509  1.0000
  H   H27       1.0  0.663219212471013  0.6732715891228835  0.42230881646864304  1.0000
  H   H28       1.0  0.3367806390098949  0.32673420953332777  0.5776882496608096  1.0000
  H   H29       1.0  0.5727212744318138  0.8971535127755175  0.2884104146269237  1.0000
  H   H30       1.0  0.42727571861612307  0.1028503809970758  0.7115900503067679  1.0000
  H   H31       1.0  0.7327459405329009  0.9537114121732985  0.2759213385605648  1.0000
  H   H32       1.0  0.2672510525150287  0.046292481599302  0.724077534776754  1.0000
  H   H33       1.0  0.8176797249107536  0.8159721353350591  0.18160143239174437  1.0000
  H   H34       1.0  0.1823134139713005  0.1840298535539233  0.8183953033803562  1.0000
  H   H35       1.0  0.6556180018850313  0.7713426171312037  0.18799811520091242  1.0000
  H   H36       1.0  0.3443742056469787  0.2286584193159698  0.8120022923598569  1.0000
  H   H37       1.0  0.6093966315937891  0.099515882229916  0.10516977863111521  1.0000
  H   H38       1.0  0.39059936572123627  0.9004880115426843  0.8948227625385603  1.0000
  H   H39       1.0  0.5793983599292929  0.2745384936127309  0.8911228553868257  1.0000
  H   H40       1.0  0.42060672774762503  0.7254634952762515  0.10886949078027887  1.0000
  H   H41       1.0  0.7273409524424395  0.0440599580031176  0.7501861516044956  1.0000
  H   H42       1.0  0.2726634614159167  0.955937268676827  0.2498100922672464  1.0000
  H   H43       1.0  0.7633628164080974  0.8571090494317417  0.9611889101160429  1.0000
  H   H44       1.0  0.23663642563712273  0.14289103457362273  0.03880773330701001  1.0000
  C   C1        1.0  0.420398993183845  0.763020180619506  0.5205985956512863  1.0000
  C   C2        1.0  0.5796052275259029  0.2369799033858584  0.4794010598753148  1.0000
  C   C3        1.0  0.4858073407086962  0.7343602541977177  0.6378915076187113  1.0000
  C   C4        1.0  0.5141978113510888  0.2656407822494558  0.3621060677155939  1.0000
  C   C5        1.0  0.5327259295440072  0.6095999018667939  0.7232931300776501  1.0000
  C   C6        1.0  0.4672792225157778  0.3904011345803795  0.2767044452566481  1.0000
  C   C7        1.0  0.5937275503932753  0.588682374896095  0.8303427390136805  1.0000
  C   C8        1.0  0.4062699577176119  0.4113138993420407  0.1696573819537548  1.0000
  C   C9        1.0  0.612825758193388  0.6880668201566138  0.8526521646216665  1.0000
  C   C10       1.0  0.38717287441614456  0.311927549197911  0.1473512182786507  1.0000
  C   C11       1.0  0.5692812572526335  0.8117585327798055  0.7655666715609044  1.0000
  C   C12       1.0  0.4307181779411949  0.18823869390013934  0.2344369055836992  1.0000
  C   C13       1.0  0.5044529770167543  0.8343561670984841  0.6601437905620031  1.0000
  C   C14       1.0  0.4955501835772154  0.1656448693486894  0.33985464900616347  1.0000
  C   C15       1.0  0.5267673555090013  0.4970327095522151  0.7037020686670773  1.0000
  C   C16       1.0  0.4732339423849012  0.5029664220113474  0.29629575649656903  1.0000
  C   C17       1.0  0.757617738346319  0.423887083639471  0.9559154301142385  1.0000
  C   C18       1.0  0.24238057234886407  0.5761120479240915  0.044085680895662394  1.0000
  C   C19       1.0  0.7769254631936633  0.3257912921441601  0.07678144107712367  1.0000
  C   C20       1.0  0.2230737788515569  0.6742087918612114  0.9232207729332274  1.0000
  C   C21       1.0  0.9064984144480093  0.2754252169352753  0.11845921681199911  1.0000
  C   C22       1.0  0.093501758947248  0.7245758195118981  0.8815441001988021  1.0000
  C   C23       1.0  0.015490089873260596  0.3223063075714522  0.03891653924635107  1.0000
  C   C24       1.0  0.9845109504891595  0.6776966337593393  0.9610858347904384  1.0000
  C   C25       1.0  0.9952936700415762  0.4210078520561709  0.9184031225034844  1.0000
  C   C26       1.0  0.004708430436622298  0.5789941368328115  0.08159728429899357  1.0000
  C   C27       1.0  0.8658966729048313  0.47332262320267665  0.8766891426361314  1.0000
  C   C28       1.0  0.1341026335232556  0.526676508360886  0.12331272995411528  1.0000
  C   C29       1.0  0.10932957439695912  0.4734445357540054  0.8304062704860088  1.0000
  C   C30       1.0  0.8906686075324828  0.5265565006931681  0.16959393176772147  1.0000
  C   C31       1.0  0.9325091006977928  0.1759788629572867  0.248436424623165  1.0000
  C   C32       1.0  0.06748776358440269  0.8240269356989246  0.751564723150736  1.0000
  C   C33       1.0  0.08955485178119457  0.7593513747779994  0.44186450017593165  1.0000
  C   C34       1.0  0.910445707911272  0.2406439470183273  0.5581415431033676  1.0000
  C   C35       1.0  0.9531904022008959  0.7795383788825418  0.45213067619485514  1.0000
  C   C36       1.0  0.0468090973757995  0.22045789535559382  0.5478725595296439  1.0000
  C   C37       1.0  0.8650429668778871  0.7212975148113685  0.415144173664423  1.0000
  C   C38       1.0  0.1349562107844662  0.278703521635812  0.5848536069769141  1.0000
  C   C39       1.0  0.9203497523511855  0.6384426971155719  0.3750451196542173  1.0000
  C   C40       1.0  0.07964749822821908  0.3615573868897926  0.6249531838008834  1.0000
  C   C41       1.0  0.05779456180318481  0.6232788711024355  0.36617666842207797  1.0000
  C   C42       1.0  0.9422017574261831  0.3767202604611199  0.6338229194271321  1.0000
  C   C43       1.0  0.7182171265447224  0.7536900606757442  0.40967067105808047  1.0000
  C   C44       1.0  0.2817828537019267  0.2463138330968562  0.5903249164329836  1.0000
  C   C45       1.0  0.6801344100300284  0.872665281469466  0.2858004935245049  1.0000
  C   C46       1.0  0.3198636431336793  0.1273376598613254  0.7142003915694346  1.0000
  C   C47       1.0  0.7122369361575167  0.8502590879540435  0.17815545514665132  1.0000
  C   C48       1.0  0.2877561383416634  0.1497438533767479  0.8218432136419197  1.0000
  C   C49       1.0  0.6891317059932333  0.961741449050173  0.05227584013857726  1.0000
  C   C50       1.0  0.3108655445861785  0.0382586349551914  0.9477200759219714  1.0000
  C   C51       1.0  0.6368356432127199  0.081521399165652  0.030151482131167  1.0000
  C   C52       1.0  0.3631624743338548  0.9184805897233304  0.9698418993589969  1.0000
  C   C53       1.0  0.620049870139475  0.18057820444447262  0.9104132609165846  1.0000
  C   C54       1.0  0.37995329045450177  0.8194228320027009  0.08958119966065675  1.0000
  C   C55       1.0  0.7031024823174903  0.05107659679708831  0.8322296391817048  1.0000
  C   C56       1.0  0.2969017383922576  0.9489234872082832  0.16776683315215024  1.0000
  C   C57       1.0  0.7220686265845728  0.9483653563092391  0.949247409204524  1.0000
  C   C58       1.0  0.2779306154606545  0.051634727696132615  0.0507492342185287  1.0000
  N   N1        1.0  0.1413140420700998  0.6846246954652315  0.39692205655077123  1.0000
  N   N2        1.0  0.8586883803224479  0.3153725312147131  0.6030798263439437  1.0000
  N   N3        1.0  0.652397830838666  0.1663401518679777  0.8125755652969958  1.0000
  N   N4        1.0  0.34760931268692735  0.8336608845791957  0.1874195542070751  1.0000
  O   O1        1.0  0.36478697837735297  0.8705708619353345  0.4524311945713677  1.0000
  O   O2        1.0  0.635217177949528  0.1294301745118389  0.5475688023753307  1.0000
  O   O3        1.0  0.4297417140996487  0.6685731936877489  0.4987662698305044  1.0000
  O   O4        1.0  0.5702554720968891  0.3314278427594317  0.5012315792465145  1.0000
  O   O5        1.0  0.4267023792987458  0.4308170502289812  0.7368951388386052  1.0000
  O   O6        1.0  0.5732967983636001  0.5691839862181923  0.26310423339910466  1.0000
  O   O7        1.0  0.635915234543468  0.4700671771055127  0.6619232933580648  1.0000
  O   O8        1.0  0.364082947385981  0.5299338593416607  0.33807213410655385  1.0000
  O   O9        1.0  0.09462188348474847  0.5643998710204059  0.7259024877892841  1.0000
  O   O10       1.0  0.9053762984446934  0.4356011654267675  0.27409532706989387  1.0000
  O   O11       1.0  0.2263551193521351  0.4093966339840592  0.8763055728670892  1.0000
  O   O12       1.0  0.7736449252773808  0.5906063073467323  0.12369285639661601  1.0000
  O   O13       1.0  0.043230046967202895  0.13043214329306352  0.292286165330566  1.0000
  O   O14       1.0  0.9567747187953658  0.8695746078049567  0.7077174375152782  1.0000
  O   O15       1.0  0.8178762600529764  0.14058326807467134  0.314868428324921  1.0000
  O   O16       1.0  0.1821249090751849  0.8594177683725022  0.6851340586698527  1.0000
  O   O17       1.0  0.6265963520891162  0.462817190068769  0.9197458380824202  1.0000
  O   O18       1.0  0.3734031474875792  0.5371790841693667  0.08025580604571303  1.0000
