data_image0
_chemical_formula_structural       Zn8H48C73O31
_chemical_formula_sum              "Zn8 H48 C73 O31"
_cell_length_a       18.38950514886107
_cell_length_b       18.443843169357923
_cell_length_c       18.460199743603525
_cell_angle_alpha    60.24462702502817
_cell_angle_beta     60.16398146855102
_cell_angle_gamma    59.81843682843868

_space_group_name_H-M_alt    "P 1"
_space_group_IT_number       1

loop_
  _space_group_symop_operation_xyz
  'x, y, z'

loop_
  _atom_site_type_symbol
  _atom_site_label
  _atom_site_symmetry_multiplicity
  _atom_site_fract_x
  _atom_site_fract_y
  _atom_site_fract_z
  _atom_site_occupancy
  Zn  Zn1       1.0  0.9533749751502893  0.4569115960473623  0.4596403491258485  1.0000
  Zn  Zn2       1.0  0.13200906714399702  0.45486016077752833  0.4563018731684991  1.0000
  Zn  Zn3       1.0  0.9587617864853757  0.4587996961476648  0.6280718631143855  1.0000
  Zn  Zn4       1.0  0.9584982064880381  0.6308325276390008  0.4547570950845809  1.0000
  Zn  Zn5       1.0  0.5404672064570022  0.04246086806727326  0.04781905541054239  1.0000
  Zn  Zn6       1.0  0.5464622611334136  0.04451139378930682  0.8720935646602896  1.0000
  Zn  Zn7       1.0  0.3691917460734189  0.04000683782822982  0.04471287036513159  1.0000
  Zn  Zn8       1.0  0.5455344359983342  0.8686027774439466  0.04428819632379798  1.0000
  H   H1        1.0  0.06826034200219767  0.3730711760197138  0.15785538168611174  1.0000
  H   H2        1.0  0.11206142504567398  0.484695616007038  0.15062736876069488  1.0000
  H   H3        1.0  0.7078451943669393  0.6830627130707754  0.9101501793945346  1.0000
  H   H4        1.0  0.6443859543522237  0.9726437384244307  0.6319923778925371  1.0000
  H   H5        1.0  0.7434241865699034  0.972563657260352  0.6272697747317721  1.0000
  H   H6        1.0  0.7375448013798833  0.8763556243060082  0.5339300762122292  1.0000
  H   H7        1.0  0.8363610885897896  0.8782509777047528  0.5279257008243263  1.0000
  H   H8        1.0  0.3188471979046382  0.5899914711887321  0.33982406520748043  1.0000
  H   H9        1.0  0.4119935266083986  0.6870545715725314  0.24005931868256875  1.0000
  H   H10       1.0  0.1172166368593608  0.9666099299391677  0.19542667543455383  1.0000
  H   H11       1.0  0.1563171844375262  0.9372520224542173  0.1000380013453324  1.0000
  H   H12       1.0  0.439519304904195  0.12675244672460198  0.34895212091675626  1.0000
  H   H13       1.0  0.9963033956908305  0.6207670269719899  0.18682036352457485  1.0000
  H   H14       1.0  0.07263146260592629  0.8289325323214173  0.19067676482909224  1.0000
  H   H15       1.0  0.08947811288416568  0.3093341021529454  0.814647204777394  1.0000
  H   H16       1.0  0.18442949628381908  0.21719202346854882  0.9109157335441579  1.0000
  H   H17       1.0  0.3779300843220951  0.32555401982786264  0.5263145418519244  1.0000
  H   H18       1.0  0.3691731697004386  0.22792219873426228  0.53777280230819  1.0000
  H   H19       1.0  0.08851753547560294  0.2566812914349514  0.34294284194632496  1.0000
  H   H20       1.0  0.18236003180782492  0.15837318556530997  0.2500664120922949  1.0000
  H   H21       1.0  0.47141678458678615  0.2183076446752353  0.1793927798363484  1.0000
  H   H22       1.0  0.7916861149015658  0.5349248516149321  0.23758778144588888  1.0000
  H   H23       1.0  0.39253902912351896  0.01808654134942602  0.3550500954879467  1.0000
  H   H24       1.0  0.4314675078757375  0.3076617418656157  0.0922987249429212  1.0000
  H   H25       1.0  0.37700987328604196  0.31551423671228207  0.2765089122814928  1.0000
  H   H26       1.0  0.3385290518287149  0.40480757818259155  0.18857478513779566  1.0000
  H   H27       1.0  0.9074454601980833  0.39922877964311737  0.2004969296482528  1.0000
  H   H28       1.0  0.7578729404366769  0.7043275115565212  0.14184606201401806  1.0000
  H   H29       1.0  0.7451297883270412  0.79716013174631  0.3582697483290147  1.0000
  H   H30       1.0  0.7147958373121952  0.964748089340233  0.26190439635306717  1.0000
  H   H31       1.0  0.6014161683170303  0.09960194488939306  0.3021111279699368  1.0000
  H   H32       1.0  0.7762141476540378  0.03987389514048084  0.9502572684043001  1.0000
  H   H33       1.0  0.7736625859002544  0.06319251369011161  0.03466597360907289  1.0000
  H   H34       1.0  0.5059844227039392  0.8832036672749339  0.3153127141212551  1.0000
  H   H35       1.0  0.8627639096831602  0.07387366769214745  0.9302933584673809  1.0000
  H   H36       1.0  0.6476584156401375  0.43110361500939826  0.5848462603788389  1.0000
  H   H37       1.0  0.9206290674180122  0.8891384731061794  0.24406900645404048  1.0000
  H   H38       1.0  0.938452391793554  0.988790619725677  0.21570089239473583  1.0000
  H   H39       1.0  0.8729715418997586  0.9406198329195523  0.3258257467959424  1.0000
  H   H40       1.0  0.5336191148400856  0.2788857904052623  0.48264447205777816  1.0000
  H   H41       1.0  0.6076660161387083  0.18050844450208817  0.5369653686356415  1.0000
  H   H42       1.0  0.5896162229364209  0.2875830180925903  0.532844702844784  1.0000
  H   H43       1.0  0.44531900478439473  0.09095349409719235  0.6326398940037804  1.0000
  H   H44       1.0  0.8256192030663314  0.2773416717013365  0.8172381107659703  1.0000
  H   H45       1.0  0.6963112043088343  0.19092032906367262  0.6419596779916077  1.0000
  H   H46       1.0  0.6053757867531001  0.2864260695727767  0.6657604504564034  1.0000
  H   H47       1.0  0.7950769950660402  0.2846142794951946  0.5395046522148091  1.0000
  H   H48       1.0  0.8017098106968702  0.5894336153350109  0.8128723693080742  1.0000
  C   C1        1.0  0.14458628005520072  0.6311533211609088  0.366476162771569  1.0000
  C   C2        1.0  0.8166281648244293  0.6687194912511886  0.23593720254540065  1.0000
  C   C3        1.0  0.6440175049667617  0.9762148443790797  0.2828843639694226  1.0000
  C   C4        1.0  0.8584642440370162  0.36631337358745236  0.6414442729835911  1.0000
  C   C5        1.0  0.5801801094483563  0.05214698051949549  0.30535880819763156  1.0000
  C   C6        1.0  0.48957723723987095  0.06750925732529109  0.3313806508879864  1.0000
  C   C7        1.0  0.463191350187209  0.006556687295280037  0.3346490096386674  1.0000
  C   C8        1.0  0.5269730366849429  0.9309934160673669  0.3118424045319088  1.0000
  C   C9        1.0  0.6183246453331533  0.9149502005984543  0.2852050382547731  1.0000
  C   C10       1.0  0.7560202920189452  0.2939652631447275  0.6697405535608282  1.0000
  C   C11       1.0  0.8009751702895684  0.3099403945990316  0.6999945054806673  1.0000
  C   C12       1.0  0.8620377855542217  0.5244279300355006  0.21743498613616197  1.0000
  C   C13       1.0  0.7923633511731866  0.26675908735718684  0.7900486896961778  1.0000
  C   C14       1.0  0.7432599852751383  0.20908856566499884  0.8470845414894653  1.0000
  C   C15       1.0  0.6982956351781909  0.1919786011814537  0.8158163954515769  1.0000
  C   C16       1.0  0.13496184193971325  0.36266467676430386  0.3626063023106027  1.0000
  C   C17       1.0  0.7064132986946347  0.23732631165917462  0.726400180967218  1.0000
  C   C18       1.0  0.6769752058306577  0.2507267797958051  0.6559299688673478  1.0000
  C   C19       1.0  0.7363117853576214  0.3124709959566303  0.5896542843250145  1.0000
  C   C20       1.0  0.7721119142347276  0.7918922886560154  0.6568168239630835  1.0000
  C   C21       1.0  0.803451415353379  0.6994396604762727  0.6910692060390813  1.0000
  C   C22       1.0  0.7784377230258245  0.6615328967228327  0.7841352495276864  1.0000
  C   C23       1.0  0.9272410843050664  0.4478420409359814  0.19709375582818467  1.0000
  C   C24       1.0  0.7259743626609421  0.7139333862532454  0.838573767528878  1.0000
  C   C25       1.0  0.6955070230944286  0.8075655222145599  0.8033397886398886  1.0000
  C   C26       1.0  0.7197534378579461  0.8445589831654279  0.7114626570070681  1.0000
  C   C27       1.0  0.7122107090220098  0.9308084623209543  0.6344721279834217  1.0000
  C   C28       1.0  0.8613097287192133  0.6420515314120439  0.6343837039955672  1.0000
  C   C29       1.0  0.7709856006369692  0.8711859054949187  0.5726246257833623  1.0000
  C   C30       1.0  0.16557930546527183  0.777794628204049  0.2600750453958227  1.0000
  C   C31       1.0  0.1997181369292633  0.6896865519396658  0.3098745656274673  1.0000
  C   C32       1.0  0.29007549845422886  0.6584176627756336  0.3015269605743498  1.0000
  C   C33       1.0  0.3422818473773999  0.7127460284248457  0.2454096203231373  1.0000
  C   C34       1.0  0.01727617573360619  0.4330844237328721  0.17324358871547219  1.0000
  C   C35       1.0  0.3073505666696619  0.8015008595201537  0.19448122711910537  1.0000
  C   C36       1.0  0.21746516244262173  0.8324014732397914  0.20427764127134648  1.0000
  C   C37       1.0  0.14325103402018866  0.911293558501079  0.17168165072983035  1.0000
  C   C38       1.0  0.08544275167468379  0.8472628418682079  0.23094193976496766  1.0000
  C   C39       1.0  0.29145674583566716  0.2672254293213428  0.6587449097710304  1.0000
  C   C40       1.0  0.14112931441361812  0.35762528672916016  0.6366671622241212  1.0000
  C   C41       1.0  0.1988284421339585  0.3021585528222063  0.6932353716155433  1.0000
  C   C42       1.0  0.16164099143448143  0.2829508840956337  0.785705302076316  1.0000
  C   C43       1.0  0.21477842925845886  0.23160170737045876  0.8395767740709772  1.0000
  C   C44       1.0  0.3083800350070334  0.19698750306691457  0.804255051420405  1.0000
  C   C45       1.0  0.754955847035916  0.7233884038120095  0.1906994319959381  1.0000
  C   C46       1.0  0.34463523808715  0.21685678034449316  0.7125757565747222  1.0000
  C   C47       1.0  0.4309013043576969  0.2033266385519497  0.6336499840107734  1.0000
  C   C48       1.0  0.36823896873997325  0.26192684987881887  0.5732567916556093  1.0000
  C   C49       1.0  0.27938713010599514  0.29915740593842344  0.2535966421510594  1.0000
  C   C50       1.0  0.19121919689482061  0.30500695577184445  0.3061230939059385  1.0000
  C   C51       1.0  0.15743345577752874  0.25297417030745356  0.3031176836236327  1.0000
  C   C52       1.0  0.8663532918840743  0.6405134905006522  0.3570224949832976  1.0000
  C   C53       1.0  0.2099014288517367  0.19817993576639753  0.2508962971801907  1.0000
  C   C54       1.0  0.2992525111208053  0.19243865489075065  0.19817584161648935  1.0000
  C   C55       1.0  0.33177428559774574  0.24466920725741664  0.20083836480562667  1.0000
  C   C56       1.0  0.6914078970811276  0.8042112373380378  0.20303221951163408  1.0000
  C   C57       1.0  0.41186136717618627  0.27204904414251985  0.1637644019523279  1.0000
  C   C58       1.0  0.3529595030389033  0.3331679986560445  0.22406764898766338  1.0000
  C   C59       1.0  0.640876083286649  0.8627321687149778  0.8621520782917783  1.0000
  C   C60       1.0  0.3560384839321457  0.13377302710954111  0.14278584744590717  1.0000
  C   C61       1.0  0.6412904809487119  0.13526019508451967  0.8711745381303401  1.0000
  C   C62       1.0  0.36396861147215276  0.8585221236954936  0.1351502026069085  1.0000
  C   C63       1.0  0.3637455070404981  0.1413808716410261  0.8632801090162586  1.0000
  C   C64       1.0  0.0418140509459093  0.4956347876188619  0.16956601852393757  1.0000
  C   C65       1.0  0.6353620600117367  0.8604244363986737  0.14420027694791318  1.0000
  C   C66       1.0  0.9767565586354792  0.5719173187179011  0.19022332463789837  1.0000
  C   C67       1.0  0.6866626704902784  0.8331197436354079  0.2637767254462347  1.0000
  C   C68       1.0  0.8859369013430367  0.5870503550974321  0.21500314555331093  1.0000
  C   C69       1.0  0.7912461464932505  0.08218003189389117  0.9631190244910286  1.0000
  C   C70       1.0  0.9311509989659541  0.9257973411088333  0.2686195442327914  1.0000
  C   C71       1.0  0.5584966610645736  0.2467140936899241  0.5386016107813559  1.0000
  C   C72       1.0  0.7481601683840396  0.7782814717860663  0.3092077964784962  1.0000
  C   C73       1.0  0.8113796359990529  0.6972952055552782  0.29712569604275524  1.0000
  O   O1        1.0  0.001295054911018705  0.5003935509385614  0.4989024580557241  1.0000
  O   O2        1.0  0.3236149627600895  0.9412789170309993  0.10257898638371898  1.0000
  O   O3        1.0  0.4476452830555501  0.11567654742459874  0.8249844905793963  1.0000
  O   O4        1.0  0.062188969091110366  0.6691294162043065  0.3743565967739713  1.0000
  O   O5        1.0  0.6164599410781337  0.8194115866674565  0.12049263501636177  1.0000
  O   O6        1.0  0.3222408466767277  0.12414429858472428  0.9464865522275473  1.0000
  O   O7        1.0  0.6137378107666435  0.9442373718600265  0.12050780434437057  1.0000
  O   O8        1.0  0.62004366807313  0.1092715534335583  0.9548369057816116  1.0000
  O   O9        1.0  0.44754725311520355  0.8204244794710436  0.12203375928748979  1.0000
  O   O10       1.0  0.622555702407027  0.9464983202506122  0.8238276751244056  1.0000
  O   O11       1.0  0.31855597232895855  0.09849338356174543  0.1326641387725545  1.0000
  O   O12       1.0  0.0522626330580138  0.37207609760643834  0.39919721065269437  1.0000
  O   O13       1.0  0.8725609295422389  0.3932264680805631  0.5588185508907626  1.0000
  O   O14       1.0  0.17497316069024293  0.39788197468843833  0.36963746436369144  1.0000
  O   O15       1.0  0.8821963066585635  0.55829124343029  0.6738430389393102  1.0000
  O   O16       1.0  0.18016028282745108  0.36856477962108153  0.5540107822890549  1.0000
  O   O17       1.0  0.8876986743800545  0.6815594799941848  0.3783559332616591  1.0000
  O   O18       1.0  0.05779212050492082  0.38972121797077347  0.6754038310457275  1.0000
  O   O19       1.0  0.8841918642632222  0.5570824899146277  0.3838958473014387  1.0000
  O   O20       1.0  0.7386340614303603  0.17410969219621822  0.9339574662992334  1.0000
  O   O21       1.0  0.6946449973302576  0.400930687372174  0.5422743161482728  1.0000
  O   O22       1.0  0.006229830145400705  0.8730274608235794  0.2983617820143961  1.0000
  O   O23       1.0  0.885591441580452  0.6815840680740237  0.550789783935393  1.0000
  O   O24       1.0  0.48688700225631715  0.24123297894398385  0.6213784552424214  1.0000
  O   O25       1.0  0.4822461030322245  0.1148874846095752  0.6321477028360503  1.0000
  O   O26       1.0  0.18382265615417734  0.5485579165473737  0.40099696490582903  1.0000
  O   O27       1.0  0.8893736742866808  0.38170542657075396  0.6789193879356077  1.0000
  O   O28       1.0  0.49982378176424197  0.9986266626425294  0.0020618382268083007  1.0000
  O   O29       1.0  0.6171753791948759  0.8220219952988188  0.9454851819716196  1.0000
  O   O30       1.0  0.438862188797934  0.12397523696212433  0.1096734304059765  1.0000
  O   O31       1.0  0.6170376549843795  0.11839449955195404  0.8287711147741418  1.0000
