data_image0
_chemical_formula_structural       Cu2H8C10N14Cl2
_chemical_formula_sum              "Cu2 H8 C10 N14 Cl2"
_cell_length_a       5.717076500993032
_cell_length_b       8.357501562706389
_cell_length_c       9.961158710083263
_cell_angle_alpha    81.45444289649753
_cell_angle_beta     75.87741153710486
_cell_angle_gamma    88.351692523374

_space_group_name_H-M_alt    "P 1"
_space_group_IT_number       1

loop_
  _space_group_symop_operation_xyz
  'x, y, z'

loop_
  _atom_site_type_symbol
  _atom_site_label
  _atom_site_symmetry_multiplicity
  _atom_site_fract_x
  _atom_site_fract_y
  _atom_site_fract_z
  _atom_site_occupancy
  Cu  Cu1       1.0  0.21405510152393256  0.029250817369451496  0.0684710038469731  1.0000
  Cu  Cu2       1.0  0.7859572460820062  0.9707501320402087  0.9315308397865537  1.0000
  H   H1        1.0  0.9406727370987723  0.2800546554229015  0.5102934501356629  1.0000
  H   H2        1.0  0.059291291427747715  0.7199656827938624  0.48969556354003896  1.0000
  H   H3        1.0  0.28885430773235043  0.47762877121004266  0.458715340539932  1.0000
  H   H4        1.0  0.7111149828700505  0.5223866767541239  0.5412815751903893  1.0000
  H   H5        1.0  0.601620241480525  0.4862148063567912  0.23118846719291508  1.0000
  H   H6        1.0  0.39838302424808353  0.5137872956210857  0.7688194902085428  1.0000
  H   H7        1.0  0.5530400572312716  0.2981865537317319  0.06514864102132384  1.0000
  H   H8        1.0  0.4469737939892229  0.7018021840963015  0.934869516483907  1.0000
  C   C1        1.0  0.07426490904629192  0.1881197546495272  0.3160778394269316  1.0000
  C   C2        1.0  0.9257313449406581  0.811890879140293  0.6839200103659167  1.0000
  C   C3        1.0  0.08193057380331942  0.2895456426739216  0.4139290748596167  1.0000
  C   C4        1.0  0.9180494930347791  0.7104673925485656  0.5860686754874536  1.0000
  C   C5        1.0  0.2740145470327633  0.39796072058108933  0.3841022038092916  1.0000
  C   C6        1.0  0.7259763044223321  0.6020511118690237  0.6158962355022412  1.0000
  C   C7        1.0  0.44785204143423846  0.40372991672015257  0.2578501565061728  1.0000
  C   C8        1.0  0.5521530795554243  0.5962734221283412  0.7421543897048438  1.0000
  C   C9        1.0  0.4245257158491924  0.29959661420171807  0.16554134589004832  1.0000
  C   C10       1.0  0.5754918938326342  0.7003994449553446  0.834468399798098  1.0000
  N   N1        1.0  0.538726370760216  0.12104131612314721  0.8778011144042638  1.0000
  N   N2        1.0  0.46130027051108885  0.8789463306498675  0.12220339142967872  1.0000
  N   N3        1.0  0.5331854580163055  0.16956465888976172  0.758074698344096  1.0000
  N   N4        1.0  0.4668321399224738  0.8304193391269764  0.24193146973166083  1.0000
  N   N5        1.0  0.5201803584764876  0.22000186515308684  0.6444047299331717  1.0000
  N   N6        1.0  0.4798137968691521  0.7799869083140438  0.3556060549284012  1.0000
  N   N7        1.0  0.0345026624569087  0.8475965608633657  0.018346100337453257  1.0000
  N   N8        1.0  0.9654845015937639  0.1523995498675106  0.9816527089136928  1.0000
  N   N9        1.0  0.014168736156889803  0.7093237707231451  0.07897146002871124  1.0000
  N   N10       1.0  0.9858240406030279  0.2906724592644352  0.9210125184727077  1.0000
  N   N11       1.0  0.9998623587338358  0.5768605304035007  0.1355286350031122  1.0000
  N   N12       1.0  0.0001628429339959009  0.42312369087674284  0.8644493685142153  1.0000
  N   N13       1.0  0.24106799235129733  0.1920083981340923  0.19465576815375846  1.0000
  N   N14       1.0  0.7589478904600501  0.807992520262168  0.8053506195010556  1.0000
  Cl  Cl1       1.0  0.8472796393147064  0.046246348952038795  0.34929132638391286  1.0000
  Cl  Cl2       1.0  0.15271478957468795  0.9537570366733659  0.6507056287255467  1.0000
