data_image0
_chemical_formula_structural       H44Pb2C54N8O8
_chemical_formula_sum              "H44 Pb2 C54 N8 O8"
_cell_length_a       9.216392527095886
_cell_length_b       10.26602905050036
_cell_length_c       12.93438221921
_cell_angle_alpha    100.09847633495689
_cell_angle_beta     90.64431603455637
_cell_angle_gamma    98.88323203891838

_space_group_name_H-M_alt    "P 1"
_space_group_IT_number       1

loop_
  _space_group_symop_operation_xyz
  'x, y, z'

loop_
  _atom_site_type_symbol
  _atom_site_label
  _atom_site_symmetry_multiplicity
  _atom_site_fract_x
  _atom_site_fract_y
  _atom_site_fract_z
  _atom_site_occupancy
  H   H1        1.0  0.059249546867405925  0.8663784883661665  0.17818205841437165  1.0000
  H   H2        1.0  0.9407507541923293  0.13362302207811894  0.8218171672125224  1.0000
  H   H3        1.0  0.9678644836321978  0.7692065490897733  0.33399370475285656  1.0000
  H   H4        1.0  0.03213473157651951  0.23079496292123042  0.6660062847875281  1.0000
  H   H5        1.0  0.8420567062382815  0.6471265773867998  0.2509137526813348  1.0000
  H   H6        1.0  0.1579417637272655  0.35287694042733625  0.7490872738805622  1.0000
  H   H7        1.0  0.7236559557798117  0.8489139492255479  0.33249073334423684  1.0000
  H   H8        1.0  0.2763445155071196  0.15108856887227526  0.6675094027274187  1.0000
  H   H9        1.0  0.8587257463391467  0.9525305847512445  0.2785224394421705  1.0000
  H   H10       1.0  0.141273639173491  0.04747192937797  0.7214776866522216  1.0000
  H   H11       1.0  0.6374793262194131  0.9146747304765983  0.16772896716784663  1.0000
  H   H12       1.0  0.362518803138272  0.0853267831011166  0.8322717862860215  1.0000
  H   H13       1.0  0.7277835673774505  0.8060241035914828  0.9945367463816412  1.0000
  H   H14       1.0  0.2722145619802419  0.1939774099862319  0.005464007072227193  1.0000
  H   H15       1.0  0.857147054936668  0.9336522996892712  0.07001988749727418  1.0000
  H   H16       1.0  0.1428523304225138  0.06635022551059681  0.929981786378619  1.0000
  H   H17       1.0  0.9823869323925082  0.742831803220689  0.9982857879335543  1.0000
  H   H18       1.0  0.017611197041915702  0.25716970482169904  0.0017141916295671056  1.0000
  H   H19       1.0  0.8520460190331675  0.6302624538388173  0.05158631731540452  1.0000
  H   H20       1.0  0.1479519400205973  0.3697380576206797  0.9484142995844425  1.0000
  H   H21       1.0  0.16925832994501627  0.5399163059505837  0.3821432892420447  1.0000
  H   H22       1.0  0.8307450582103968  0.4600842087460038  0.6178550558718641  1.0000
  H   H23       1.0  0.150931111531321  0.47937193916106235  0.5632083260675458  1.0000
  H   H24       1.0  0.8490699347715776  0.5206275654800834  0.43678986253782887  1.0000
  H   H25       1.0  0.3304118562290982  0.34342432492049824  0.6195143213515308  1.0000
  H   H26       1.0  0.6695913613921932  0.6565752042638524  0.38048620888062606  1.0000
  H   H27       1.0  0.6467609444569717  0.3738091032162886  0.05871915995297171  1.0000
  H   H28       1.0  0.35324695686934865  0.6261924460789531  0.9412816832962605  1.0000
  H   H29       1.0  0.8234570206951588  0.22322320167165796  0.08473617396140301  1.0000
  H   H30       1.0  0.1765501354647299  0.7767803478913891  0.9152649324185944  1.0000
  H   H31       1.0  0.8256003819095881  0.1362114633460507  0.2571590119878309  1.0000
  H   H32       1.0  0.1744040918666555  0.8637890663898061  0.7428408908848497  1.0000
  H   H33       1.0  0.8831959653819297  0.9581885793628616  0.5136843616711602  1.0000
  H   H34       1.0  0.11680199367182811  0.041811932096635494  0.48631625522869387  1.0000
  H   H35       1.0  0.975871144883456  0.8157332943903698  0.6273663048052571  1.0000
  H   H36       1.0  0.024125153533511  0.1842702154865421  0.372634701802113  1.0000
  H   H37       1.0  0.8703385525763563  0.8048462366067356  0.8039333276683394  1.0000
  H   H38       1.0  0.1296617483299229  0.1951552849082034  0.1960674457400557  1.0000
  H   H39       1.0  0.6714791184672748  0.9372888767481982  0.8632218220565236  1.0000
  H   H40       1.0  0.32851758481518806  0.0627106064831651  0.13677555274905023  1.0000
  H   H41       1.0  0.5823185678718302  0.08065193463828282  0.7503186388846501  1.0000
  H   H42       1.0  0.41767888042360113  0.9193455593959217  0.24968002057165253  1.0000
  H   H43       1.0  0.525049721981368  0.21506272318421082  0.6511484822419009  1.0000
  H   H44       1.0  0.4749477264675264  0.7849347597793398  0.3488486294329007  1.0000
  Pb  Pb1       1.0  0.3354917437356874  0.4883481002256929  0.1483762962239439  1.0000
  Pb  Pb2       1.0  0.664505874786947  0.511650401462056  0.8516232736771272  1.0000
  C   C1        1.0  0.12374217195284834  0.6768177500582269  0.1622839161481835  1.0000
  C   C2        1.0  0.8762568726450085  0.3231827819758665  0.8377190324011891  1.0000
  C   C3        1.0  0.0014828486636275743  0.7621022187784592  0.1677222306714796  1.0000
  C   C4        1.0  0.9985194536407677  0.23789829748483984  0.8322768783559199  1.0000
  C   C5        1.0  0.9015047395495656  0.7506957361037863  0.2602870302562152  1.0000
  C   C6        1.0  0.0984933898081266  0.24930577747392862  0.7397137231976529  1.0000
  C   C7        1.0  0.7944404175369116  0.8511627690774121  0.26502703251571097  1.0000
  C   C8        1.0  0.2055580522751725  0.14884075980738493  0.7349755418276871  1.0000
  C   C9        1.0  0.700814703712183  0.8307946358343372  0.16257289039369743  1.0000
  C   C10       1.0  0.29918233994794724  0.16920686823943504  0.8374270791921605  1.0000
  C   C11       1.0  0.5838341164223592  0.7059365632597833  0.15092844648660994  1.0000
  C   C12       1.0  0.41616275639672295  0.29406397744306645  0.8490768037804841  1.0000
  C   C13       1.0  0.797824176867323  0.8310971318781316  0.06694170096833575  1.0000
  C   C14       1.0  0.20217395249036943  0.16890438169958347  0.9330590524855253  1.0000
  C   C15       1.0  0.9094884709893591  0.734614234391735  0.06423299988337308  1.0000
  C   C16       1.0  0.09051074421935111  0.26538727761926145  0.9357669896570046  1.0000
  C   C17       1.0  0.24359209588001818  0.47930333469367525  0.4100453761349955  1.0000
  C   C18       1.0  0.7564051821114859  0.5206931572223185  0.589953146767293  1.0000
  C   C19       1.0  0.2339959698189205  0.44491924672058053  0.5104148388796261  1.0000
  C   C20       1.0  0.766012740547815  0.5550742991015057  0.48958570578276567  1.0000
  C   C21       1.0  0.33243342438815654  0.36895765793426705  0.5412605188487021  1.0000
  C   C22       1.0  0.6675619588653702  0.6310468279509323  0.45873751877241636  1.0000
  C   C23       1.0  0.4381276533345683  0.32562640687830685  0.47083752477273333  1.0000
  C   C24       1.0  0.5618727116758819  0.674369094825316  0.5291608915073311  1.0000
  C   C25       1.0  0.44181751281478643  0.3660451984234428  0.37056519614480277  1.0000
  C   C26       1.0  0.5581819371089622  0.6339512737531408  0.6294294772582562  1.0000
  C   C27       1.0  0.5506976226206319  0.32623617737691296  0.2953772211869676  1.0000
  C   C28       1.0  0.44930267851583483  0.6737653275320454  0.7046212305491723  1.0000
  C   C29       1.0  0.6496157037069779  0.33540150497442067  0.13180633740566355  1.0000
  C   C30       1.0  0.35038585366117286  0.6646009949507105  0.868190713080253  1.0000
  C   C31       1.0  0.7497206789042038  0.2497716502695155  0.1473879827957703  1.0000
  C   C32       1.0  0.2502843691206991  0.750225921362933  0.8526177115181355  1.0000
  C   C33       1.0  0.7501210323594023  0.20267115934659333  0.24110956151769616  1.0000
  C   C34       1.0  0.24988069508248867  0.797332359302736  0.7588899471944899  1.0000
  C   C35       1.0  0.6502219975451169  0.24073157945786516  0.3181307993420006  1.0000
  C   C36       1.0  0.3497823060806625  0.7592679370891207  0.6818674191951573  1.0000
  C   C37       1.0  0.6425816145339596  0.19883058603511478  0.41780947775777844  1.0000
  C   C38       1.0  0.3574194318456705  0.8011689130707043  0.5821879369568493  1.0000
  C   C39       1.0  0.5419889050392968  0.24307455753669427  0.49130070130625114  1.0000
  C   C40       1.0  0.458011629661236  0.7569219905677614  0.5087040426538395  1.0000
  C   C41       1.0  0.6758713731135799  0.1107483074953066  0.5537651409601524  1.0000
  C   C42       1.0  0.3241244778819237  0.8892462204982579  0.44623928998285584  1.0000
  C   C43       1.0  0.7276847795675253  0.0294780794212812  0.6239771220616463  1.0000
  C   C44       1.0  0.27231300956596277  0.9705214022433711  0.3760194888304299  1.0000
  C   C45       1.0  0.8388518473084403  0.9536581630070062  0.5909056497562306  1.0000
  C   C46       1.0  0.1611441743746482  0.046337339428141895  0.4090950482870355  1.0000
  C   C47       1.0  0.8898366101546458  0.8736580255016976  0.6551575328026971  1.0000
  C   C48       1.0  0.1101610085214517  0.1263404651153905  0.3448404893168728  1.0000
  C   C49       1.0  0.8302291882860686  0.8674469429951513  0.7534975292693531  1.0000
  C   C50       1.0  0.1697667696764995  0.1325545515746853  0.24650165644848707  1.0000
  C   C51       1.0  0.7186024577838027  0.9414367843199045  0.7866612451797439  1.0000
  C   C52       1.0  0.2813922437936256  0.05856372630440631  0.213340889569821  1.0000
  C   C53       1.0  0.6677020945312931  0.0220523341538268  0.7226426273332721  1.0000
  C   C54       1.0  0.3322966095354403  0.9779461881085184  0.2773592742173108  1.0000
  N   N1        1.0  0.553838353459085  0.37201831379581324  0.20328388119912694  1.0000
  N   N2        1.0  0.44616577963257237  0.6279802172389353  0.7967165224562722  1.0000
  N   N3        1.0  0.34474603096090567  0.4418453759491357  0.34290504865582966  1.0000
  N   N4        1.0  0.6552532483519825  0.5581501162505447  0.6570925837562244  1.0000
  N   N5        1.0  0.7247336250244344  0.11686340171196723  0.45732893986622974  1.0000
  N   N6        1.0  0.2752695929037828  0.8831361053310759  0.5426684948029178  1.0000
  N   N7        1.0  0.5651528916836241  0.18612341221025022  0.5771754106278664  1.0000
  N   N8        1.0  0.4348368922410515  0.8138800627843209  0.42282398833442164  1.0000
  O   O1        1.0  0.1403996575443784  0.6124683396113539  0.236828201115209  1.0000
  O   O2        1.0  0.8596040710654336  0.3875341903923086  0.7631719648882369  1.0000
  O   O3        1.0  0.20635976667332298  0.6744729457316367  0.08396004684933442  1.0000
  O   O4        1.0  0.793641620160706  0.3255285686812642  0.916039188754823  1.0000
  O   O5        1.0  0.5609800337952892  0.6239861861346228  0.0654688207690555  1.0000
  O   O6        1.0  0.4390179891324593  0.3760083221195387  0.9345317606747231  1.0000
  O   O7        1.0  0.5054222846303489  0.6883569083773936  0.23121204263600253  1.0000
  O   O8        1.0  0.4945762493626447  0.3116405951607534  0.7687874006883249  1.0000
