data_image0
_chemical_formula_structural       Cd2H16C16I4N8O4
_chemical_formula_sum              "Cd2 H16 C16 I4 N8 O4"
_cell_length_a       4.102545616502678
_cell_length_b       7.709388187178372
_cell_length_c       21.57454265499801
_cell_angle_alpha    90.00061686986136
_cell_angle_beta     90.22037894890482
_cell_angle_gamma    90.00038554981232

_space_group_name_H-M_alt    "P 1"
_space_group_IT_number       1

loop_
  _space_group_symop_operation_xyz
  'x, y, z'

loop_
  _atom_site_type_symbol
  _atom_site_label
  _atom_site_symmetry_multiplicity
  _atom_site_fract_x
  _atom_site_fract_y
  _atom_site_fract_z
  _atom_site_occupancy
  Cd  Cd1       1.0  0.4999889687981635  0.49999506773909275  0.4999990718314891  1.0000
  Cd  Cd2       1.0  0.4999927847252793  0.9999930385796107  2.218386740100985e-06  1.0000
  H   H1        1.0  0.723529808147248  0.5528591788345594  0.6456799114354298  1.0000
  H   H2        1.0  0.27648572125467297  0.052870300088052616  0.8543256391036138  1.0000
  H   H3        1.0  0.276485024191544  0.4471387393487874  0.3543146719356756  1.0000
  H   H4        1.0  0.723530789597355  0.9471354009493568  0.1456772954433774  1.0000
  H   H5        1.0  0.3617543456355037  0.10576356816949332  0.561602967043676  1.0000
  H   H6        1.0  0.6382049021653913  0.6057512179572343  0.9383881746214797  1.0000
  H   H7        1.0  0.6382329612600728  0.8942265673869019  0.4383993864924562  1.0000
  H   H8        1.0  0.3617753040247535  0.39424280891274327  0.061611832482782306  1.0000
  H   H9        1.0  0.9149226444062891  0.39482613723568266  0.7285900820843665  1.0000
  H   H10       1.0  0.08505767518062866  0.8948538538938495  0.7714123722907332  1.0000
  H   H11       1.0  0.0850969358529383  0.6051769694549026  0.271405911119068  1.0000
  H   H12       1.0  0.9149517350213684  0.1051622240561088  0.22858821583616873  1.0000
  H   H13       1.0  0.5311461462147662  0.9271533544759124  0.6524607136824656  1.0000
  H   H14       1.0  0.46878968393295395  0.42716341272339525  0.8475277695496573  1.0000
  H   H15       1.0  0.46884834578795426  0.07284456383032283  0.3475430594884942  1.0000
  H   H16       1.0  0.5311809422694793  0.5728383968238833  0.1524703447411184  1.0000
  C   C1        1.0  0.6756437256961618  0.4137235740547356  0.6460443754380735  1.0000
  C   C2        1.0  0.32436128823646737  0.9137324368028886  0.8539582454624295  1.0000
  C   C3        1.0  0.32436845871207254  0.5862730470425535  0.3539525151784346  1.0000
  C   C4        1.0  0.6756504747283714  0.08627196708664543  0.1460432792593025  1.0000
  C   C5        1.0  0.48175329802274536  0.16461207987239854  0.6017043016169482  1.0000
  C   C6        1.0  0.5182214517771796  0.6646046533264569  0.898288502641478  1.0000
  C   C7        1.0  0.5182439683413378  0.8353845412582576  0.3982957740765727  1.0000
  C   C8        1.0  0.4817661080686548  0.33539067066500655  0.10171107044941151  1.0000
  C   C9        1.0  0.5751278434629867  0.0663483792588337  0.6516100953685111  1.0000
  C   C10       1.0  0.4248213196193048  0.5663521111246155  0.8483771568180318  1.0000
  C   C11       1.0  0.4248741708104475  0.9336521332592725  0.3483913901549869  1.0000
  C   C12       1.0  0.5751712410528924  0.4336484013299896  0.151621045650522  1.0000
  C   C13       1.0  0.7443168667680453  0.14579668143188235  0.7025705983943382  1.0000
  C   C14       1.0  0.2556325157773145  0.6458204404481765  0.797429454204547  1.0000
  C   C15       1.0  0.2556925433120655  0.8542051282003627  0.29742998970667145  1.0000
  C   C16       1.0  0.74436239781285  0.3541865576231091  0.20256968489179172  1.0000
  I   I1        1.0  0.9834290054222806  0.254094705709015  0.453573280458258  1.0000
  I   I2        1.0  0.0165459833183661  0.7540956200290696  0.04642849778481661  1.0000
  I   I3        1.0  0.01655368003907399  0.7458941326774637  0.5464262730252757  1.0000
  I   I4        1.0  0.9834485507245319  0.24588932707190037  0.9535748119534946  1.0000
  N   N1        1.0  0.5302822339010405  0.3402939873709557  0.5983231998659378  1.0000
  N   N2        1.0  0.4697050975325823  0.8402943378036485  0.9016721348107238  1.0000
  N   N3        1.0  0.46972490751875273  0.659696148150744  0.4016755247796553  1.0000
  N   N4        1.0  0.5302920423896181  0.15970358046885022  0.0983293311124811  1.0000
  N   N5        1.0  0.781297600123743  0.32507932586100463  0.6958029938768462  1.0000
  N   N6        1.0  0.2186796807160647  0.8250980257890392  0.804192709834723  1.0000
  N   N7        1.0  0.218721895811349  0.6749211866046992  0.3041939261401012  1.0000
  N   N8        1.0  0.781329729419447  0.17491026944216514  0.19580787827806032  1.0000
  O   O1        1.0  0.8567209829255162  0.07286571022978452  0.7498192163841181  1.0000
  O   O2        1.0  0.1431645881860248  0.5728889937192748  0.7501715120205573  1.0000
  O   O3        1.0  0.1432860321632035  0.9271386936316762  0.25018089851469233  1.0000
  O   O4        1.0  0.856827930479227  0.4271283812999799  0.24982715388770774  1.0000
