data_image0
_chemical_formula_structural       Hg4H32C36N8Cl8
_chemical_formula_sum              "Hg4 H32 C36 N8 Cl8"
_cell_length_a       3.899178752528033
_cell_length_b       10.604753404816417
_cell_length_c       25.936362858174693
_cell_angle_alpha    90.00040744490629
_cell_angle_beta     90.00004417523442
_cell_angle_gamma    98.48678036097948

_space_group_name_H-M_alt    "P 1"
_space_group_IT_number       1

loop_
  _space_group_symop_operation_xyz
  'x, y, z'

loop_
  _atom_site_type_symbol
  _atom_site_label
  _atom_site_symmetry_multiplicity
  _atom_site_fract_x
  _atom_site_fract_y
  _atom_site_fract_z
  _atom_site_occupancy
  Hg  Hg1       1.0  0.3699564841033902  0.5788297219378576  0.4270287425539437  1.0000
  Hg  Hg2       1.0  0.13003947814250677  0.9211712311023064  0.9270268660064291  1.0000
  Hg  Hg3       1.0  0.6300755685453935  0.4211695795119467  0.5729730412354288  1.0000
  Hg  Hg4       1.0  0.8699522826157493  0.0788299459092983  0.07297029107513  1.0000
  H   H1        1.0  0.9600775880310196  0.7105906530478877  0.23423400211855497  1.0000
  H   H2        1.0  0.5398862133308172  0.7894039336608715  0.7342386716243967  1.0000
  H   H3        1.0  0.03989908102356308  0.2894047937433868  0.7657635405130423  1.0000
  H   H4        1.0  0.4600761955563685  0.21059436172647147  0.2657665821922208  1.0000
  H   H5        1.0  0.1864789562629879  0.8704235283884358  0.23018853260509087  1.0000
  H   H6        1.0  0.31347385339213213  0.629562415583834  0.7301912141345712  1.0000
  H   H7        1.0  0.8135013339042562  0.12956810867044058  0.7698101666982853  1.0000
  H   H8        1.0  0.6864837254518578  0.3704301573602251  0.2698113407599508  1.0000
  H   H9        1.0  0.764740632141006  0.8341907063873749  0.20500841191126545  1.0000
  H   H10       1.0  0.7352417808199194  0.6657995565205256  0.7050084942113416  1.0000
  H   H11       1.0  0.23525874826070486  0.16580380454992397  0.7949887451608364  1.0000
  H   H12       1.0  0.26473164457725323  0.3342006534421956  0.2949909762224651  1.0000
  H   H13       1.0  0.6322880388623632  0.6448166415259493  0.3101396775458696  1.0000
  H   H14       1.0  0.867701328452924  0.8551764698525803  0.8101403263739615  1.0000
  H   H15       1.0  0.36772492352544367  0.35517978601075123  0.6898597928840502  1.0000
  H   H16       1.0  0.13226802179298863  0.1448199245206752  0.18985991517222092  1.0000
  H   H17       1.0  0.2217819834430727  0.8460256994247715  0.45137178570905706  1.0000
  H   H18       1.0  0.2781979420857041  0.6539861634695684  0.9513749214186621  1.0000
  H   H19       1.0  0.7782518797501083  0.15397169714322703  0.5486288414003797  1.0000
  H   H20       1.0  0.7217873313603821  0.34602453988838994  0.04862647682638511  1.0000
  H   H21       1.0  0.23578591988415104  0.0740307267582452  0.4762542512382027  1.0000
  H   H22       1.0  0.26421473914041377  0.42598366971842705  0.9762577978993364  1.0000
  H   H23       1.0  0.7642486981717979  0.9259685766254081  0.5237456047559235  1.0000
  H   H24       1.0  0.7357793628849548  0.5740298997478348  0.0237459137047225  1.0000
  H   H25       1.0  0.5346367686873422  0.2466157490767031  0.420929874491307  1.0000
  H   H26       1.0  0.9653955678352663  0.2533957541388787  0.9209340886062733  1.0000
  H   H27       1.0  0.46537151689555867  0.7533882998760008  0.5790672825951618  1.0000
  H   H28       1.0  0.03464795542573986  0.7466130872913938  0.0790692374338562  1.0000
  H   H29       1.0  0.8131340275088804  0.19498259056445016  0.3388851532818506  1.0000
  H   H30       1.0  0.6868842001582467  0.305014083183984  0.83888988092928  1.0000
  H   H31       1.0  0.1868526023899759  0.805018582520482  0.6611093048859831  1.0000
  H   H32       1.0  0.31314558789163277  0.6949794978049442  0.16111267396975396  1.0000
  C   C1        1.0  0.789281744916252  0.8439205442133826  0.2876364352988433  1.0000
  C   C2        1.0  0.7107077669502219  0.6560797877448935  0.7876414992824436  1.0000
  C   C3        1.0  0.21070013158904294  0.15608157839778874  0.7123599506655438  1.0000
  C   C4        1.0  0.2892810509907022  0.3439204339527606  0.21236105562459784  1.0000
  C   C5        1.0  0.9339928194135397  0.811932738447524  0.23668938979694334  1.0000
  C   C6        1.0  0.5659999136240828  0.6880571488233044  0.7366980054337802  1.0000
  C   C7        1.0  0.0659937338727943  0.188061762716444  0.7633058394792517  1.0000
  C   C8        1.0  0.43398407431872954  0.3119373504900267  0.2633084050553975  1.0000
  C   C9        1.0  0.636409202464499  0.7445119031526204  0.3210449767065456  1.0000
  C   C10       1.0  0.8635726185946808  0.7554813985463865  0.8210461039280973  1.0000
  C   C11       1.0  0.36359093281323135  0.25548451461768457  0.6789533370456056  1.0000
  C   C12       1.0  0.13640442790984514  0.24451500167699441  0.17895375205934982  1.0000
  C   C13       1.0  0.5039962122647382  0.8919849039345993  0.3803295214458729  1.0000
  C   C14       1.0  0.9959964617495135  0.6080218624731373  0.8803329262443996  1.0000
  C   C15       1.0  0.4960039996255078  0.1080181857566771  0.6196680211979173  1.0000
  C   C16       1.0  0.004001184744176031  0.3919812252981387  0.11966808643093431  1.0000
  C   C17       1.0  0.3496071717386401  0.9228739839075148  0.4270812966648521  1.0000
  C   C18       1.0  0.1503971658089753  0.5771222109143467  0.9270892084924116  1.0000
  C   C19       1.0  0.6504145425735077  0.07711863776103202  0.5729150892872781  1.0000
  C   C20       1.0  0.8496117980772057  0.42287707300241106  0.07291565976854031  1.0000
  C   C21       1.0  0.357917337663281  0.049012286067764414  0.4406601772614281  1.0000
  C   C22       1.0  0.14208984976998099  0.4510062410746301  0.9406626303488823  1.0000
  C   C23       1.0  0.642096833647102  0.9509936736342084  0.5593396787415943  1.0000
  C   C24       1.0  0.857926586163174  0.5490054391194192  0.059339924576129015  1.0000
  C   C25       1.0  0.5262320289470566  0.1478064847156304  0.4089504088744533  1.0000
  C   C26       1.0  0.9738026316376461  0.3521981330785451  0.90895992573401  1.0000
  C   C27       1.0  0.4737791228539193  0.85219184764739  0.5910440492902397  1.0000
  C   C28       1.0  0.026239381903138827  0.6478068947273317  0.09104571365489991  1.0000
  C   C29       1.0  0.6789986054605849  0.119977615488601  0.3632797457130722  1.0000
  C   C30       1.0  0.8210061515595017  0.3800299709148263  0.8632808490382189  1.0000
  C   C31       1.0  0.3209865913491113  0.8800264159171787  0.6367189536086855  1.0000
  C   C32       1.0  0.17902046942692348  0.6199750451422404  0.1367201636411579  1.0000
  C   C33       1.0  0.665764646748471  0.991793000575001  0.3471866311988735  1.0000
  C   C34       1.0  0.8342278721903968  0.5082074511092358  0.8471881874335736  1.0000
  C   C35       1.0  0.3342289245700912  0.0082062715756024  0.6528116825571858  1.0000
  C   C36       1.0  0.16577709312522873  0.491794689097411  0.15281205412253482  1.0000
  N   N1        1.0  0.8071370152012349  0.9654490069637093  0.3010833724565388  1.0000
  N   N2        1.0  0.6928430215675405  0.5345401220329293  0.8010869218354204  1.0000
  N   N3        1.0  0.19283708841436462  0.03454643785209299  0.6989114712614396  1.0000
  N   N4        1.0  0.30715303856953824  0.4654524801617797  0.1989137052653973  1.0000
  N   N5        1.0  0.500752883388145  0.767822627869215  0.3660960405334067  1.0000
  N   N6        1.0  0.9992197496815863  0.7321791017188417  0.8660920985478742  1.0000
  N   N7        1.0  0.4992520819407388  0.23217951235476866  0.6339061288180545  1.0000
  N   N8        1.0  0.0007591839745586856  0.2678220655367697  0.13390505853313073  1.0000
  Cl  Cl1       1.0  0.7884689889372963  0.6570179162176542  0.49230171238087206  1.0000
  Cl  Cl2       1.0  0.7115382765171105  0.8429784836687023  0.9923003844969575  1.0000
  Cl  Cl3       1.0  0.2115571780052221  0.34297947451062066  0.5077004569645212  1.0000
  Cl  Cl4       1.0  0.28846185875531927  0.15701793409466802  0.007697158137048602  1.0000
  Cl  Cl5       1.0  0.9326883412457009  0.4639149041444454  0.3725776321869248  1.0000
  Cl  Cl6       1.0  0.5673153347314113  0.0360833173323698  0.8725765488078494  1.0000
  Cl  Cl7       1.0  0.06734333396904892  0.5360834438940502  0.6274241516010336  1.0000
  Cl  Cl8       1.0  0.43268193431233454  0.9639188170068065  0.12742215051163444  1.0000
