data_image0
_chemical_formula_structural       Sm2H30C44S4N4O16
_chemical_formula_sum              "Sm2 H30 C44 S4 N4 O16"
_cell_length_a       8.85315697794243
_cell_length_b       11.851205163374011
_cell_length_c       12.67740653327333
_cell_angle_alpha    105.77116849673425
_cell_angle_beta     108.85295294429261
_cell_angle_gamma    100.0022549060776

_space_group_name_H-M_alt    "P 1"
_space_group_IT_number       1

loop_
  _space_group_symop_operation_xyz
  'x, y, z'

loop_
  _atom_site_type_symbol
  _atom_site_label
  _atom_site_symmetry_multiplicity
  _atom_site_fract_x
  _atom_site_fract_y
  _atom_site_fract_z
  _atom_site_occupancy
  Sm  Sm1       1.0  0.5425986849922708  0.4270796563040591  0.3581500701202531  1.0000
  Sm  Sm2       1.0  0.45740256400561197  0.5729221965161315  0.6418512261491643  1.0000
  H   H1        1.0  0.8823924701858059  0.29884498804830156  0.7743477311872271  1.0000
  H   H2        1.0  0.11760568424580953  0.7011550265845372  0.22565234734293682  1.0000
  H   H3        1.0  0.8113847356132239  0.1175667139237646  0.8416546702891808  1.0000
  H   H4        1.0  0.18861480055715413  0.8824369490225548  0.15834747916105843  1.0000
  H   H5        1.0  0.3264619942169205  0.8565838746656878  0.6490562634988066  1.0000
  H   H6        1.0  0.673541133152831  0.1434134388085653  0.3509427175393469  1.0000
  H   H7        1.0  0.24366060454917726  0.9777361255878175  0.5174417263456803  1.0000
  H   H8        1.0  0.7563419020383861  0.022259395513060592  0.4825542716704093  1.0000
  H   H9        1.0  0.2978644922008087  0.16321842838867434  0.4719912941872552  1.0000
  H   H10       1.0  0.7021342362883445  0.8367797977077557  0.5280060872166532  1.0000
  H   H11       1.0  0.9260863635714358  0.6285226093376294  0.5084155958711207  1.0000
  H   H12       1.0  0.07391505097081108  0.3714765142627597  0.4915842383478549  1.0000
  H   H13       1.0  0.10068695553383109  0.8268035659189504  0.5280710882805408  1.0000
  H   H14       1.0  0.899311579376075  0.17319737668393737  0.47192853419863223  1.0000
  H   H15       1.0  0.003696207348809845  0.9171529633235949  0.3676448161316658  1.0000
  H   H16       1.0  0.9963019470828055  0.08284705130924407  0.6323552623985053  1.0000
  H   H17       1.0  0.7816334422596967  0.9022298916183689  0.17737534108123756  1.0000
  H   H18       1.0  0.2183676478740182  0.09776832943865799  0.8226233911391108  1.0000
  H   H19       1.0  0.5027685892130477  0.7968763269612819  0.019790488371071936  1.0000
  H   H20       1.0  0.4972307600582937  0.2031236915085302  0.9802098760549075  1.0000
  H   H21       1.0  0.24136305235716543  0.6184491866949883  0.9256916299113771  1.0000
  H   H22       1.0  0.7586337136554845  0.38155354060734226  0.07431040379823628  1.0000
  H   H23       1.0  0.08935688861745925  0.42027640044896947  0.9233977690316737  1.0000
  H   H24       1.0  0.9106395249517759  0.579725411596655  0.07660394170412838  1.0000
  H   H25       1.0  0.2228053533076562  0.3391201209567213  0.08342280174791482  1.0000
  H   H26       1.0  0.7771924486805517  0.6608789784194113  0.9165769538084377  1.0000
  H   H27       1.0  0.8260439386641849  0.3895755381264505  0.2694457453483139  1.0000
  H   H28       1.0  0.17395543597712754  0.6104216875568226  0.7305570521512764  1.0000
  H   H29       1.0  0.6726251741013556  0.26093611763865704  0.20894782452153754  1.0000
  H   H30       1.0  0.3273733020738945  0.7390619940376693  0.7910565681056883  1.0000
  C   C1        1.0  0.6974226781364691  0.3397441443125685  0.6446945222362146  1.0000
  C   C2        1.0  0.3025758567734371  0.6602567982903194  0.3553051002429513  1.0000
  C   C3        1.0  0.7534043749438267  0.2694283523540548  0.7109990642652735  1.0000
  C   C4        1.0  0.24659812496353337  0.7305735297297957  0.2890009598503341  1.0000
  C   C5        1.0  0.6430983043023913  0.15887898383055435  0.6969280557057901  1.0000
  C   C6        1.0  0.3569006925255351  0.8411201193825518  0.3030719857463708  1.0000
  C   C7        1.0  0.687995622041079  0.0879393251095948  0.7701137037291803  1.0000
  C   C8        1.0  0.31200323727735935  0.9120625200366633  0.2298870207486203  1.0000
  C   C9        1.0  0.5729051593171235  0.9829220360965961  0.7528597783981753  1.0000
  C   C10       1.0  0.42709760892901727  0.017080723103930495  0.24714290576568498  1.0000
  C   C11       1.0  0.4121728660115735  0.941169474767264  0.6604533093381663  1.0000
  C   C12       1.0  0.5878313186884014  0.0588305844771142  0.33954664062143547  1.0000
  C   C13       1.0  0.36672054980507335  0.007686988119544897  0.5886695226045903  1.0000
  C   C14       1.0  0.6332821156466579  0.9923121647445043  0.4113290394605685  1.0000
  C   C15       1.0  0.47774610698935754  0.11910101757658247  0.6060311799678431  1.0000
  C   C16       1.0  0.5222557441009384  0.8808990594205494  0.3939666401505093  1.0000
  C   C17       1.0  0.42454234687028247  0.19238969718693258  0.5390276296880218  1.0000
  C   C18       1.0  0.5754594761851377  0.8076103670968491  0.4609709694551398  1.0000
  C   C19       1.0  0.5278326910523248  0.30575894697886946  0.5616792507053391  1.0000
  C   C20       1.0  0.47216630577560886  0.6942401562342366  0.438320790746829  1.0000
  C   C21       1.0  0.8856616674044204  0.6698720698996679  0.44118098901865477  1.0000
  C   C22       1.0  0.11433890474151549  0.3301279651204538  0.5588188822783238  1.0000
  C   C23       1.0  0.9841498218210987  0.7815624757523878  0.4510324816361405  1.0000
  C   C24       1.0  0.015849555485118592  0.21843755543076773  0.5489671037650297  1.0000
  C   C25       1.0  0.9306326952532088  0.8303756119500888  0.36315062316515423  1.0000
  C   C26       1.0  0.06936668205300828  0.16962441923306665  0.6368489622360158  1.0000
  C   C27       1.0  0.7768137021288766  0.7680600378769923  0.26582658681459753  1.0000
  C   C28       1.0  0.22318418396395853  0.2319390996391704  0.7341708316673136  1.0000
  C   C29       1.0  0.7092037849322137  0.816265257845259  0.1747982020052277  1.0000
  C   C30       1.0  0.2907933121691713  0.18373201101746162  0.8252009076034953  1.0000
  C   C31       1.0  0.5542727138255613  0.7576099609614529  0.08707584818186834  1.0000
  C   C32       1.0  0.4457282107637894  0.24239098931537478  0.9129243460889215  1.0000
  C   C33       1.0  0.4582050352234645  0.6443822453630046  0.08198440913535171  1.0000
  C   C34       1.0  0.5417910819721143  0.3556186768526003  0.9180154205770069  1.0000
  C   C35       1.0  0.29754921472854784  0.5807801256115253  0.9930869488617519  1.0000
  C   C36       1.0  0.7024476887935903  0.41921985975765336  0.006914401822228862  1.0000
  C   C37       1.0  0.21276039564735066  0.4707200469802613  0.9919922745514713  1.0000
  C   C38       1.0  0.7872372127616101  0.5292817689023294  0.008009722080139173  1.0000
  C   C39       1.0  0.2872294385360518  0.4250227232134876  0.08091722995297351  1.0000
  C   C40       1.0  0.7127690963738472  0.5749782193894007  0.9190823925261996  1.0000
  C   C41       1.0  0.5232875037073937  0.5918086084578886  0.16892237191267157  1.0000
  C   C42       1.0  0.4767107067939803  0.40819143160164356  0.831076148567874  1.0000
  C   C43       1.0  0.6843234924598107  0.6560281751119348  0.26397864079086025  1.0000
  C   C44       1.0  0.31567626532469717  0.3439727840412771  0.7360204885593121  1.0000
  S   S1        1.0  0.8240703657308828  0.4776373073498234  0.6526516470993756  1.0000
  S   S2        1.0  0.1759278728053672  0.522362745423052  0.3473460943563537  1.0000
  S   S3        1.0  0.6140441866762743  0.8934180395895336  0.8451643716001059  1.0000
  S   S4        1.0  0.3859613236927117  0.10658564254163849  0.15483920732919643  1.0000
  N   N1        1.0  0.7399418815567457  0.6087240383304291  0.3508483782939251  1.0000
  N   N2        1.0  0.26005833814578233  0.39127508143298667  0.6491511700292422  1.0000
  N   N3        1.0  0.4371173470233883  0.48441700257833975  0.16813737171344914  1.0000
  N   N4        1.0  0.5628820302828217  0.5155830286048156  0.8318622136877141  1.0000
  O   O1        1.0  0.9963071621581175  0.496782357482111  0.7299991420323125  1.0000
  O   O2        1.0  0.0036942804190118767  0.5032167788316143  0.2699999131618469  1.0000
  O   O3        1.0  0.7545701823790623  0.576112824515256  0.697402755885591  1.0000
  O   O4        1.0  0.24543074221028138  0.42388812576157864  0.3025974383851988  1.0000
  O   O5        1.0  0.8022235676015369  0.45705726516260353  0.526630325387913  1.0000
  O   O6        1.0  0.1977751328527332  0.542940948220476  0.47336783504081137  1.0000
  O   O7        1.0  0.46875944621332627  0.8740390740007697  0.8783773169223821  1.0000
  O   O8        1.0  0.5312475834039176  0.1259655145107317  0.12162764990134893  1.0000
  O   O9        1.0  0.6096974098409048  0.7743119607898591  0.7610338119100464  1.0000
  O   O10       1.0  0.3903022918738444  0.2256889729366591  0.23896687548974438  1.0000
  O   O11       1.0  0.7739553119064054  0.9543292875104539  0.9424689542157267  1.0000
  O   O12       1.0  0.2260510995935476  0.045676314127547385  0.05752981748751302  1.0000
  O   O13       1.0  0.47294337070068326  0.38452416661297645  0.5114769790810456  1.0000
  O   O14       1.0  0.527055978570658  0.6154758518568286  0.4885233853449337  1.0000
  O   O15       1.0  0.725536631637503  0.343467285864662  0.2735944830685568  1.0000
  O   O16       1.0  0.27446857702803124  0.6565298954367335  0.7264136390341565  1.0000
