data_image0
_chemical_formula_structural       Zn12H96C144I24N48
_chemical_formula_sum              "Zn12 H96 C144 I24 N48"
_cell_length_a       14.85425725658031
_cell_length_b       19.207571786217528
_cell_length_c       31.227009905565193
_cell_angle_alpha    101.72800846570776
_cell_angle_beta     89.99054073906306
_cell_angle_gamma    112.752667759185

_space_group_name_H-M_alt    "P 1"
_space_group_IT_number       1

loop_
  _space_group_symop_operation_xyz
  'x, y, z'

loop_
  _atom_site_type_symbol
  _atom_site_label
  _atom_site_symmetry_multiplicity
  _atom_site_fract_x
  _atom_site_fract_y
  _atom_site_fract_z
  _atom_site_occupancy
  Zn  Zn1       1.0  0.7196553709968896  0.24671032037741014  0.5587171996599808  1.0000
  Zn  Zn2       1.0  0.18467822778027468  0.6576050891394801  0.7323960394239748  1.0000
  Zn  Zn3       1.0  0.0416167044050086  0.8302869044302883  0.9102365539377929  1.0000
  Zn  Zn4       1.0  0.5269908397186782  0.2467262820610543  0.058844030214253  1.0000
  Zn  Zn5       1.0  0.4731202523812785  0.6575564560456189  0.23239763352727755  1.0000
  Zn  Zn6       1.0  0.7886334772899916  0.8302055682711899  0.410171909559395  1.0000
  Zn  Zn7       1.0  0.4730095735461434  0.7532742848520186  0.9411560518243149  1.0000
  Zn  Zn8       1.0  0.5268796764612632  0.34244179573626343  0.7676021584262215  1.0000
  Zn  Zn9       1.0  0.21136857117583932  0.16979557651561092  0.5898292055341869  1.0000
  Zn  Zn10      1.0  0.28034388526854315  0.7532879323309916  0.4412816317290265  1.0000
  Zn  Zn11      1.0  0.8153243999290537  0.3423972138468657  0.26760458030711487  1.0000
  Zn  Zn12      1.0  0.958380147773468  0.16971192606811064  0.08976331065382942  1.0000
  H   H1        1.0  0.6291167844187484  0.14479985554390146  0.6191106392986327  1.0000
  H   H2        1.0  0.47229197815184426  0.031914777923113015  0.6232923961600746  1.0000
  H   H3        1.0  0.37650202075844413  0.0394780365066367  0.494754678217916  1.0000
  H   H4        1.0  0.5370952953279228  0.15297047365944388  0.4958261303497622  1.0000
  H   H5        1.0  0.5700933589375127  0.31457717671069935  0.5697305826945964  1.0000
  H   H6        1.0  0.5365435053478224  0.41703951237487064  0.6217767157332547  1.0000
  H   H7        1.0  0.8050463991149216  0.46617322425206004  0.698160007563466  1.0000
  H   H8        1.0  0.8250670368423414  0.3577035477152535  0.6440768519033568  1.0000
  H   H9        1.0  0.3955489000731803  0.5027481763068806  0.6691654826903105  1.0000
  H   H10       1.0  0.24313769671282173  0.5309898393413378  0.6770889308143708  1.0000
  H   H11       1.0  0.38646041465587194  0.7293874664430219  0.7731273531995909  1.0000
  H   H12       1.0  0.5443184656328058  0.7093001804122919  0.7693567631333665  1.0000
  H   H13       1.0  0.07416827852988932  0.6421992424484629  0.647591306874709  1.0000
  H   H14       1.0  0.08550214643639738  0.7222384800757525  0.5913444370972413  1.0000
  H   H15       1.0  0.3507940924531073  0.8944998206237288  0.6645298822959589  1.0000
  H   H16       1.0  0.3257619729563431  0.8101631205687312  0.7193767082418319  1.0000
  H   H17       1.0  0.7192052886548126  0.735346065089317  0.8163239145927932  1.0000
  H   H18       1.0  0.8483439917259404  0.8139820421581021  0.8773955341763725  1.0000
  H   H19       1.0  0.009263747712651673  0.6797311133799724  0.841012386935148  1.0000
  H   H20       1.0  0.8885189069535573  0.5977862075991425  0.7760476549798198  1.0000
  H   H21       1.0  0.8365593212977346  0.7550054030951474  0.47607557488375823  1.0000
  H   H22       1.0  0.9823413762445626  0.7711634581184938  0.5246821603764857  1.0000
  H   H23       1.0  0.14304257560600328  0.9844611517613017  0.4848095260246481  1.0000
  H   H24       1.0  0.990791532058502  0.9593863711737143  0.4371999840911656  1.0000
  H   H25       1.0  0.5157156976025591  0.14490597835237656  0.1192815318708114  1.0000
  H   H26       1.0  0.5595523486773502  0.0319666204809792  0.1234307001708146  1.0000
  H   H27       1.0  0.6627082554148628  0.03940997951800541  0.9948296546090418  1.0000
  H   H28       1.0  0.6156770595358408  0.15292298554048497  0.9959275018766008  1.0000
  H   H29       1.0  0.7446448076373642  0.3145568380461583  0.0697609951552423  1.0000
  H   H30       1.0  0.8806416792800391  0.4169936983295486  0.1218488580313561  1.0000
  H   H31       1.0  0.6612137181110997  0.46627137556632897  0.1981437544484166  1.0000
  H   H32       1.0  0.5327507617106021  0.3577743058203353  0.14407002284222872  1.0000
  H   H33       1.0  0.1074333728867316  0.5027959000482553  0.16912518044587438  1.0000
  H   H34       1.0  0.2880222741033053  0.5309836225342508  0.177100889229699  1.0000
  H   H35       1.0  0.34305881690880125  0.7293603112482999  0.2731491098742823  1.0000
  H   H36       1.0  0.16513661701812068  0.7093071882335666  0.2693661607846991  1.0000
  H   H37       1.0  0.5681321172071635  0.6421080314670604  0.1475350090280045  1.0000
  H   H38       1.0  0.6367177912289249  0.7221247743205268  0.09123344319486651  1.0000
  H   H39       1.0  0.5435748360697943  0.8943115152902122  0.1644562331904211  1.0000
  H   H40       1.0  0.48440337859879196  0.8100226897676138  0.2193465809854729  1.0000
  H   H41       1.0  0.01612662327069375  0.7350412233377243  0.3164286014955024  1.0000
  H   H42       1.0  0.9655459353196179  0.813749773297829  0.377468563960683  1.0000
  H   H43       1.0  0.6703750764093501  0.6796132307015271  0.3409865546736556  1.0000
  H   H44       1.0  0.709254932301917  0.5976480180233709  0.2760470455216009  1.0000
  H   H45       1.0  0.9182681385797978  0.7549834875016758  0.9761377573546284  1.0000
  H   H46       1.0  0.7884306470657522  0.7711239843596546  0.02464549798327913  1.0000
  H   H47       1.0  0.8411952675880771  0.9843618755010368  0.9846822532742863  1.0000
  H   H48       1.0  0.968605518750522  0.9593253198312226  0.9372004840826094  1.0000
  H   H49       1.0  0.48428269601828344  0.8550945885188385  0.8807185502415608  1.0000
  H   H50       1.0  0.44044768056952693  0.9680345248909319  0.8765697746038369  1.0000
  H   H51       1.0  0.33729273624339867  0.9605917443406614  0.005171212852495449  1.0000
  H   H52       1.0  0.38432364292570054  0.8470781598453883  0.004072972873451939  1.0000
  H   H53       1.0  0.25535618465843885  0.6854448867529754  0.930238911717197  1.0000
  H   H54       1.0  0.11935758256851174  0.5830086049005205  0.8781514416263576  1.0000
  H   H55       1.0  0.33878323595932613  0.5337303507165388  0.8018545515897983  1.0000
  H   H56       1.0  0.4672489791896199  0.6422262623327413  0.8559287784354765  1.0000
  H   H57       1.0  0.8925654047520479  0.49720408836411406  0.830874508930414  1.0000
  H   H58       1.0  0.7119775601305349  0.46901578649276127  0.8228993679750047  1.0000
  H   H59       1.0  0.6569409225038144  0.2706402547103508  0.7268519327779828  1.0000
  H   H60       1.0  0.8348631228195273  0.29069337835206716  0.7306342414748315  1.0000
  H   H61       1.0  0.43187137357178074  0.3578919579834548  0.8524637195869786  1.0000
  H   H62       1.0  0.3632835852973386  0.277876372333253  0.9087657507451183  1.0000
  H   H63       1.0  0.45642701717046924  0.10568789283819063  0.8355449845295766  1.0000
  H   H64       1.0  0.515597606838803  0.18997498262891105  0.7806537787964416  1.0000
  H   H65       1.0  0.9838733126425723  0.2649610811602585  0.6835704173521578  1.0000
  H   H66       1.0  0.03445582416200925  0.18625079332965566  0.6225318382250506  1.0000
  H   H67       1.0  0.3296281217726289  0.320386175260353  0.6590169043716969  1.0000
  H   H68       1.0  0.29074528361218904  0.4023508090964114  0.7239563411070408  1.0000
  H   H69       1.0  0.08173160168288264  0.2450170797109337  0.023862004512174906  1.0000
  H   H70       1.0  0.2115684195572314  0.228876582212024  0.9753549043008576  1.0000
  H   H71       1.0  0.1588031251827076  0.015638690116219305  0.015319109623540302  1.0000
  H   H72       1.0  0.03139470550940621  0.040677561885594606  0.0628002082619901  1.0000
  H   H73       1.0  0.3708833392243208  0.8552001322694026  0.38088969042118487  1.0000
  H   H74       1.0  0.5277070884711466  0.9680857886485588  0.3767080061240621  1.0000
  H   H75       1.0  0.6234988707079909  0.9605207940754856  0.505245186226098  1.0000
  H   H76       1.0  0.46290559635102835  0.8470283572361695  0.5041734138978882  1.0000
  H   H77       1.0  0.429904935129052  0.6854204978244383  0.43026753581115423  1.0000
  H   H78       1.0  0.4634544057633791  0.5829587421865626  0.37822019452676164  1.0000
  H   H79       1.0  0.19495036015496953  0.5338267659993863  0.3018377607084233  1.0000
  H   H80       1.0  0.1749281794975772  0.6422947039689574  0.35592294022234944  1.0000
  H   H81       1.0  0.6044504484632826  0.49724891570799906  0.3308364056075135  1.0000
  H   H82       1.0  0.7568619416579097  0.4690078320868094  0.3229123896058397  1.0000
  H   H83       1.0  0.613541729268718  0.27061252235260014  0.22687201585733163  1.0000
  H   H84       1.0  0.45568329384882134  0.29070038621519256  0.2306436390523672  1.0000
  H   H85       1.0  0.9258309768854717  0.35779900900597994  0.3524088052997598  1.0000
  H   H86       1.0  0.9144973042045307  0.2777615080370808  0.4086555724508115  1.0000
  H   H87       1.0  0.6492060314024782  0.10550016750305959  0.3354701272274951  1.0000
  H   H88       1.0  0.6742385347046638  0.1898362887857203  0.2806232287419022  1.0000
  H   H89       1.0  0.28079425016163384  0.26464871400276024  0.18367544222081023  1.0000
  H   H90       1.0  0.15165449049546006  0.1860133163193254  0.1226032548088085  1.0000
  H   H91       1.0  0.9907409957369709  0.32027003459753445  0.15898552609638023  1.0000
  H   H92       1.0  0.1114842946286673  0.40221320337857247  0.22395068092368584  1.0000
  H   H93       1.0  0.1634412874051634  0.24499690078980754  0.5239240843320303  1.0000
  H   H94       1.0  0.01765730699802503  0.22883768785248998  0.47531767405463654  1.0000
  H   H95       1.0  0.8569587056740033  0.0155411511971408  0.5151910937556394  1.0000
  H   H96       1.0  0.00921138527257881  0.0406165109124075  0.5628003879586672  1.0000
  C   C1        1.0  0.5707227593362917  0.11960705611581093  0.5924872810418123  1.0000
  C   C2        1.0  0.48487042844371325  0.05697567737764331  0.5944733539743509  1.0000
  C   C3        1.0  0.41349617145246487  0.0266824886080599  0.5588404254818542  1.0000
  C   C4        1.0  0.4313108394928874  0.0611055621497414  0.5226161798343156  1.0000
  C   C5        1.0  0.5193678610075806  0.1236946005413415  0.5231276767987509  1.0000
  C   C6        1.0  0.6201882285010926  0.3491425644357448  0.5987190401895219  1.0000
  C   C7        1.0  0.6020069608722167  0.4066227977889341  0.6275905782479683  1.0000
  C   C8        1.0  0.6691747057948872  0.4501482444408822  0.6640145785677092  1.0000
  C   C9        1.0  0.7509625784405713  0.43284240961904163  0.6703889496990101  1.0000
  C   C10       1.0  0.7628068712854983  0.3735657318317607  0.6404756300197931  1.0000
  C   C11       1.0  0.6563639769960048  0.5137920187643418  0.6954336326606452  1.0000
  C   C12       1.0  0.572148361328253  0.5885201282941426  0.7189300614320757  1.0000
  C   C13       1.0  0.718282947102452  0.6141267833309031  0.7545261717943178  1.0000
  C   C14       1.0  0.4818611250245651  0.6043563970432472  0.7187394403082976  1.0000
  C   C15       1.0  0.3963632193817191  0.5539412900729205  0.6921551042241845  1.0000
  C   C16       1.0  0.3122268256274409  0.5694567990530572  0.6963109566909935  1.0000
  C   C17       1.0  0.39284539013427644  0.6808788026464826  0.7499665791971993  1.0000
  C   C18       1.0  0.4794607166559147  0.6694126611635767  0.7479189050594997  1.0000
  C   C19       1.0  0.13362910342900147  0.6988282572375439  0.6500377780728144  1.0000
  C   C20       1.0  0.1401279406013318  0.7430260983097484  0.6191961291367039  1.0000
  C   C21       1.0  0.2885187364614908  0.8391722544253853  0.6600552304479521  1.0000
  C   C22       1.0  0.2756183474656668  0.792304372448996  0.6899659539474926  1.0000
  C   C23       1.0  0.7941376799332646  0.6605735928287046  0.7912355225617845  1.0000
  C   C24       1.0  0.7831105116655694  0.7220629490576372  0.8202594577209368  1.0000
  C   C25       1.0  0.8544376752586302  0.7652652356489115  0.8545708761753447  1.0000
  C   C26       1.0  0.9437892958264701  0.6897481379105984  0.8341533984910896  1.0000
  C   C27       1.0  0.8764955648625232  0.6443460049802922  0.7983694436521205  1.0000
  C   C28       1.0  0.906403164228806  0.80455202897587  0.4788878835661521  1.0000
  C   C29       1.0  0.9863855377968919  0.8139515645450786  0.5058502037901178  1.0000
  C   C30       1.0  0.07353897822950763  0.8790305397139806  0.5079637237500663  1.0000
  C   C31       1.0  0.07626756804118186  0.9330794006536894  0.4834147540699832  1.0000
  C   C32       1.0  0.993005132074032  0.9195759260043205  0.4572953952931727  1.0000
  C   C33       1.0  0.16079483765784652  0.8908957567917002  0.5359008185890701  1.0000
  C   C34       1.0  0.22829240829018738  0.8633105495220122  0.5917715918301241  1.0000
  C   C35       1.0  0.3201064772803477  0.9609723083539166  0.5603121886223548  1.0000
  C   C36       1.0  0.21908739454342213  0.8146182083227843  0.6240436175574899  1.0000
  C   C37       1.0  0.5488177061428133  0.11964795623664064  0.09262656505725891  1.0000
  C   C38       1.0  0.5719527179301737  0.0569783371617874  0.09458788900891342  1.0000
  C   C39       1.0  0.6129105732094046  0.0266111014670685  0.0589169474180551  1.0000
  C   C40       1.0  0.6295443674223621  0.061063661744867735  0.022703167855233602  1.0000
  C   C41       1.0  0.6041386754386693  0.12366827904514822  0.023232906479023503  1.0000
  C   C42       1.0  0.729097331483942  0.34913591885396045  0.09874829364980543  1.0000
  C   C43       1.0  0.8047333725336044  0.40658740379817004  0.1276304906174843  1.0000
  C   C44       1.0  0.781082392227134  0.45013240554031614  0.1640374389024544  1.0000
  C   C45       1.0  0.6819853664885257  0.43292473177245233  0.1703853962818016  1.0000
  C   C46       1.0  0.6108833458096329  0.3736364939687605  0.1404754756302538  1.0000
  C   C47       1.0  0.8575367185370483  0.5137096950669645  0.1954843774331252  1.0000
  C   C48       1.0  0.016473334347850397  0.5884429949728017  0.21896912775871868  1.0000
  C   C49       1.0  0.8959055626040707  0.61397854709265  0.2545923156618812  1.0000
  C   C50       1.0  0.12263455954875024  0.6043366041945788  0.2187565473213695  1.0000
  C   C51       1.0  0.15777217607502797  0.5539633709333032  0.1921560845708896  1.0000
  C   C52       1.0  0.25740197346646454  0.5694560360036007  0.1963313438286534  1.0000
  C   C53       1.0  0.28817338404531523  0.6808602120952119  0.2499966106666065  1.0000
  C   C54       1.0  0.19007005609205427  0.669382162634456  0.24793065633893724  1.0000
  C   C55       1.0  0.5652231292321803  0.6987050988850284  0.14995878249127512  1.0000
  C   C56       1.0  0.6028386842130757  0.7428781273418323  0.11910383987516582  1.0000
  C   C57       1.0  0.5504843825889196  0.8389732242756907  0.15998201293182754  1.0000
  C   C58       1.0  0.5166150414847763  0.792137896595939  0.18989923761456853  1.0000
  C   C59       1.0  0.8664323156989512  0.6603716548577269  0.2913064250012455  1.0000
  C   C60       1.0  0.9389389645122675  0.7218088895481288  0.3203474593141565  1.0000
  C   C61       1.0  0.9107662253225616  0.7650398227560445  0.3546320964955925  1.0000
  C   C62       1.0  0.7458900235428203  0.6895852454817232  0.3341584288244519  1.0000
  C   C63       1.0  0.7678289296528787  0.6441675751087602  0.2983930522472065  1.0000
  C   C64       1.0  0.8979612319017534  0.8045149667856037  0.9789171109829907  1.0000
  C   C65       1.0  0.8272797067991108  0.8139041335993725  0.005807979724785639  1.0000
  C   C66       1.0  0.8051735126688085  0.8789610754857548  0.007864021723762  1.0000
  C   C67       1.0  0.856587648787617  0.9329997301229014  0.9833270718375928  1.0000
  C   C68       1.0  0.9264867063714848  0.919520919666603  0.9572794939806215  1.0000
  C   C69       1.0  0.7297438717594673  0.890812520177704  0.03578782487634411  1.0000
  C   C70       1.0  0.6347551658981133  0.8631434586306669  0.09169127711945183  1.0000
  C   C71       1.0  0.640533034249572  0.9608693481029108  0.06031180775293174  1.0000
  C   C72       1.0  0.5953604874660885  0.8144261989220211  0.1239450299291036  1.0000
  C   C73       1.0  0.4511833803366657  0.8803526106903875  0.9073735169567101  1.0000
  C   C74       1.0  0.4280478894976272  0.943023964842226  0.9054136913850713  1.0000
  C   C75       1.0  0.3870921484710909  0.9733900433336805  0.9410841676509278  1.0000
  C   C76       1.0  0.370457876269029  0.938939219700316  0.9772978446119396  1.0000
  C   C77       1.0  0.3958640470918839  0.876332867009559  0.9767669278044978  1.0000
  C   C78       1.0  0.270902698613  0.6508652277719094  0.9012509003393846  1.0000
  C   C79       1.0  0.19526531113402268  0.5934137427997969  0.8723687034209107  1.0000
  C   C80       1.0  0.21891754304858324  0.5498698980171994  0.8359625405343039  1.0000
  C   C81       1.0  0.3180115871568675  0.5670769938834326  0.8296135501491407  1.0000
  C   C82       1.0  0.3891145702471449  0.6263658101738726  0.859523863487567  1.0000
  C   C83       1.0  0.1424616750837942  0.4862908718042506  0.8045157046792468  1.0000
  C   C84       1.0  0.9835242916621427  0.4115587294430725  0.7810310994330862  1.0000
  C   C85       1.0  0.10409437245913727  0.38602375615137424  0.7454079839712405  1.0000
  C   C86       1.0  0.8773677789638584  0.39566512031897366  0.7812436796982283  1.0000
  C   C87       1.0  0.8422291049924695  0.446038931711648  0.8078448554057616  1.0000
  C   C88       1.0  0.742597093156526  0.4305445305680778  0.8036690584554832  1.0000
  C   C89       1.0  0.7118253935934645  0.319139776317158  0.7500030787096819  1.0000
  C   C90       1.0  0.8099296843831424  0.33061840489164507  0.7520687853315025  1.0000
  C   C91       1.0  0.43477939892287054  0.3012943117652398  0.8500398736332002  1.0000
  C   C92       1.0  0.3971627862843405  0.25712186112635044  0.8808958494027195  1.0000
  C   C93       1.0  0.44951679743669365  0.16102618383875722  0.8400192048127694  1.0000
  C   C94       1.0  0.48338690700174425  0.2078603552278011  0.8101005542651335  1.0000
  C   C95       1.0  0.1335675253930972  0.33963180657189435  0.7086933792939831  1.0000
  C   C96       1.0  0.06106222364664405  0.2781945728498698  0.679651384342769  1.0000
  C   C97       1.0  0.08923438274279505  0.23496248018844312  0.6453685233092941  1.0000
  C   C98       1.0  0.2541093310017928  0.3104158976818141  0.6658442873493584  1.0000
  C   C99       1.0  0.23217052013799133  0.3558324117501144  0.7016082380863083  1.0000
  C   C100      1.0  0.10203841353970942  0.19548675735864413  0.02108343633137371  1.0000
  C   C101      1.0  0.17272032266028253  0.1860970120860301  0.9941921748535023  1.0000
  C   C102      1.0  0.1948252647574549  0.12103891261312333  0.99213598784889  1.0000
  C   C103      1.0  0.143413343295677  0.0670019943627409  0.01667315523121  1.0000
  C   C104      1.0  0.0735117807954921  0.08047848839203199  0.0427217238623783  1.0000
  C   C105      1.0  0.270255868503213  0.10918804703490541  0.9642119369904592  1.0000
  C   C106      1.0  0.3652484244351085  0.13685942315591856  0.9083094151021526  1.0000
  C   C107      1.0  0.3594686304108308  0.039132375456219406  0.9396893798803703  1.0000
  C   C108      1.0  0.4046419452301962  0.1855743677194256  0.876055372232031  1.0000
  C   C109      1.0  0.4292781319176343  0.8803917741528267  0.40751290359856546  1.0000
  C   C110      1.0  0.515129695411872  0.9430243107491448  0.4055266555491031  1.0000
  C   C111      1.0  0.5865046256177777  0.9733174995326835  0.4411595840169937  1.0000
  C   C112      1.0  0.5686896683806355  0.9388938475182088  0.4773834369530548  1.0000
  C   C113      1.0  0.48063303024633813  0.876304229727289  0.4768725078416338  1.0000
  C   C114      1.0  0.3798071774812685  0.650853373385189  0.40127918104104776  1.0000
  C   C115      1.0  0.3979896975683062  0.5933742982455001  0.37240714759550997  1.0000
  C   C116      1.0  0.33082109000105236  0.5498511657563727  0.33598439799913393  1.0000
  C   C117      1.0  0.24903591021401195  0.5671570006340262  0.3296100267694301  1.0000
  C   C118      1.0  0.23719180552391364  0.6264313623635972  0.35952401692807007  1.0000
  C   C119      1.0  0.3436353740906456  0.48620507701241417  0.3045644132807936  1.0000
  C   C120      1.0  0.4278508942996311  0.4114781234737849  0.2810697305460224  1.0000
  C   C121      1.0  0.28171774977597164  0.3858703115332959  0.24547283468701417  1.0000
  C   C122      1.0  0.5181381299657702  0.3956418537842127  0.2812613122588985  1.0000
  C   C123      1.0  0.6036360347585585  0.4460569595005808  0.3078469291284804  1.0000
  C   C124      1.0  0.6877724291503783  0.4305414514609183  0.3036901160725662  1.0000
  C   C125      1.0  0.6071566589691031  0.3191223430807852  0.2500335753072847  1.0000
  C   C126      1.0  0.5205388290187473  0.3305861703311024  0.2520799988446214  1.0000
  C   C127      1.0  0.8663713091982715  0.30117230873505463  0.3499632645548516  1.0000
  C   C128      1.0  0.8598715098270803  0.25697388948959343  0.38080420060771303  1.0000
  C   C129      1.0  0.7114813871815854  0.16082773338791165  0.3399450992718656  1.0000
  C   C130      1.0  0.7243811975714538  0.2076944581052231  0.3100339105457267  1.0000
  C   C131      1.0  0.20586272774843206  0.33942292356270093  0.2087630912080698  1.0000
  C   C132      1.0  0.21689027982155554  0.2779329885614318  0.1797390835091974  1.0000
  C   C133      1.0  0.14556003892688096  0.2347312797462066  0.1454286982820108  1.0000
  C   C134      1.0  0.05621352173781707  0.31025185152596185  0.1658453301484997  1.0000
  C   C135      1.0  0.1235071522974209  0.3556510908662388  0.2016286021663163  1.0000
  C   C136      1.0  0.09359715463982356  0.19544969549582453  0.5211123435272498  1.0000
  C   C137      1.0  0.013615359677693659  0.18605131718570087  0.49415048852988963  1.0000
  C   C138      1.0  0.9264593209951427  0.12097118471584883  0.4920365034171397  1.0000
  C   C139      1.0  0.9237334238295959  0.0669223235184688  0.5165857931951833  1.0000
  C   C140      1.0  0.006995570387509517  0.0804252193815529  0.54270507945688  1.0000
  C   C141      1.0  0.8392054803607252  0.10910596642602853  0.4641006892897934  1.0000
  C   C142      1.0  0.7717075267730209  0.13669175372201178  0.4082287078029978  1.0000
  C   C143      1.0  0.6798925889176104  0.039028257590779006  0.4396888540545092  1.0000
  C   C144      1.0  0.7809117662632449  0.18538120037678144  0.3759569598681765  1.0000
  I   I1        1.0  0.7278107926123737  0.2869242452583762  0.4856082557759862  1.0000
  I   I2        1.0  0.846982456758816  0.21367750636477476  0.5963793891083569  1.0000
  I   I3        1.0  0.21534607852980522  0.7508729685811631  0.8070659788343022  1.0000
  I   I4        1.0  0.032043976671687346  0.5334791206456231  0.7043294079804882  1.0000
  I   I5        1.0  0.1184036381865711  0.944428515592918  0.8737745520895501  1.0000
  I   I6        1.0  0.11934107869667111  0.7604430332443713  0.9493858987403103  1.0000
  I   I7        1.0  0.5586960732828814  0.286974064869213  0.9857340771220748  1.0000
  I   I8        1.0  0.3666682003180739  0.2138263707206107  0.09657768368563781  1.0000
  I   I9        1.0  0.5358971912540086  0.7508817625300354  0.3070315614183698  1.0000
  I   I10       1.0  0.5019807269855291  0.5335596969670675  0.20449092055417142  1.0000
  I   I11       1.0  0.8260801156010232  0.9442231694287604  0.37360848368638955  1.0000
  I   I12       1.0  0.6410399943259791  0.7604021709639213  0.4493361054072906  1.0000
  I   I13       1.0  0.4413060702166833  0.7130259232994335  0.014265932327575127  1.0000
  I   I14       1.0  0.633332213159264  0.7861741965059539  0.9034220781565666  1.0000
  I   I15       1.0  0.46410495267058854  0.24911822626558694  0.6929678076385527  1.0000
  I   I16       1.0  0.4980197806754775  0.4664397123873841  0.7955090164295626  1.0000
  I   I17       1.0  0.17392029808882373  0.05577739811129591  0.626390957959444  1.0000
  I   I18       1.0  0.3589609979698309  0.23959955383521256  0.5506638014651486  1.0000
  I   I19       1.0  0.27218884724596404  0.7130734283641972  0.5143908232696646  1.0000
  I   I20       1.0  0.1530170887033294  0.78632132481642  0.4036198349921349  1.0000
  I   I21       1.0  0.7846609718478775  0.24912875508959328  0.19293520860219357  1.0000
  I   I22       1.0  0.9679594180109489  0.4665220238555889  0.2956720272602595  1.0000
  I   I23       1.0  0.8815998513172898  0.055571471976662706  0.1262260977036362  1.0000
  I   I24       1.0  0.8806557736943219  0.23955579756751896  0.0506136456549413  1.0000
  N   N1        1.0  0.5878929562084921  0.1522745391809224  0.557365004135761  1.0000
  N   N2        1.0  0.6986711385125163  0.3326320080517959  0.6050881579849872  1.0000
  N   N3        1.0  0.7271807314616154  0.5529493895475851  0.7284526735112776  1.0000
  N   N4        1.0  0.6434381680838189  0.6355804996657783  0.7502426871677841  1.0000
  N   N5        1.0  0.57605637949316  0.5283096573846466  0.6895485179647524  1.0000
  N   N6        1.0  0.9331781847471491  0.7494868229446751  0.8616420963421377  1.0000
  N   N7        1.0  0.31031468895677977  0.6317317950505699  0.7247947522709381  1.0000
  N   N8        1.0  0.1998774151200352  0.7231366976733257  0.6849760519900983  1.0000
  N   N9        1.0  0.9097537704019558  0.856146717732706  0.4547826354023243  1.0000
  N   N10       1.0  0.14818188720251163  0.8466071391309028  0.5653254973482973  1.0000
  N   N11       1.0  0.31491615557924774  0.9217582592295132  0.5918929387759064  1.0000
  N   N12       1.0  0.24640261695702767  0.9461466282823993  0.5305186615686992  1.0000
  N   N13       1.0  0.5642561576276536  0.1522853087147595  0.0574986589176305  1.0000
  N   N14       1.0  0.6340874992147861  0.33265419520258627  0.1051105219656208  1.0000
  N   N15       1.0  0.8258505649207138  0.5528058778374643  0.22852826374892035  1.0000
  N   N16       1.0  0.9922204178455017  0.6354913904844893  0.25029256866520916  1.0000
  N   N17       1.0  0.9523636189931183  0.5282384890044725  0.1895925251086865  1.0000
  N   N18       1.0  0.8162270490696814  0.7492949144338753  0.3616592164326491  1.0000
  N   N19       1.0  0.3215800282785111  0.6317028608247667  0.22483272009408486  1.0000
  N   N20       1.0  0.5232762979079767  0.7230002865123312  0.18491340047651764  1.0000
  N   N21       1.0  0.9463188260672626  0.8561076882071889  0.954816259495047  1.0000
  N   N22       1.0  0.6981135162979939  0.8464835853663502  0.06519506623661903  1.0000
  N   N23       1.0  0.6065862872153363  0.9216141899066914  0.09188693092912102  1.0000
  N   N24       1.0  0.6993589460595613  0.9460626740460183  0.03046103520127728  1.0000
  N   N25       1.0  0.4357437767980131  0.8477169935887973  0.9425026013045824  1.0000
  N   N26       1.0  0.365912241685436  0.6673463729504903  0.8948882793120916  1.0000
  N   N27       1.0  0.17414879089898963  0.4471952672070074  0.771472531246701  1.0000
  N   N28       1.0  0.007777881379155438  0.3645103339453398  0.7497076585019968  1.0000
  N   N29       1.0  0.047634390822302926  0.47176265663907196  0.8104076295433984  1.0000
  N   N30       1.0  0.18377634561294803  0.2507062300673368  0.6383422188080985  1.0000
  N   N31       1.0  0.678421058200975  0.3682977061022612  0.775167361919884  1.0000
  N   N32       1.0  0.4767256503660278  0.2769979649979248  0.8150867115995482  1.0000
  N   N33       1.0  0.0536786047171702  0.14389229955029487  0.0451840703231738  1.0000
  N   N34       1.0  0.3018866073450824  0.15351640244695366  0.9348052634831987  1.0000
  N   N35       1.0  0.39341778046944137  0.0783869542949844  0.9081148244833912  1.0000
  N   N36       1.0  0.3006411773709914  0.0539373134537868  0.969539614714904  1.0000
  N   N37       1.0  0.4121079354704591  0.8477242917146839  0.4426345401118894  1.0000
  N   N38       1.0  0.3013226309937523  0.6673633500144759  0.3949109513687644  1.0000
  N   N39       1.0  0.2728191988685326  0.44704886442873004  0.2715448770676616  1.0000
  N   N40       1.0  0.35656147134948674  0.36441717332981943  0.2497570322706011  1.0000
  N   N41       1.0  0.42394018348859674  0.47168859464095897  0.3104509539153852  1.0000
  N   N42       1.0  0.06682154971989014  0.2505096934327753  0.13835651745231564  1.0000
  N   N43       1.0  0.6896851452770536  0.36826761397643554  0.2752055049337585  1.0000
  N   N44       1.0  0.8001214571274533  0.27686213349391414  0.3150231721349854  1.0000
  N   N45       1.0  0.09024837974330782  0.14385732252505795  0.545217241334214  1.0000
  N   N46       1.0  0.85181843081606  0.15339458408683276  0.43467601053056626  1.0000
  N   N47       1.0  0.6850832000279469  0.07824288550147433  0.4081081764160714  1.0000
  N   N48       1.0  0.7535977014865765  0.0538550955623123  0.46948220591743006  1.0000
