data_image0
_chemical_formula_structural       Al6H14C36O31
_chemical_formula_sum              "Al6 H14 C36 O31"
_cell_length_a       12.271715222028106
_cell_length_b       11.701131195675732
_cell_length_c       19.44991452977133
_cell_angle_alpha    90.03480118791767
_cell_angle_beta     90.58218572587387
_cell_angle_gamma    57.91628819117345

_space_group_name_H-M_alt    "P 1"
_space_group_IT_number       1

loop_
  _space_group_symop_operation_xyz
  'x, y, z'

loop_
  _atom_site_type_symbol
  _atom_site_label
  _atom_site_symmetry_multiplicity
  _atom_site_fract_x
  _atom_site_fract_y
  _atom_site_fract_z
  _atom_site_occupancy
  Al  Al1       1.0  0.7764213126255584  0.47062873878083167  0.4954896244835822  1.0000
  Al  Al2       1.0  0.5029699151646694  0.7494408491674136  0.49369611452589623  1.0000
  Al  Al3       1.0  0.742691774347321  0.7602254038827354  0.49286525177533486  1.0000
  Al  Al4       1.0  0.22553379786917563  0.5494100416323136  0.9791152603971439  1.0000
  Al  Al5       1.0  0.4892966166651718  0.2616805779714042  0.976109438538927  1.0000
  Al  Al6       1.0  0.2413799482754584  0.2673651872427739  0.974005910443232  1.0000
  H   H1        1.0  0.30383378908088327  0.05999212450784341  0.7898100896274443  1.0000
  H   H2        1.0  0.6569248569075017  0.9839682684052772  0.6342248454408194  1.0000
  H   H3        1.0  0.07931951911049852  0.3914551925230326  0.7149465757476179  1.0000
  H   H4        1.0  0.3657216655434752  0.6915681863935106  0.6410417003256228  1.0000
  H   H5        1.0  0.016363332907438733  0.6770820199170584  0.799864593886639  1.0000
  H   H6        1.0  0.653586822394324  0.3164511387812751  0.8018570152616392  1.0000
  H   H7        1.0  0.3494521506047336  0.9695412441730933  0.6737853254065058  1.0000
  H   H8        1.0  0.8903490022864703  0.74186389800262  0.6887478982008944  1.0000
  H   H9        1.0  0.7020839297786096  0.37076265524525803  0.6891151829541258  1.0000
  H   H10       1.0  0.5673457639079301  0.034256933147993586  0.7914784451769777  1.0000
  H   H11       1.0  0.9867907221141367  0.4310267772819428  0.7996000856842898  1.0000
  H   H12       1.0  0.40110855510732785  0.595702784411678  0.7979691702219753  1.0000
  H   H13       1.0  0.9443377054857154  0.25635243312806466  0.5282255967749876  1.0000
  H   H14       1.0  0.1654939482656985  0.7709891137250935  0.9543356233804374  1.0000
  C   C1        1.0  0.8931071864330563  0.5683801019189332  0.3963154551768753  1.0000
  C   C2        1.0  0.45149794141730126  0.45810858071745036  0.8835866752266526  1.0000
  C   C3        1.0  0.4381254935184059  0.1122604827720721  0.8778066872252879  1.0000
  C   C4        1.0  0.08654491079321494  0.46969018039928295  0.8806470071960746  1.0000
  C   C5        1.0  0.9027054944753065  0.578174850313303  0.5894469175834587  1.0000
  C   C6        1.0  0.5655842144685367  0.5577280790691859  0.5982103179209234  1.0000
  C   C7        1.0  0.5296399451447513  0.9197166845797183  0.5850628579536592  1.0000
  C   C8        1.0  0.47078176770296654  0.0417748066710075  0.1355337882112977  1.0000
  C   C9        1.0  0.04478758444182062  0.4815116414363557  0.1421871421035306  1.0000
  C   C10       1.0  0.4852894718778272  0.45799516380107264  0.1482737061071191  1.0000
  C   C11       1.0  0.4978303346989888  0.9830130852222682  0.2644855546770444  1.0000
  C   C12       1.0  0.5477971810929746  0.5507271986624431  0.4032246854945072  1.0000
  C   C13       1.0  0.9812417588088068  0.528113581110169  0.2693324879449221  1.0000
  C   C14       1.0  0.5132706419399967  0.49455394507926076  0.2759989283705977  1.0000
  C   C15       1.0  0.48280391382044735  0.013329421240982204  0.19677889962009232  1.0000
  C   C16       1.0  0.015103808511987855  0.5046598453470494  0.202713445531316  1.0000
  C   C17       1.0  0.4996839002454792  0.47377819565433293  0.2091248462972501  1.0000
  C   C18       1.0  0.5126189278267648  0.9564662407441202  0.3260035778456611  1.0000
  C   C19       1.0  0.9492540697218246  0.5486164276728331  0.3296580145456005  1.0000
  C   C20       1.0  0.5235346657518462  0.5163991168339237  0.3365070369745666  1.0000
  C   C21       1.0  0.5110203636485195  0.9779569476420846  0.6550731317222258  1.0000
  C   C22       1.0  0.9651101498826832  0.541929100429222  0.658879276569543  1.0000
  C   C23       1.0  0.5444243187126931  0.9047036624848555  0.3948571750002117  1.0000
  C   C24       1.0  0.524634729930611  0.5411755285673152  0.66736122094904  1.0000
  C   C25       1.0  0.4743648514572243  0.05549554504491989  0.8085941573897557  1.0000
  C   C26       1.0  0.01739343961405387  0.49995742244939817  0.8144241692705805  1.0000
  C   C27       1.0  0.4761587574054715  0.49666737866263583  0.8166023935419275  1.0000
  C   C28       1.0  0.3941432610506652  0.03835473749492019  0.7672873228462365  1.0000
  C   C29       1.0  0.9934023187951269  0.6077182462078099  0.7756845578859527  1.0000
  C   C30       1.0  0.5815072718337218  0.4131891486424166  0.778681266087645  1.0000
  C   C31       1.0  0.41592374213761457  0.9933401584256318  0.6972688623618524  1.0000
  C   C32       1.0  0.942871283694444  0.6374996385762728  0.706464194408575  1.0000
  C   C33       1.0  0.6075804060278857  0.4395217589087252  0.7107194511989691  1.0000
  C   C34       1.0  0.44958564214850594  0.4425903193861202  0.0795800604346084  1.0000
  C   C35       1.0  0.4461359276711291  0.10012830503465862  0.0677024183618329  1.0000
  C   C36       1.0  0.09654318629227991  0.45431455716029484  0.0738139805613045  1.0000
  O   O1        1.0  0.6521325240587642  0.4676316143311183  0.4334307633982206  1.0000
  O   O2        1.0  0.852487152616945  0.7016647878568634  0.5689524103945232  1.0000
  O   O3        1.0  0.897796475123741  0.48773064705737557  0.5571889568219461  1.0000
  O   O4        1.0  0.4735439092161545  0.6573078535521402  0.5625115080513865  1.0000
  O   O5        1.0  0.6282227930015266  0.9043862952890861  0.553618454120759  1.0000
  O   O6        1.0  0.6717068512970886  0.6634329322735792  0.49521173814557073  1.0000
  O   O7        1.0  0.11035732800279867  0.5433357521858042  0.04648673678368451  1.0000
  O   O8        1.0  0.5350178790716171  0.34044773218356983  0.0449850795280682  1.0000
  O   O9        1.0  0.3439365209630978  0.12330421929401329  0.0369493919296104  1.0000
  O   O10       1.0  0.336121761934777  0.5284339978243364  0.0607446056301626  1.0000
  O   O11       1.0  0.5255295811133962  0.13032412515433117  0.0460354974041124  1.0000
  O   O12       1.0  0.4658468072366658  0.8829684419222587  0.4259149298169476  1.0000
  O   O13       1.0  0.12843970270492377  0.3390974519968779  0.0482731565668004  1.0000
  O   O14       1.0  0.12569163904861824  0.5445430823832708  0.9008084563110401  1.0000
  O   O15       1.0  0.5333774537912391  0.33899803472297657  0.9080162929902968  1.0000
  O   O16       1.0  0.3270006126847208  0.1468419353176742  0.9010393693942477  1.0000
  O   O17       1.0  0.3473031294523423  0.5437617530994672  0.9128970371626153  1.0000
  O   O18       1.0  0.5198610299347379  0.12990965819730596  0.9101034709967165  1.0000
  O   O19       1.0  0.10674629587468598  0.3623554054624518  0.9123635581620064  1.0000
  O   O20       1.0  0.6002744125199797  0.006437444571837101  0.6741955236243911  1.0000
  O   O21       1.0  0.038870830900961634  0.4069393355808301  0.6692571321987941  1.0000
  O   O22       1.0  0.40118168682795396  0.6354128684787099  0.6828951173344322  1.0000
  O   O23       1.0  0.8779443392529771  0.6685720336262618  0.4325726573778539  1.0000
  O   O24       1.0  0.3199032528209073  0.35679265645246266  0.9777179449120227  1.0000
  O   O25       1.0  0.859085472755943  0.48779264101389697  0.41331626706145397  1.0000
  O   O26       1.0  0.4611102142055825  0.6685424566786793  0.42588031967784445  1.0000
  O   O27       1.0  0.6530429607510513  0.8785864446372216  0.4188067577562862  1.0000
  O   O28       1.0  0.6800713914705198  0.48202542824006406  0.5797468213989845  1.0000
  O   O29       1.0  0.45513346778850683  0.8828952157367591  0.5622765245158449  1.0000
  O   O30       1.0  0.8700507165564417  0.29450770623542866  0.497926263418492  1.0000
  O   O31       1.0  0.1371690333421611  0.7257992729889293  0.9840458746551591  1.0000
