data_image0
_chemical_formula_structural       Zn8P4H52C84O32
_chemical_formula_sum              "Zn8 P4 H52 C84 O32"
_cell_length_a       13.657166168282508
_cell_length_b       14.856310283012213
_cell_length_c       19.9594142117306
_cell_angle_alpha    90.00014697815229
_cell_angle_beta     107.60969971625916
_cell_angle_gamma    89.9999701513837

_space_group_name_H-M_alt    "P 1"
_space_group_IT_number       1

loop_
  _space_group_symop_operation_xyz
  'x, y, z'

loop_
  _atom_site_type_symbol
  _atom_site_label
  _atom_site_symmetry_multiplicity
  _atom_site_fract_x
  _atom_site_fract_y
  _atom_site_fract_z
  _atom_site_occupancy
  Zn  Zn1       1.0  0.396987852222594  0.9723625550735094  0.4371466855639241  1.0000
  Zn  Zn2       1.0  0.643131278214689  0.9025820689415697  0.45008621852850433  1.0000
  Zn  Zn3       1.0  0.6030133659589296  0.4723581637761642  0.06285385635010243  1.0000
  Zn  Zn4       1.0  0.3568668505612678  0.4025824639817018  0.049912542932133895  1.0000
  Zn  Zn5       1.0  0.603013599386216  0.0276416090194047  0.5628557082262516  1.0000
  Zn  Zn6       1.0  0.35686864931273726  0.09741872957360441  0.5499133514741458  1.0000
  Zn  Zn7       1.0  0.3969873347159377  0.5276385960495064  0.9371448732764948  1.0000
  Zn  Zn8       1.0  0.6431315454801023  0.5974176614169125  0.9500857047951  1.0000
  P   P1        1.0  0.7233599386405986  0.9737407860529503  0.3052188736791095  1.0000
  P   P2        1.0  0.2766412824347028  0.47374172217818267  0.19478117044119608  1.0000
  P   P3        1.0  0.2766399864181537  0.026257993119159606  0.6947811968247208  1.0000
  P   P4        1.0  0.7233601839837576  0.5262590763363094  0.8052182203267434  1.0000
  H   H1        1.0  0.4441744371679163  0.17267766372636834  0.17676892229292918  1.0000
  H   H2        1.0  0.7426025367734328  0.2542321515197017  0.17097705754164136  1.0000
  H   H3        1.0  0.567398926412487  0.055488806764365996  0.42622483258676175  1.0000
  H   H4        1.0  0.5213664149322029  0.041461482142999315  0.253291106356663  1.0000
  H   H5        1.0  0.6627464649962321  0.7910002898025895  0.3156287897684891  1.0000
  H   H6        1.0  0.8413205462358134  0.09655139704194232  0.409491250184942  1.0000
  H   H7        1.0  0.029712573341164703  0.11142753265967544  0.4701664382300947  1.0000
  H   H8        1.0  0.8216431988460896  0.12169262312603023  0.24578402726287854  1.0000
  H   H9        1.0  0.7323758849836325  0.958128982656291  0.15908296742216524  1.0000
  H   H10       1.0  0.6346610711665761  0.6599023249220722  0.2323274407455002  1.0000
  H   H11       1.0  0.6974645010616953  0.8279316466646096  0.07568951020257232  1.0000
  H   H12       1.0  0.09117368632826131  0.8910495566215674  0.35027373320863114  1.0000
  H   H13       1.0  0.9029331006678588  0.8754753975867902  0.28758204427540324  1.0000
  H   H14       1.0  0.5558236183122461  0.6726815831013938  0.3232298885835334  1.0000
  H   H15       1.0  0.2573924734541109  0.7542321970343269  0.32902077030739457  1.0000
  H   H16       1.0  0.4326014025346296  0.5554878825038615  0.07377322924741489  1.0000
  H   H17       1.0  0.4786362044543964  0.5414631543606917  0.2467094118726152  1.0000
  H   H18       1.0  0.3372531633580564  0.2909984679831156  0.18437057452922545  1.0000
  H   H19       1.0  0.15867747838557728  0.5965486443117953  0.09050891282863198  1.0000
  H   H20       1.0  0.9702846802461664  0.6114208103665105  0.029835094842994236  1.0000
  H   H21       1.0  0.17835945759899371  0.6216904283225447  0.2542141458667331  1.0000
  H   H22       1.0  0.2676268701730677  0.45812975660565075  0.34091686683165523  1.0000
  H   H23       1.0  0.365336975439945  0.15989875889334118  0.2676723460636907  1.0000
  H   H24       1.0  0.3025328291000591  0.3279333658720633  0.42431044566453113  1.0000
  H   H25       1.0  0.908832876876481  0.3910419525568188  0.1497292751086761  1.0000
  H   H26       1.0  0.0970742308872232  0.3754697508054577  0.212420093113991  1.0000
  H   H27       1.0  0.5558239588730416  0.8273197692136665  0.8232293254316685  1.0000
  H   H28       1.0  0.2573943154399743  0.7457666276520457  0.8290223704252923  1.0000
  H   H29       1.0  0.4326010085201375  0.9445126648628419  0.5737732359070833  1.0000
  H   H30       1.0  0.47863197370377003  0.9585366239142846  0.7467086428780546  1.0000
  H   H31       1.0  0.33725422086866524  0.2089978162575719  0.6843729428783616  1.0000
  H   H32       1.0  0.1586763084463669  0.9034500745875038  0.5905076772814795  1.0000
  H   H33       1.0  0.9702827325771538  0.8885779776617966  0.5298346704876309  1.0000
  H   H34       1.0  0.1783567385543705  0.8783054829270968  0.754213540724507  1.0000
  H   H35       1.0  0.2676232718635774  0.0418684502864366  0.840916942446114  1.0000
  H   H36       1.0  0.3653411585268175  0.3401004929381772  0.7676731116649478  1.0000
  H   H37       1.0  0.3025323486831367  0.1720657862787149  0.9243104182662022  1.0000
  H   H38       1.0  0.9088331378233931  0.10895595370301693  0.6497307860287336  1.0000
  H   H39       1.0  0.09707450156827238  0.12452809339048802  0.7124206335815727  1.0000
  H   H40       1.0  0.44417476785598353  0.32732056164461903  0.6767703611583045  1.0000
  H   H41       1.0  0.7426043911011035  0.24576658213307925  0.6709761551437694  1.0000
  H   H42       1.0  0.5673993030773801  0.4445115697786478  0.9262244993755147  1.0000
  H   H43       1.0  0.5213675616613571  0.45853764415581116  0.7532914618043022  1.0000
  H   H44       1.0  0.6627467715739429  0.7089989649562372  0.8156274939606618  1.0000
  H   H45       1.0  0.8413224442048134  0.4034501348611813  0.9094916581783464  1.0000
  H   H46       1.0  0.029714474132987306  0.38857864192102215  0.9701653155304228  1.0000
  H   H47       1.0  0.8216427893721061  0.37830700461447725  0.745782903016348  1.0000
  H   H48       1.0  0.7323776740271626  0.5418690225635461  0.6590821654648806  1.0000
  H   H49       1.0  0.6346629496190204  0.8401013665080586  0.7323277244414541  1.0000
  H   H50       1.0  0.6974686373184084  0.672067432642429  0.5756889451034083  1.0000
  H   H51       1.0  0.0911701185589564  0.6089548072725962  0.8502719384332166  1.0000
  H   H52       1.0  0.9029287670165688  0.6245270090230975  0.7875806199247463  1.0000
  C   C1        1.0  0.7017393492822066  0.8818167824577544  0.24316734407233298  1.0000
  C   C2        1.0  0.8603123884125666  0.9854960943240629  0.3440781582709107  1.0000
  C   C3        1.0  0.6761247263291209  0.07322303292403383  0.25372088684139976  1.0000
  C   C4        1.0  0.5890308318948526  0.22092310879239116  0.16991660907166303  1.0000
  C   C5        1.0  0.5413678125724529  0.30104589956787464  0.12598366830182073  1.0000
  C   C6        1.0  0.5266033045101252  0.16079113975985856  0.19264364988491417  1.0000
  C   C7        1.0  0.6953148533422961  0.206646354653472  0.18908704218254968  1.0000
  C   C8        1.0  0.07080960175587592  0.0022455366984175007  0.4134168528051276  1.0000
  C   C9        1.0  0.5695736567022607  0.0876108511155707  0.23459181137658905  1.0000
  C   C10       1.0  0.18401784847585395  0.0112552132821904  0.45065198052596145  1.0000
  C   C11       1.0  0.6734852524496304  0.7980766518427204  0.2639310498052864  1.0000
  C   C12       1.0  0.8959351111281181  0.05224224212667392  0.39562575946841594  1.0000
  C   C13       1.0  0.0005680154964053996  0.060539329597268904  0.42979798728599405  1.0000
  C   C14       1.0  0.7388475789047176  0.13276669913619094  0.2306763268350593  1.0000
  C   C15       1.0  0.7113610308555209  0.8927541027079969  0.17551303165191004  1.0000
  C   C16       1.0  0.6562605465543001  0.7257409833577955  0.21742047214488738  1.0000
  C   C17       1.0  0.6922292473234748  0.8204985350399311  0.12883615402918733  1.0000
  C   C18       1.0  0.0353161642974555  0.9356959388483195  0.3621623267938361  1.0000
  C   C19       1.0  0.9305106674329906  0.9273779839025877  0.32743445258076775  1.0000
  C   C20       1.0  0.664844106082171  0.7365012746970552  0.1497595146762762  1.0000
  C   C21       1.0  0.6428463269727019  0.6584360489913694  0.09947973660312211  1.0000
  C   C22       1.0  0.2982610777302881  0.3818159038465795  0.2568318585465761  1.0000
  C   C23       1.0  0.1396903677699939  0.4854956159482173  0.1559232311876144  1.0000
  C   C24       1.0  0.32387790777896447  0.5732234324859746  0.24627869269902192  1.0000
  C   C25       1.0  0.4109649387512917  0.720927122180527  0.3300808135573233  1.0000
  C   C26       1.0  0.4586264512718614  0.8010513883542744  0.3740125892611772  1.0000
  C   C27       1.0  0.47339474977614054  0.6607930247436188  0.30735463716408856  1.0000
  C   C28       1.0  0.3046824517961468  0.7066476606824922  0.31091017319694453  1.0000
  C   C29       1.0  0.9291914493786138  0.5022403772891695  0.08658727122944043  1.0000
  C   C30       1.0  0.43042821115876967  0.5876119384199114  0.2654081362634884  1.0000
  C   C31       1.0  0.8159801301202594  0.5112479603687278  0.04935201915052553  1.0000
  C   C32       1.0  0.3265166802501867  0.2980736682092839  0.2360693107814953  1.0000
  C   C33       1.0  0.10406366311732282  0.5522395639522203  0.10437547824766819  1.0000
  C   C34       1.0  0.9994307662412893  0.5605327330984835  0.07020226569947847  1.0000
  C   C35       1.0  0.2611535445297619  0.6327672090008322  0.2693215467569843  1.0000
  C   C36       1.0  0.2886393970581694  0.39275346328199134  0.3244866929302788  1.0000
  C   C37       1.0  0.34373982496973804  0.22573882570920034  0.28257992574906143  1.0000
  C   C38       1.0  0.30777192407323645  0.3204993943651289  0.3711640899206614  1.0000
  C   C39       1.0  0.9646896493873314  0.43568961270699463  0.13783960748395435  1.0000
  C   C40       1.0  0.06949513628455152  0.4273742316995596  0.1725689668885266  1.0000
  C   C41       1.0  0.3351562638203732  0.23650070198327466  0.3502419053380876  1.0000
  C   C42       1.0  0.3571555478979676  0.15843900547351106  0.4005233530224075  1.0000
  C   C43       1.0  0.29826134151993244  0.11818468917389426  0.756833387571511  1.0000
  C   C44       1.0  0.139689075537639  0.014505377305937407  0.655921733000845  1.0000
  C   C45       1.0  0.3238729064374297  0.9267757462434646  0.7462761992439794  1.0000
  C   C46       1.0  0.4109660301917942  0.7790743241465992  0.8300808168813275  1.0000
  C   C47       1.0  0.4586305908735967  0.6989515333695523  0.8740130779133112  1.0000
  C   C48       1.0  0.47339509153103887  0.8392076394094659  0.8073545978409981  1.0000
  C   C49       1.0  0.304682774487226  0.793350405171829  0.8109110449071649  1.0000
  C   C50       1.0  0.9291903084937444  0.9977599736253355  0.5865862207242357  1.0000
  C   C51       1.0  0.4304239735957226  0.9123865818235048  0.765405775210631  1.0000
  C   C52       1.0  0.8159797497348649  0.9887516432731831  0.5493521126115226  1.0000
  C   C53       1.0  0.3265169723068269  0.20192481978997281  0.7360705036101578  1.0000
  C   C54       1.0  0.1040632775085797  0.9477605757331138  0.6043739897709273  1.0000
  C   C55       1.0  0.9994296024610136  0.9394661807218727  0.5702021018249254  1.0000
  C   C56       1.0  0.2611508270094872  0.8672293875710866  0.7693199188755954  1.0000
  C   C57       1.0  0.2886388942031317  0.10724400334947151  0.8244870388512525  1.0000
  C   C58       1.0  0.3437386102936344  0.27426116138743584  0.7825794377280175  1.0000
  C   C59       1.0  0.3077706727984477  0.17949957101927086  0.8711649174802857  1.0000
  C   C60       1.0  0.964688362625168  0.06430889835873901  0.6378402090307275  1.0000
  C   C61       1.0  0.0694938545524977  0.0726241608476386  0.6725690842474705  1.0000
  C   C62       1.0  0.3351550482968834  0.2634975044758363  0.8502408956964871  1.0000
  C   C63       1.0  0.35715282740603993  0.3415607108375838  0.9005206737676585  1.0000
  C   C64       1.0  0.7017411568994163  0.6181842215533635  0.7431676928549251  1.0000
  C   C65       1.0  0.8603110887750207  0.5145051825697493  0.8440781615929466  1.0000
  C   C66       1.0  0.6761258632734056  0.4267766929141459  0.7537211799709239  1.0000
  C   C67       1.0  0.5890311477196519  0.2790750225634683  0.6699179532755364  1.0000
  C   C68       1.0  0.5413665648224111  0.19895277573241546  0.6259850345336204  1.0000
  C   C69       1.0  0.5266044095400558  0.3392084468861115  0.692644772205  1.0000
  C   C70       1.0  0.6953151809705105  0.2933517915996477  0.6890869128890955  1.0000
  C   C71       1.0  0.07081076550418432  0.49775974811771573  0.9134162841973107  1.0000
  C   C72       1.0  0.5695740185340981  0.4123875138671239  0.7345924161436626  1.0000
  C   C73       1.0  0.18402055574443216  0.4887487994621509  0.9506497134950108  1.0000
  C   C74       1.0  0.6734855568477727  0.7019257840751436  0.7639297401161897  1.0000
  C   C75       1.0  0.8959347205823462  0.44776123456537686  0.8956252719960104  1.0000
  C   C76       1.0  0.0005683856696095021  0.43946739230455745  0.9297986451777543  1.0000
  C   C77       1.0  0.7388479268250168  0.3672308970533465  0.7306768430020014  1.0000
  C   C78       1.0  0.7113628351028539  0.6072446427748875  0.6755133589723953  1.0000
  C   C79       1.0  0.6562608683005635  0.774261299692292  0.7174203053903057  1.0000
  C   C80       1.0  0.6922310738309747  0.6795000579219987  0.6288366231207121  1.0000
  C   C81       1.0  0.0353141142595348  0.5643078202371544  0.8621617666928144  1.0000
  C   C82       1.0  0.9305086298305838  0.5726225281290882  0.827431906784426  1.0000
  C   C83       1.0  0.6648467316154693  0.7634987503047203  0.6497593082064411  1.0000
  C   C84       1.0  0.6428482009395611  0.8415638123929982  0.59948102417858  1.0000
  O   O1        1.0  0.6672535744918663  0.9609873899700717  0.3591425032860868  1.0000
  O   O2        1.0  0.4445058989999211  0.30926193626279297  0.11205857042653382  1.0000
  O   O3        1.0  0.20999729302425865  0.07578139989475831  0.49505366595221284  1.0000
  O   O4        1.0  0.6404246913110683  0.5804921130841624  0.12646171832483333  1.0000
  O   O5        1.0  0.6025433701356208  0.35309578868715635  0.10747294137498643  1.0000
  O   O6        1.0  0.24352172025719204  0.9547673722457973  0.43526260690051544  1.0000
  O   O7        1.0  0.6272814894808363  0.6756683489418763  0.03496749546015824  1.0000
  O   O8        1.0  0.5549434467557645  0.008350643702357304  0.4564591357172532  1.0000
  O   O9        1.0  0.3327484083971655  0.46098676573156183  0.1408581769468782  1.0000
  O   O10       1.0  0.5554883575018934  0.8092660801109163  0.3879397052682876  1.0000
  O   O11       1.0  0.7900014983453332  0.5757713132013225  0.004945615929685182  1.0000
  O   O12       1.0  0.3595748573809913  0.08049295551585801  0.37354023596058267  1.0000
  O   O13       1.0  0.39744783936660616  0.8530986788525965  0.392522275271446  1.0000
  O   O14       1.0  0.7564763949751098  0.45476560550805817  0.06474226298760755  1.0000
  O   O15       1.0  0.37272270273740554  0.17566882903910405  0.46503460836729715  1.0000
  O   O16       1.0  0.44505609452103573  0.5083489354828502  0.04353967399940473  1.0000
  O   O17       1.0  0.33274865026427863  0.039012062318697416  0.6408590501273821  1.0000
  O   O18       1.0  0.555492497041243  0.6907368429065316  0.8879396772993857  1.0000
  O   O19       1.0  0.790001098081845  0.924228149110597  0.504945582790576  1.0000
  O   O20       1.0  0.3595752263423933  0.41950531986126555  0.8735398536871415  1.0000
  O   O21       1.0  0.39745196293364415  0.6469029904783241  0.8925226618014149  1.0000
  O   O22       1.0  0.7564766412274153  0.04523477250889841  0.5647426478728831  1.0000
  O   O23       1.0  0.3727192037890461  0.3243290840010431  0.9650327356765728  1.0000
  O   O24       1.0  0.4450572489832041  0.991651501042192  0.5435405949209411  1.0000
  O   O25       1.0  0.667251521598523  0.539013359668104  0.8591408925519559  1.0000
  O   O26       1.0  0.4445054218667792  0.1907367377483169  0.6120590801657215  1.0000
  O   O27       1.0  0.20999997054055797  0.42422342728050216  0.9950532743291589  1.0000
  O   O28       1.0  0.640426591758832  0.9195071698900608  0.6264626583287836  1.0000
  O   O29       1.0  0.6025459400020665  0.14690413900664373  0.6074765101625629  1.0000
  O   O30       1.0  0.24352352021030296  0.5452338467821677  0.9352598095295049  1.0000
  O   O31       1.0  0.6272802852935584  0.824331969480774  0.5349681066880265  1.0000
  O   O32       1.0  0.5549438404111626  0.4916498436857921  0.956458394491797  1.0000
