data_image0
_chemical_formula_structural       Co4H88C124N44O20
_chemical_formula_sum              "Co4 H88 C124 N44 O20"
_cell_length_a       12.550067087464098
_cell_length_b       15.309627978726654
_cell_length_c       21.54592559902432
_cell_angle_alpha    101.13036066196536
_cell_angle_beta     90.00738328781496
_cell_angle_gamma    114.17616445054075

_space_group_name_H-M_alt    "P 1"
_space_group_IT_number       1

loop_
  _space_group_symop_operation_xyz
  'x, y, z'

loop_
  _atom_site_type_symbol
  _atom_site_label
  _atom_site_symmetry_multiplicity
  _atom_site_fract_x
  _atom_site_fract_y
  _atom_site_fract_z
  _atom_site_occupancy
  Co  Co1       1.0  0.10429328306196348  0.557853721050293  0.6597985338394708  1.0000
  Co  Co2       1.0  0.5463614003989791  0.44222109548077515  0.8401980910598469  1.0000
  Co  Co3       1.0  0.8957108569700554  0.44214891572207193  0.3401996631244089  1.0000
  Co  Co4       1.0  0.4536362494956805  0.5577749328390382  0.1598000812430485  1.0000
  H   H1        1.0  0.3842702201746775  0.5785258131651644  0.6406480220774  1.0000
  H   H2        1.0  0.25729328430620063  0.7657593941761859  0.7519001614058923  1.0000
  H   H3        1.0  0.2545206766249351  0.33951498406880637  0.8223770234285155  1.0000
  H   H4        1.0  0.4788340453512064  0.2756210746361489  0.9321854405186374  1.0000
  H   H5        1.0  0.48901507420800533  0.3921714881910177  0.22199532924532414  1.0000
  H   H6        1.0  0.581123612572938  0.4573731268600909  0.04296840635446131  1.0000
  H   H7        1.0  0.386030556225542  0.9277889673609181  0.7936513090308139  1.0000
  H   H8        1.0  0.5187000728221562  0.07448604174103927  0.8705972039954163  1.0000
  H   H9        1.0  0.7784948583547545  0.9565534602104008  0.863471891480117  1.0000
  H   H10       1.0  0.6430472546738814  0.8079527918449613  0.7872534253329706  1.0000
  H   H11       1.0  0.05708229499541771  0.18882489865156057  0.7944912286192435  1.0000
  H   H12       1.0  0.8431855636255108  0.13290209400244626  0.8054263849988105  1.0000
  H   H13       1.0  0.904942044822633  0.16534891443811967  0.006794966620027799  1.0000
  H   H14       1.0  0.1206036605914207  0.22372091023874663  0.9961490205854916  1.0000
  H   H15       1.0  0.8080954638452271  0.30428242665624333  0.9279140760634448  1.0000
  H   H16       1.0  0.7418159863092909  0.4093717594480564  0.0067152753181147825  1.0000
  H   H17       1.0  0.5199332427697456  0.156702378077668  0.07792247799597621  1.0000
  H   H18       1.0  0.5881288389848792  0.05161420907845129  0.999205531843238  1.0000
  H   H19       1.0  0.9971366692304856  0.6543577026886922  0.8685082794889923  1.0000
  H   H20       1.0  0.9571639051994866  0.6271737824208327  0.9764337637071206  1.0000
  H   H21       1.0  0.06538926978081608  0.38916445473875416  0.9377457604271983  1.0000
  H   H22       1.0  0.10417794030148998  0.41841606389126423  0.8297743848522359  1.0000
  H   H23       1.0  0.8056860528091434  0.4212988980270466  0.8592074813380464  1.0000
  H   H24       1.0  0.4912306888157617  0.23434347774218614  0.7482054537975317  1.0000
  H   H25       1.0  0.9149730779184324  0.6603821020412041  0.6775159770090441  1.0000
  H   H26       1.0  0.20285635732124538  0.7242003648844603  0.5675697643821351  1.0000
  H   H27       1.0  0.09622533605796234  0.607575361129541  0.278072540134751  1.0000
  H   H28       1.0  0.12383445992542619  0.5426853394270522  0.4571313496891209  1.0000
  H   H29       1.0  0.4578689121728631  0.07235204430582337  0.7061761583874003  1.0000
  H   H30       1.0  0.4437801778217931  0.9253738236625605  0.6294031564708291  1.0000
  H   H31       1.0  0.8214323539688309  0.043168058818238784  0.6363687056012068  1.0000
  H   H32       1.0  0.8346377323304708  0.19182960579040298  0.7126126027084823  1.0000
  H   H33       1.0  0.8683480890524039  0.8113509108862899  0.705460426295204  1.0000
  H   H34       1.0  0.7103474981511936  0.867289745419043  0.6945688872410828  1.0000
  H   H35       1.0  0.739059691017012  0.8344881014055974  0.4931780520505455  1.0000
  H   H36       1.0  0.8964644844696821  0.7761440388294217  0.5037353469472734  1.0000
  H   H37       1.0  0.5036124648980903  0.6956253895010674  0.5720448828165772  1.0000
  H   H38       1.0  0.33236000289870304  0.5905559521378762  0.4931741964040342  1.0000
  H   H39       1.0  0.36321718578506074  0.8432279749249144  0.4218746308676203  1.0000
  H   H40       1.0  0.536379706372685  0.948278514287999  0.5006744357103088  1.0000
  H   H41       1.0  0.3425051830947723  0.3461754356862911  0.6316407677941811  1.0000
  H   H42       1.0  0.329938981241277  0.3731684538700789  0.5236444336329029  1.0000
  H   H43       1.0  0.6762069525297676  0.6106987123229783  0.562228487348044  1.0000
  H   H44       1.0  0.685788637734582  0.581608304627842  0.6702430632127019  1.0000
  H   H45       1.0  0.6157280370073224  0.4214746186920735  0.3593503209385247  1.0000
  H   H46       1.0  0.7427066109329417  0.23423953187201355  0.24810028535093664  1.0000
  H   H47       1.0  0.7454793515569662  0.6604810196555063  0.17762253787905286  1.0000
  H   H48       1.0  0.521169845560749  0.7243778749911909  0.06781361733189326  1.0000
  H   H49       1.0  0.5109878710858097  0.6078303516014425  0.7780064659992051  1.0000
  H   H50       1.0  0.4188720538036819  0.542622120749769  0.9570324382382722  1.0000
  H   H51       1.0  0.6139666025590672  0.0722092668903755  0.20634671712166866  1.0000
  H   H52       1.0  0.48130028887285903  0.9255122242878996  0.1293989702492055  1.0000
  H   H53       1.0  0.22150415100512794  0.0434484770747332  0.13652434783179504  1.0000
  H   H54       1.0  0.35695185975062316  0.19204616661610874  0.21274516945451444  1.0000
  H   H55       1.0  0.9429230970483148  0.811175459419182  0.20551128141070052  1.0000
  H   H56       1.0  0.1568193492559686  0.8671004942141421  0.19457458991293214  1.0000
  H   H57       1.0  0.09505832077849154  0.8346573293999382  0.9932069992883471  1.0000
  H   H58       1.0  0.8793975503044323  0.7762838359887709  0.003854586062225025  1.0000
  H   H59       1.0  0.19190394028387206  0.6957187053234434  0.0720862245429714  1.0000
  H   H60       1.0  0.25818340985462374  0.5906293563887244  0.9932859512668273  1.0000
  H   H61       1.0  0.480070692709326  0.8432950659947308  0.9220786835708668  1.0000
  H   H62       1.0  0.41187187689482135  0.9483847652714344  0.0007921369903200999  1.0000
  H   H63       1.0  0.0028657849532862977  0.3456463430352412  0.1314933696051312  1.0000
  H   H64       1.0  0.04284080627654425  0.3728331852458595  0.02356877087314052  1.0000
  H   H65       1.0  0.9346133897909895  0.6108352196065353  0.06225386600914361  1.0000
  H   H66       1.0  0.8958206065851045  0.5815865414845901  0.1702256639826132  1.0000
  H   H67       1.0  0.19430423692277543  0.5787015351006417  0.14079086155491183  1.0000
  H   H68       1.0  0.508767173597022  0.7656577594204989  0.251788827923889  1.0000
  H   H69       1.0  0.0850315738951934  0.3396167748160011  0.32248724775713106  1.0000
  H   H70       1.0  0.7971445766528688  0.2757926679601965  0.4324316894240425  1.0000
  H   H71       1.0  0.9037780032464581  0.39242726769841596  0.7219261198060991  1.0000
  H   H72       1.0  0.8761627871583431  0.45731944779296896  0.542869941950805  1.0000
  H   H73       1.0  0.5421283031266527  0.9276447086048946  0.29382258251361293  1.0000
  H   H74       1.0  0.5562178787898518  0.07462142356616401  0.37059768815878874  1.0000
  H   H75       1.0  0.17856754525289645  0.9568308753014206  0.36363127816635915  1.0000
  H   H76       1.0  0.16535813063391203  0.8081708183765172  0.287386203259814  1.0000
  H   H77       1.0  0.13165593074323573  0.18865307808337659  0.29454446374833765  1.0000
  H   H78       1.0  0.2896574187128707  0.13271285086899803  0.3054316246814039  1.0000
  H   H79       1.0  0.260945395391758  0.16551005086071063  0.5068246041175258  1.0000
  H   H80       1.0  0.10353966826872352  0.22385702781635072  0.4962686576470077  1.0000
  H   H81       1.0  0.49638509662092634  0.3043720555876915  0.42795627865188385  1.0000
  H   H82       1.0  0.6676344878175869  0.4094481029279677  0.506826989577853  1.0000
  H   H83       1.0  0.6367812162109914  0.156777528560461  0.5781276923842711  1.0000
  H   H84       1.0  0.4636226833309963  0.05172699663361159  0.499327424613803  1.0000
  H   H85       1.0  0.6574991869794431  0.6538212837952031  0.3683598251745438  1.0000
  H   H86       1.0  0.6700606688603868  0.6268267931045626  0.47635641102130677  1.0000
  H   H87       1.0  0.3237852243793569  0.3893039021406891  0.4377710983991818  1.0000
  H   H88       1.0  0.31421029121484173  0.4183950655691504  0.3297552392862572  1.0000
  C   C1        1.0  0.38124018585693165  0.6412658444681085  0.6728908239052488  1.0000
  C   C2        1.0  0.3150391004967901  0.735951074611961  0.7282772208045856  1.0000
  C   C3        1.0  0.28846066303331963  0.3086476565083133  0.854531401099571  1.0000
  C   C4        1.0  0.4000008264698565  0.27517423865131013  0.9111438448899706  1.0000
  C   C5        1.0  0.5206064583955412  0.39038102272255054  0.17523817301457711  1.0000
  C   C6        1.0  0.5669328880438798  0.4261474739699764  0.08512004634904  1.0000
  C   C7        1.0  0.5077872626143716  0.8595815344636788  0.784350963870672  1.0000
  C   C8        1.0  0.4717321772503313  0.9334182084492538  0.8090985748566624  1.0000
  C   C9        1.0  0.5466959801056817  0.016484722323589596  0.8524831822692679  1.0000
  C   C10       1.0  0.6594726968856435  0.02727764004096399  0.8715244249976095  1.0000
  C   C11       1.0  0.6931011977591623  0.9508470068639241  0.8474797300574296  1.0000
  C   C12       1.0  0.6183074578694062  0.8680801687490102  0.8044185445147108  1.0000
  C   C13       1.0  0.10044754890738973  0.2089677679165334  0.8950119217249011  1.0000
  C   C14       1.0  0.023565336280853413  0.18361726703110293  0.8409518943708464  1.0000
  C   C15       1.0  0.9039842585965658  0.15193906952195138  0.846929995333284  1.0000
  C   C16       1.0  0.8608250516332846  0.14485350967495236  0.9066203759142297  1.0000
  C   C17       1.0  0.9388416359824346  0.17016364569047224  0.9604156301882798  1.0000
  C   C18       1.0  0.058578798666786724  0.2021317320962908  0.954827442287332  1.0000
  C   C19       1.0  0.6999113459343108  0.1711748550930494  0.9575904720700806  1.0000
  C   C20       1.0  0.743727233150139  0.27207515791732106  0.9601425672789433  1.0000
  C   C21       1.0  0.7065202980445308  0.3307670269794086  0.003982503095208805  1.0000
  C   C22       1.0  0.6251184223605932  0.28824548963623897  0.04554184670727321  1.0000
  C   C23       1.0  0.581460639002735  0.18765968572939323  0.04407433646751  1.0000
  C   C24       1.0  0.6193843723786543  0.1296234198146919  0.00024018674634620468  1.0000
  C   C25       1.0  0.07870787206373825  0.5544911093723073  0.7768233302119968  1.0000
  C   C26       1.0  0.05665838745510854  0.5399730768364037  0.8427654864974841  1.0000
  C   C27       1.0  0.014108477695401729  0.5977261788953498  0.8846853140191441  1.0000
  C   C28       1.0  0.9915124728205528  0.5816242536703271  0.9456140480748232  1.0000
  C   C29       1.0  0.010313256147966927  0.5073484918688179  0.9671761065489266  1.0000
  C   C30       1.0  0.050313772979144765  0.4480819515334318  0.9238339809133082  1.0000
  C   C31       1.0  0.07347486445362963  0.46446901251598394  0.8630692730268734  1.0000
  C   C32       1.0  0.7398562628589076  0.35862017775671984  0.8269834049393271  1.0000
  C   C33       1.0  0.5788480401135557  0.2640733004682686  0.7717177642734825  1.0000
  C   C34       1.0  0.9796750705230721  0.6912276643176725  0.6453302249315698  1.0000
  C   C35       1.0  0.12451379494361696  0.7246349878150011  0.5886406926009116  1.0000
  C   C36       1.0  0.12980301221127638  0.6094512938243212  0.32480878199235264  1.0000
  C   C37       1.0  0.14066528893354768  0.5738669143860733  0.4149562829060259  1.0000
  C   C38       1.0  0.6478366078178298  0.140365313137174  0.7154683791286942  1.0000
  C   C39       1.0  0.537891732006905  0.06661484185041638  0.6907322276703098  1.0000
  C   C40       1.0  0.5297521729434393  0.9834317230825178  0.6474438456516581  1.0000
  C   C41       1.0  0.6317306325752484  0.9725944587274213  0.6283956419448629  1.0000
  C   C42       1.0  0.7417931874396116  0.04898403831253971  0.6523457160977912  1.0000
  C   C43       1.0  0.7497969737334105  0.1317511328539638  0.695412263035692  1.0000
  C   C44       1.0  0.8912246320197923  0.7909559975954676  0.6048901607851961  1.0000
  C   C45       1.0  0.8398949482170437  0.8164774127906964  0.658995430578976  1.0000
  C   C46       1.0  0.7519997169852957  0.8481676101856193  0.6530546152850861  1.0000
  C   C47       1.0  0.7156526416032563  0.8550572098734363  0.5933663480699708  1.0000
  C   C48       1.0  0.768209749766342  0.8296607638174933  0.5395381392046519  1.0000
  C   C49       1.0  0.8560236499924871  0.7976979269376088  0.5450678592917271  1.0000
  C   C50       1.0  0.5284964381257853  0.8287070791264526  0.5423388114790484  1.0000
  C   C51       1.0  0.47150416103590953  0.7278251800572022  0.5397781876981469  1.0000
  C   C52       1.0  0.375700034037706  0.6691538398170066  0.49588911725083323  1.0000
  C   C53       1.0  0.3368144864106811  0.7116888985930102  0.45431549751927497  1.0000
  C   C54       1.0  0.3937732690304471  0.8122521435865122  0.45573385125906196  1.0000
  C   C55       1.0  0.4896358926941532  0.8702529616774513  0.4996214084723861  1.0000
  C   C56       1.0  0.5242567342164365  0.445772823315707  0.723250711722635  1.0000
  C   C57       1.0  0.5166131577013644  0.46027173587128084  0.6573283299272674  1.0000
  C   C58       1.0  0.41624694690270303  0.4026450713582292  0.6154430546005543  1.0000
  C   C59       1.0  0.40983923457117294  0.4186271656986448  0.5544596235003354  1.0000
  C   C60       1.0  0.5029464485444635  0.492738087651439  0.5328526750339719  1.0000
  C   C61       1.0  0.6021885414864485  0.5519383161240582  0.5761994095452891  1.0000
  C   C62       1.0  0.6089826158122735  0.5356260730590775  0.6369909074938108  1.0000
  C   C63       1.0  0.6187607711776479  0.3587368008838893  0.3271069100201842  1.0000
  C   C64       1.0  0.6849606896777232  0.26405083026031656  0.27172087047666343  1.0000
  C   C65       1.0  0.7115369709309646  0.6913483395256818  0.14546862316037593  1.0000
  C   C66       1.0  0.5999988475273597  0.7248210567520558  0.0888542218286759  1.0000
  C   C67       1.0  0.4793993077458439  0.6096200840264103  0.8247635166579883  1.0000
  C   C68       1.0  0.43306714412061353  0.5738485378257963  0.9148790519692724  1.0000
  C   C69       1.0  0.49221198475289196  0.1404145016735043  0.2156467454675592  1.0000
  C   C70       1.0  0.5282662693893343  0.0665778197435145  0.19089959745853244  1.0000
  C   C71       1.0  0.4533047477217952  0.983514276240662  0.14751309759650166  1.0000
  C   C72       1.0  0.3405290003790427  0.9727264865245715  0.12847259419159943  1.0000
  C   C73       1.0  0.3069016743307671  0.0491578763242373  0.1525160057974375  1.0000
  C   C74       1.0  0.3816962595152519  0.13192321682862476  0.1955788320795051  1.0000
  C   C75       1.0  0.8995544388969919  0.7910289680890088  0.10498774522841364  1.0000
  C   C76       1.0  0.9764341768954523  0.8163808941959656  0.15905029872187984  1.0000
  C   C77       1.0  0.09601733037951739  0.8480664334552515  0.15307232796779863  1.0000
  C   C78       1.0  0.13917234034102685  0.8551483794355474  0.0933786413086608  1.0000
  C   C79       1.0  0.06115726907143686  0.8298396760777819  0.03958545024624979  1.0000
  C   C80       1.0  0.9414213297620507  0.7978708488111154  0.04517399553989782  1.0000
  C   C81       1.0  0.30008806615997247  0.8288262930295504  0.04240890255781692  1.0000
  C   C82       1.0  0.2562749193812622  0.7279266900736303  0.03985876496403053  1.0000
  C   C83       1.0  0.2934786595416484  0.6692348053768171  0.9960197550771074  1.0000
  C   C84       1.0  0.37488065622057587  0.7117533961817345  0.9544609149835637  1.0000
  C   C85       1.0  0.41854005298141317  0.8123392401917682  0.9559261103016186  1.0000
  C   C86       1.0  0.38061510419571226  0.8703762631102306  0.999758976651549  1.0000
  C   C87       1.0  0.9212876367159595  0.44550860647365903  0.2231739811673705  1.0000
  C   C88       1.0  0.9433390005366107  0.46002880420264347  0.1572339937146623  1.0000
  C   C89       1.0  0.985892028813673  0.40227715876173414  0.11531484046144413  1.0000
  C   C90       1.0  0.008488045636298153  0.4183791082011226  0.05438471743798351  1.0000
  C   C91       1.0  0.9896892744636715  0.4926541128718113  0.03282394234741302  1.0000
  C   C92       1.0  0.949686069727683  0.5519184639268033  0.07616528810572731  1.0000
  C   C93       1.0  0.9265237668260157  0.5355321680194791  0.13692824963167996  1.0000
  C   C94       1.0  0.26013446146815505  0.6413795307800638  0.17301436935552064  1.0000
  C   C95       1.0  0.42114797570655327  0.7359242417320357  0.2282778412992528  1.0000
  C   C96       1.0  0.020329931492646804  0.3087719127890266  0.3546749574127972  1.0000
  C   C97       1.0  0.8754904987027388  0.27536317264979715  0.4113615005655973  1.0000
  C   C98       1.0  0.8701958283625116  0.39055349314160975  0.675192509672165  1.0000
  C   C99       1.0  0.8593346619854003  0.4261400944001609  0.5850439366541523  1.0000
  C   C100      1.0  0.3521554409662214  0.8596306676432233  0.2845325710236963  1.0000
  C   C101      1.0  0.4621051251253335  0.9333811946678949  0.3092654816310301  1.0000
  C   C102      1.0  0.47024459979574834  0.0165657382761921  0.35255638982599186  1.0000
  C   C103      1.0  0.3682709206339895  0.027403001869018298  0.3716045936065626  1.0000
  C   C104      1.0  0.2582036497796666  0.9510119578485005  0.3476543081498563  1.0000
  C   C105      1.0  0.25019936839323265  0.8682470611671035  0.3045880780507986  1.0000
  C   C106      1.0  0.10878117868871581  0.20904360359855187  0.3951136326036817  1.0000
  C   C107      1.0  0.16010976807666571  0.18351999886883869  0.34100758295720374  1.0000
  C   C108      1.0  0.24800415401369955  0.15183129908444928  0.3469467575117521  1.0000
  C   C109      1.0  0.28434975291811776  0.14493874504101703  0.4066359912100666  1.0000
  C   C110      1.0  0.2317917914951195  0.17033667256458068  0.4604634853145556  1.0000
  C   C111      1.0  0.14397677295863082  0.20229727148124965  0.4549357633103526  1.0000
  C   C112      1.0  0.4715022178080233  0.1712925554967839  0.4576631298421177  1.0000
  C   C113      1.0  0.5284928894601038  0.27217443060576574  0.4602251425662089  1.0000
  C   C114      1.0  0.6242945131934832  0.33084873390825453  0.5041127834795845  1.0000
  C   C115      1.0  0.663185577538073  0.28831514751205845  0.5456861515379502  1.0000
  C   C116      1.0  0.6062259257280188  0.18775335170036556  0.5442689349943919  1.0000
  C   C117      1.0  0.5103638417240717  0.12974883019445113  0.5003831646585227  1.0000
  C   C118      1.0  0.4757471367825517  0.5542260859543617  0.2767506610742032  1.0000
  C   C119      1.0  0.48338912379020377  0.5397271817243308  0.3426725798557158  1.0000
  C   C120      1.0  0.5837548920285373  0.5973545546853811  0.38455934975905853  1.0000
  C   C121      1.0  0.5901594253452274  0.5813724769960514  0.4455418548315678  1.0000
  C   C122      1.0  0.49704810266931804  0.5072644941452751  0.46714876270718264  1.0000
  C   C123      1.0  0.39780607819000835  0.4480628085464389  0.4238013539766072  1.0000
  C   C124      1.0  0.391018080154467  0.4643728609335369  0.36300907628605483  1.0000
  N   N1        1.0  0.2799912714323583  0.6518424435466912  0.6853996205346818  1.0000
  N   N2        1.0  0.43302581913221894  0.7745854298053346  0.7401668016167449  1.0000
  N   N3        1.0  0.4765344723984625  0.7142995283696151  0.7049207469898988  1.0000
  N   N4        1.0  0.401022688277081  0.329054680201665  0.8671093757501043  1.0000
  N   N5        1.0  0.22303572669047614  0.24487635846181627  0.8897305109001863  1.0000
  N   N6        1.0  0.2936086648187342  0.2230372363677801  0.9264907742760258  1.0000
  N   N7        1.0  0.5247419544540861  0.45496951457240425  0.1382951232678451  1.0000
  N   N8        1.0  0.5570722821615632  0.32356196363604534  0.1481227847062527  1.0000
  N   N9        1.0  0.5864290958215435  0.3470183072144977  0.09060958086971743  1.0000
  N   N10       1.0  0.738770794996853  0.11210305606811487  0.9128198655083894  1.0000
  N   N11       1.0  0.1478062796114586  0.4564189469899134  0.5539901260310459  1.0000
  N   N12       1.0  0.6280380079533358  0.348150806683364  0.8146085944074458  1.0000
  N   N13       1.0  0.6581523378644933  0.22538245684635433  0.759666094689699  1.0000
  N   N14       1.0  0.7620035362295853  0.28557845532650117  0.7948477592904339  1.0000
  N   N15       1.0  0.07180781314385605  0.670802498996835  0.6327135081546374  1.0000
  N   N16       1.0  0.9779048038246929  0.7549934953088095  0.6101314584438242  1.0000
  N   N17       1.0  0.07021587143287891  0.7767940932306557  0.5733246589543199  1.0000
  N   N18       1.0  0.06953744560487259  0.5449542749852156  0.3618199533058757  1.0000
  N   N19       1.0  0.23311492145831636  0.6762815196862701  0.3518188256180963  1.0000
  N   N20       1.0  0.2392200255321698  0.6529366800292564  0.40935271616270097  1.0000
  N   N21       1.0  0.6262365086330989  0.8877123965123843  0.5871900219886044  1.0000
  N   N22       1.0  0.6912782001863108  0.5435692181366248  0.946054624004141  1.0000
  N   N23       1.0  0.720010112232181  0.3481594610714893  0.31459847077116626  1.0000
  N   N24       1.0  0.5669717137500428  0.22541355312418432  0.2598304041783592  1.0000
  N   N25       1.0  0.5234653862387333  0.2857009193764383  0.29507667007209903  1.0000
  N   N26       1.0  0.598974655982609  0.6709391423137134  0.13288894269091142  1.0000
  N   N27       1.0  0.7769666192811756  0.7551210939361251  0.1102701876527945  1.0000
  N   N28       1.0  0.7063929528705872  0.7769587590309895  0.07350925004540441  1.0000
  N   N29       1.0  0.47525996887020483  0.5450286866308004  0.8617047549154647  1.0000
  N   N30       1.0  0.4429353711570201  0.6764413244489089  0.8518801478205802  1.0000
  N   N31       1.0  0.4135735438373018  0.6529813267735135  0.9093923605129319  1.0000
  N   N32       1.0  0.2612274621851398  0.887897375789123  0.08717847750753552  1.0000
  N   N33       1.0  0.8521940335338414  0.543580816522514  0.4460044074865338  1.0000
  N   N34       1.0  0.37195518701920366  0.6518474685604333  0.18538711673724614  1.0000
  N   N35       1.0  0.34184249516518156  0.7746143125884047  0.24033172019589702  1.0000
  N   N36       1.0  0.23798882217202796  0.7144197393297843  0.2051525817345805  1.0000
  N   N37       1.0  0.9281956837574865  0.32919566159500835  0.367288684999572  1.0000
  N   N38       1.0  0.022101425548576973  0.24500534900848683  0.3898736183039944  1.0000
  N   N39       1.0  0.9297891425306233  0.22320550809040177  0.4266791344222653  1.0000
  N   N40       1.0  0.9304629924415194  0.45505051979807815  0.6381808753939779  1.0000
  N   N41       1.0  0.766883500450696  0.32372402415638385  0.6481811826874946  1.0000
  N   N42       1.0  0.7607790442487216  0.3470717537244211  0.5906500295614877  1.0000
  N   N43       1.0  0.3737651050736305  0.11228359081493265  0.41281046532208177  1.0000
  N   N44       1.0  0.308722202093236  0.4564275342659128  0.05394411694606299  1.0000
  O   O1        1.0  0.11457957490308966  0.49800884434663567  0.7397094226363593  1.0000
  O   O2        1.0  0.05847214621653049  0.6196880565900356  0.756343310830097  1.0000
  O   O3        1.0  0.130068747728359  0.5345100982082442  0.5574298455961255  1.0000
  O   O4        1.0  0.15010209206653266  0.4295318128026651  0.6059627405644648  1.0000
  O   O5        1.0  0.16203506514889204  0.4122030146219657  0.5019625852095048  1.0000
  O   O6        1.0  0.6166862697525773  0.502085962034279  0.7603423815607115  1.0000
  O   O7        1.0  0.4387470335662798  0.38068553689320334  0.743714164280597  1.0000
  O   O8        1.0  0.5953342682817393  0.46561836954758457  0.9425982728497998  1.0000
  O   O9        1.0  0.7205365049305714  0.5704605378540959  0.894101463058604  1.0000
  O   O10       1.0  0.7497843799724961  0.5876589935140544  0.9980825530042737  1.0000
  O   O11       1.0  0.8854120751291461  0.5019879336677632  0.2602879292107901  1.0000
  O   O12       1.0  0.9415316555611782  0.3803139041472007  0.24365153958780889  1.0000
  O   O13       1.0  0.8699299958224812  0.46548971398700434  0.4425619099612917  1.0000
  O   O14       1.0  0.8499097009803193  0.5704781648305185  0.39403558669384614  1.0000
  O   O15       1.0  0.8379570959063545  0.5877915978182175  0.49803259784175696  1.0000
  O   O16       1.0  0.38331797534405615  0.4979136959140148  0.23965817087874802  1.0000
  O   O17       1.0  0.5612564068201635  0.6193141050392226  0.256287314125089  1.0000
  O   O18       1.0  0.4046673613553651  0.5343776500655508  0.05740036250384151  1.0000
  O   O19       1.0  0.27946295969601925  0.4295391208564681  0.10589908930707283  1.0000
  O   O20       1.0  0.2502137530670083  0.4123348127313661  0.0019166914275600931  1.0000
