data_image0
_chemical_formula_structural       Zn2H34C42N2O14
_chemical_formula_sum              "Zn2 H34 C42 N2 O14"
_cell_length_a       9.132096191756517
_cell_length_b       9.520339520133138
_cell_length_c       14.552250686805506
_cell_angle_alpha    107.1617239756119
_cell_angle_beta     93.48767872402074
_cell_angle_gamma    113.00134121620441

_space_group_name_H-M_alt    "P 1"
_space_group_IT_number       1

loop_
  _space_group_symop_operation_xyz
  'x, y, z'

loop_
  _atom_site_type_symbol
  _atom_site_label
  _atom_site_symmetry_multiplicity
  _atom_site_fract_x
  _atom_site_fract_y
  _atom_site_fract_z
  _atom_site_occupancy
  Zn  Zn1       1.0  0.31520553894488756  0.3911184298164015  0.28956724623581914  1.0000
  Zn  Zn2       1.0  0.6847937676289815  0.6088800715836127  0.7104324695225728  1.0000
  H   H1        1.0  0.3801059769132919  0.684868120601514  0.3950956908902156  1.0000
  H   H2        1.0  0.6199070306623965  0.31513162960302304  0.6049006715877923  1.0000
  H   H3        1.0  0.5230917637894092  0.6572153398988118  0.4465695086302404  1.0000
  H   H4        1.0  0.47691524126976487  0.3427831903133835  0.5534284548857329  1.0000
  H   H5        1.0  0.34780831940974366  0.8817816426905691  0.05414790558587866  1.0000
  H   H6        1.0  0.6521914468124804  0.11821791583108167  0.9458465238391368  1.0000
  H   H7        1.0  0.5350027385174554  0.7475072323069578  0.009109569061330008  1.0000
  H   H8        1.0  0.46499743344244854  0.2524959032604386  0.9908834699476685  1.0000
  H   H9        1.0  0.9274927747840706  0.16164870824074734  0.224901036676215  1.0000
  H   H10       1.0  0.07250342464445213  0.8383450141608716  0.7751011170510012  1.0000
  H   H11       1.0  0.7402875196945259  0.2919814689972711  0.2695638526850601  1.0000
  H   H12       1.0  0.2597064625867347  0.7080121882560703  0.7304368269239915  1.0000
  H   H13       1.0  0.795497698707713  0.7601001339857729  0.01853191840196186  1.0000
  H   H14       1.0  0.204503921995169  0.23989605208318202  0.9814702137164345  1.0000
  H   H15       1.0  0.9710228435692585  0.946802932999098  0.0835412691168144  1.0000
  H   H16       1.0  0.028977571578245397  0.05319560097505869  0.9164591837006597  1.0000
  H   H17       1.0  0.6320364787343989  0.6516230197337193  0.14783606574863478  1.0000
  H   H18       1.0  0.36796385173736457  0.3483779345611423  0.8521648271582052  1.0000
  H   H19       1.0  0.6752451931935396  0.5267100861709648  0.2686975120832855  1.0000
  H   H20       1.0  0.3247508122714747  0.4732883971893427  0.7313027571602574  1.0000
  H   H21       1.0  0.9609301905630899  0.6107439279699917  0.3534343223067324  1.0000
  H   H22       1.0  0.03906625140466247  0.3892582320394736  0.6465680123488012  1.0000
  H   H23       1.0  0.19290591288826409  0.815020367471085  0.3094847239395619  1.0000
  H   H24       1.0  0.8070904690158044  0.18498429254180582  0.6905208154677281  1.0000
  H   H25       1.0  0.13039380712088186  0.9294645057826398  0.1848831600685514  1.0000
  H   H26       1.0  0.8696046949486984  0.07054259985788748  0.8151229112150702  1.0000
  H   H27       1.0  0.29798735037638824  0.10793134008687127  0.5552856976951759  1.0000
  H   H28       1.0  0.7020162211405391  0.8920721322511225  0.4447178464782766  1.0000
  H   H29       1.0  0.8919018824400523  0.09794921273885387  0.3832754554634263  1.0000
  H   H30       1.0  0.10810168292386621  0.9020542396784561  0.6167273975444232  1.0000
  H   H31       1.0  0.9024290063909318  0.37704943310270506  0.12604461332401937  1.0000
  H   H32       1.0  0.09756769575702856  0.6229454858653225  0.8739570922290197  1.0000
  H   H33       1.0  0.29092321632825957  0.5941446515131829  0.9897155373277401  1.0000
  H   H34       1.0  0.709076539054365  0.40585756637734244  0.010287626173841585  1.0000
  C   C1        1.0  0.41989023261449177  0.17328422147984665  0.1891321174706633  1.0000
  C   C2        1.0  0.5801069353348323  0.8267117745304942  0.8108649929145954  1.0000
  C   C3        1.0  0.5325660419117993  0.09413448844888708  0.1645672459392955  1.0000
  C   C4        1.0  0.4674316287569624  0.9058627041278623  0.8354294162717864  1.0000
  C   C5        1.0  0.47451531168357514  0.9403671325555788  0.09158710326400403  1.0000
  C   C6        1.0  0.5254859442379214  0.05963595590323928  0.908403908141679  1.0000
  C   C7        1.0  0.5781826143450033  0.8661304994198528  0.06696493850725457  1.0000
  C   C8        1.0  0.4218149593420079  0.13386907363623374  0.9330307814619943  1.0000
  C   C9        1.0  0.7411537138566331  0.9448086469106441  0.11479292529180184  1.0000
  C   C10       1.0  0.25883846932106985  0.05518856208151848  0.8852062721142672  1.0000
  C   C11       1.0  0.8001901538417754  0.09899109667647105  0.18782622636705779  1.0000
  C   C12       1.0  0.19980743215125318  0.901008516220983  0.8121708759333898  1.0000
  C   C13       1.0  0.6960738038913306  0.17257386943749958  0.2126531071944697  1.0000
  C   C14       1.0  0.3039201599309037  0.8274197280537974  0.78734549891778  1.0000
  C   C15       1.0  0.851201859461632  0.8623604790186332  0.08827865712228794  1.0000
  C   C16       1.0  0.14879575729645467  0.13763923348222556  0.9117219010061604  1.0000
  C   C17       1.0  0.7536883761193424  0.6847203147240676  0.1860873436408994  1.0000
  C   C18       1.0  0.24631017986091305  0.31528427099234335  0.8139148317253628  1.0000
  C   C19       1.0  0.7797531633711826  0.6177312422758232  0.2544256362226065  1.0000
  C   C20       1.0  0.22024166730350456  0.38226968859309807  0.745576409548022  1.0000
  C   C21       1.0  0.9383840984319958  0.6635305579107038  0.3001687896697121  1.0000
  C   C22       1.0  0.06161293708393601  0.33647039826513486  0.699833347887882  1.0000
  C   C23       1.0  0.06715776573360432  0.7762120685064671  0.27629243838465095  1.0000
  C   C24       1.0  0.9328428749605135  0.22379754252372655  0.7237162382721037  1.0000
  C   C25       1.0  0.03589545542833851  0.840592579098583  0.20754706307597098  1.0000
  C   C26       1.0  0.9641042876482613  0.15940959895058165  0.7924547180944046  1.0000
  C   C27       1.0  0.22038661158422457  0.23555161471295344  0.4247727107584253  1.0000
  C   C28       1.0  0.7796154210093463  0.7644481683224315  0.5752287221095571  1.0000
  C   C29       1.0  0.10691672222913698  0.11594211661421376  0.4650513039731905  1.0000
  C   C30       1.0  0.8930814819241062  0.8840563721323419  0.5349483658917151  1.0000
  C   C31       1.0  0.1673436936396655  0.05962582597363309  0.5305411399199969  1.0000
  C   C32       1.0  0.8326559709142174  0.9403787923169132  0.4694617725053476  1.0000
  C   C33       1.0  0.9383160692429301  0.05522199198421869  0.43496119841984177  1.0000
  C   C34       1.0  0.06168316496122364  0.9447789695778607  0.5650403397591077  1.0000
  C   C35       1.0  0.22679464689340986  0.47199891192320104  0.13456215531422797  1.0000
  C   C36       1.0  0.7732084696617533  0.5280008240035912  0.8654372499504318  1.0000
  C   C37       1.0  0.10877707719853895  0.48609092106759255  0.06524395071605227  1.0000
  C   C38       1.0  0.8912228290765112  0.513906396419479  0.9347562591099958  1.0000
  C   C39       1.0  0.9441818967224831  0.43122625727015407  0.07086818818450519  1.0000
  C   C40       1.0  0.05582050000411694  0.5687796625764461  0.9291371325160327  1.0000
  C   C41       1.0  0.16313564972479347  0.5541387031721068  0.9936575804859372  1.0000
  C   C42       1.0  0.8368627961496244  0.4458524847709597  0.006339386779678999  1.0000
  N   N1        1.0  0.8812811367357227  0.7942331128528577  0.1641415104023664  1.0000
  N   N2        1.0  0.1187158079514674  0.205770243723009  0.8358603760789833  1.0000
  O   O1        1.0  0.4503995283750725  0.6300434476285516  0.3808757069424971  1.0000
  O   O2        1.0  0.5496097538950551  0.36995264772849606  0.6191205259398771  1.0000
  O   O3        1.0  0.48221780517694407  0.31439924053417906  0.25881346209007455  1.0000
  O   O4        1.0  0.5177793812314134  0.6855968152382059  0.7411857217919929  1.0000
  O   O5        1.0  0.27428007652572006  0.10358564725154906  0.1445819105734927  1.0000
  O   O6        1.0  0.7257180121867391  0.8964151622123068  0.8554147435527852  1.0000
  O   O7        1.0  0.15427336048335147  0.2613577274767991  0.3544888262557961  1.0000
  O   O8        1.0  0.8457260307662507  0.7386383536025107  0.64551044941323  1.0000
  O   O9        1.0  0.37169310993547805  0.30269160463370776  0.45711595292520707  1.0000
  O   O10       1.0  0.6283089827217835  0.6973056783982441  0.5428822751910118  1.0000
  O   O11       1.0  0.17316876148362326  0.44052475689844056  0.21036655686516778  1.0000
  O   O12       1.0  0.8268337615233604  0.5594761828619851  0.7896330454974388  1.0000
  O   O13       1.0  0.36367846133441617  0.48803477986781  0.11645898250731787  1.0000
  O   O14       1.0  0.6363204148897309  0.5119600648037304  0.8835393590046863  1.0000
