data_image0
_chemical_formula_structural       Cd2H28C24N12O16
_chemical_formula_sum              "Cd2 H28 C24 N12 O16"
_cell_length_a       7.214111104373524
_cell_length_b       8.820936910364042
_cell_length_c       13.076140129063264
_cell_angle_alpha    90.00012634155942
_cell_angle_beta     89.99965968933344
_cell_angle_gamma    93.36480491360216

_space_group_name_H-M_alt    "P 1"
_space_group_IT_number       1

loop_
  _space_group_symop_operation_xyz
  'x, y, z'

loop_
  _atom_site_type_symbol
  _atom_site_label
  _atom_site_symmetry_multiplicity
  _atom_site_fract_x
  _atom_site_fract_y
  _atom_site_fract_z
  _atom_site_occupancy
  Cd  Cd1       1.0  0.9999933221690825  0.500001152691837  0.4999941555501051  1.0000
  Cd  Cd2       1.0  0.4999990373498947  0.49999538766522256  1.860065289299999e-06  1.0000
  H   H1        1.0  0.36382392090244764  0.39151568139811127  0.5887391898483398  1.0000
  H   H2        1.0  0.13616296572806164  0.6084820069632214  0.0887512040187133  1.0000
  H   H3        1.0  0.6361623997579429  0.6084887618628655  0.41124463690319135  1.0000
  H   H4        1.0  0.8638242989753097  0.3915111145399876  0.9112502120110191  1.0000
  H   H5        1.0  0.19935501754678606  0.327270500864678  0.6609143777227897  1.0000
  H   H6        1.0  0.3006366550380832  0.6727275014158565  0.16092442334088017  1.0000
  H   H7        1.0  0.8006352448197023  0.6727283574884239  0.33907021376970187  1.0000
  H   H8        1.0  0.6993535184991302  0.32726908652387  0.8390762279350807  1.0000
  H   H9        1.0  0.9855786109439325  0.4992870188742272  0.2613251241363271  1.0000
  H   H10       1.0  0.5144331826364735  0.5007107042269539  0.7613320079991933  1.0000
  H   H11       1.0  0.014433857115335494  0.5007123257658816  0.7386625263269405  1.0000
  H   H12       1.0  0.48556531803350833  0.4992860660709084  0.23867017276664623  1.0000
  H   H13       1.0  0.005844998103583502  0.3243829154026088  0.11199353224971988  1.0000
  H   H14       1.0  0.4941705650523005  0.6756097970857835  0.6120006458639576  1.0000
  H   H15       1.0  0.9941836805128121  0.6756054417768381  0.8879948829303215  1.0000
  H   H16       1.0  0.5058296784387792  0.324396085346926  0.3880038291610146  1.0000
  H   H17       1.0  0.1140647669824943  0.9658642780636907  0.32605931006326466  1.0000
  H   H18       1.0  0.38593052807284073  0.034129745028046395  0.826061206956069  1.0000
  H   H19       1.0  0.885933556191148  0.0341279513666564  0.6739444002027353  1.0000
  H   H20       1.0  0.6140818510963229  0.9658673292139709  0.17395397456571968  1.0000
  H   H21       1.0  0.09318988848291812  0.15783348986131776  0.4670131650833226  1.0000
  H   H22       1.0  0.4067860025963057  0.8421639194305328  0.967016995307986  1.0000
  H   H23       1.0  0.9067907475651112  0.8421674261940807  0.5329836624531835  1.0000
  H   H24       1.0  0.5932235564993391  0.15783195880567286  0.03299589196248579  1.0000
  H   H25       1.0  0.12441937104594561  0.9128095670186978  0.13585174670154024  1.0000
  H   H26       1.0  0.3755852799163861  0.08719431809107188  0.635862935642663  1.0000
  H   H27       1.0  0.8755916647357864  0.08718861202356717  0.8641450807832097  1.0000
  H   H28       1.0  0.6244193489405206  0.9128173316229321  0.36415377540627947  1.0000
  C   C1        1.0  0.0127894071446306  0.3801733766596839  0.27217768363421857  1.0000
  C   C2        1.0  0.48721773967338333  0.6198252868563401  0.7721877935716532  1.0000
  C   C3        1.0  0.9872186754920308  0.6198202007133986  0.7278084373284553  1.0000
  C   C4        1.0  0.5127892212252476  0.38017507145692503  0.22781974044480074  1.0000
  C   C5        1.0  0.024220434283598997  0.2831518094127786  0.18953699575356345  1.0000
  C   C6        1.0  0.47578866627745964  0.7168387177291391  0.6895449972741402  1.0000
  C   C7        1.0  0.9757957979732694  0.716837409455003  0.8104552432058224  1.0000
  C   C8        1.0  0.5242144416429682  0.2831694959308422  0.3104648310096321  1.0000
  C   C9        1.0  0.0593526171110312  0.1305575677381938  0.2074564827110378  1.0000
  C   C10       1.0  0.4406537839225919  0.8694397576775968  0.7074633030829245  1.0000
  C   C11       1.0  0.9406597621595125  0.8694395064783507  0.7925395800190029  1.0000
  C   C12       1.0  0.5593531325918235  0.130559465421335  0.2925465251877454  1.0000
  C   C13       1.0  0.08543470368226021  0.08321607988187908  0.3086544628514787  1.0000
  C   C14       1.0  0.4145691030933564  0.9167780791847305  0.8086591466484802  1.0000
  C   C15       1.0  0.9145734676295731  0.9167797679432965  0.691344658891175  1.0000
  C   C16       1.0  0.5854281871431439  0.08322320160630167  0.19135527014950773  1.0000
  C   C17       1.0  0.07179338445925511  0.18822083190618596  0.3873490418355558  1.0000
  C   C18       1.0  0.42819575348183747  0.8117743681794138  0.8873558146241576  1.0000
  C   C19       1.0  0.9281968334865169  0.8117768912417487  0.6126447266761799  1.0000
  C   C20       1.0  0.5718108080601781  0.18821577317938679  0.11265324888847057  1.0000
  C   C21       1.0  0.065244169160664  0.022970554657817395  0.12303545390679457  1.0000
  C   C22       1.0  0.4347675126561655  0.9770323130382789  0.6230439876971371  1.0000
  C   C23       1.0  0.9347791798238773  0.9770233570541431  0.8769651973129199  1.0000
  C   C24       1.0  0.5652315204054971  0.022978079886591694  0.37697195860831545  1.0000
  N   N1        1.0  0.03487788068066781  0.3337890674487126  0.3695939740235516  1.0000
  N   N2        1.0  0.4651182961189094  0.6662039668447405  0.8695988738777485  1.0000
  N   N3        1.0  0.9651205756659211  0.6662065676195325  0.6303990297214523  1.0000
  N   N4        1.0  0.5348843237332304  0.3337917594178563  0.13040636588723933  1.0000
  N   N5        1.0  0.9943770333215343  0.0576078746784816  0.03568096777772209  1.0000
  N   N6        1.0  0.5056318238369074  0.9423948015880583  0.5356908506741007  1.0000
  N   N7        1.0  0.005637944182517195  0.9423847194518369  0.9643135654413084  1.0000
  N   N8        1.0  0.4943700736865396  0.0576179225559272  0.4643243308767849  1.0000
  N   N9        1.0  0.3090173852275627  0.6780347232275544  0.37105217105341365  1.0000
  N   N10       1.0  0.19097115894091127  0.3219762960685698  0.8710528512332442  1.0000
  N   N11       1.0  0.6909721104300743  0.3219799977915868  0.6289438917275161  1.0000
  N   N12       1.0  0.8090180261001693  0.678030478431907  0.12894550579711955  1.0000
  O   O1        1.0  0.1475797946275605  0.7132611513058577  0.3977354122620936  1.0000
  O   O2        1.0  0.3524011722389062  0.2867407054105726  0.8977439233299263  1.0000
  O   O3        1.0  0.8524023624218415  0.2867432007872565  0.6022560620128627  1.0000
  O   O4        1.0  0.6475835829710093  0.7132591666146623  0.10225978696407617  1.0000
  O   O5        1.0  0.3833677085523064  0.7343584008697162  0.29108201056840227  1.0000
  O   O6        1.0  0.1166342632511714  0.265654949264281  0.7910782589371831  1.0000
  O   O7        1.0  0.6166302917182094  0.2656610433791541  0.7089171112089259  1.0000
  O   O8        1.0  0.8833674568935521  0.734353233982638  0.20891627431543464  1.0000
  O   O9        1.0  0.3937652375893777  0.5849566003780707  0.4254510419102642  1.0000
  O   O10       1.0  0.10621731134887824  0.4150578479680575  0.9254460234508881  1.0000
  O   O11       1.0  0.6062257790250243  0.41506155668999145  0.5745480798774876  1.0000
  O   O12       1.0  0.8937662779050584  0.5849476697412398  0.07455003933264238  1.0000
  O   O13       1.0  0.22768325544900145  0.36922948048442805  0.5927023383545202  1.0000
  O   O14       1.0  0.2723058323876799  0.6307546566181442  0.09271623606081648  1.0000
  O   O15       1.0  0.7723039206156985  0.6307613705575078  0.4072791941301971  1.0000
  O   O16       1.0  0.7276809885748464  0.3692271127162811  0.907289003719306  1.0000
