data_image0
_chemical_formula_structural       Al4H28C36O20
_chemical_formula_sum              "Al4 H28 C36 O20"
_cell_length_a       6.6568011106176295
_cell_length_b       12.849260962009824
_cell_length_c       16.87958409774729
_cell_angle_alpha    90.01290997491454
_cell_angle_beta     90.78398322703781
_cell_angle_gamma    90.41964172965386

_space_group_name_H-M_alt    "P 1"
_space_group_IT_number       1

loop_
  _space_group_symop_operation_xyz
  'x, y, z'

loop_
  _atom_site_type_symbol
  _atom_site_label
  _atom_site_symmetry_multiplicity
  _atom_site_fract_x
  _atom_site_fract_y
  _atom_site_fract_z
  _atom_site_occupancy
  Al  Al1       1.0  0.9931053696562981  0.006411592154016402  0.5033887674479304  1.0000
  Al  Al2       1.0  0.49305129673270887  0.0081194107426015  0.5011070709092138  1.0000
  Al  Al3       1.0  0.007902666431306198  0.5092439622901422  0.0016986519139266  1.0000
  Al  Al4       1.0  0.507596555700978  0.5046822821193614  0.0023831731430447992  1.0000
  H   H1        1.0  0.24428352907709436  0.8761899682732875  0.5306380591748336  1.0000
  H   H2        1.0  0.7469585345897654  0.1404244828152059  0.5246937087738388  1.0000
  H   H3        1.0  0.2661664347791585  0.6336832239466332  0.038848314088333794  1.0000
  H   H4        1.0  0.7645772469939086  0.37772719586089204  0.033222141494299307  1.0000
  H   H5        1.0  0.0443005321693803  0.7576714012345531  0.8438130924788823  1.0000
  H   H6        1.0  0.4478029396683424  0.6484325757056411  0.7896508022003133  1.0000
  H   H7        1.0  0.0310504957464985  0.8701084621103732  0.7221689236206785  1.0000
  H   H8        1.0  0.5509834777384555  0.35728984122316376  0.22243489003512448  1.0000
  H   H9        1.0  0.9637186367959456  0.2508381521463576  0.1503988814142971  1.0000
  H   H10       1.0  0.530518710611254  0.2439896096755519  0.3430519801627341  1.0000
  H   H11       1.0  0.9529446283747302  0.3705359323837173  0.7786391933426273  1.0000
  H   H12       1.0  0.5346265192236996  0.2598975671130503  0.8493001675497852  1.0000
  H   H13       1.0  0.9648278670707808  0.25710622535441263  0.6579013235075949  1.0000
  H   H14       1.0  0.05167885858267599  0.6480825900550399  0.2299046876082187  1.0000
  H   H15       1.0  0.47182948649975737  0.75558638607189  0.1532569870665341  1.0000
  H   H16       1.0  0.028125070432174895  0.7612557718482832  0.3506163502552226  1.0000
  H   H17       1.0  0.297218284612569  0.8235492075250264  0.6533043942042411  1.0000
  H   H18       1.0  0.41369764476510795  0.7311452222175064  0.5921215246064833  1.0000
  H   H19       1.0  0.27850715946941307  0.6892272689761965  0.6771311107696931  1.0000
  H   H20       1.0  0.7935879814118179  0.1223946545371533  0.2146572184187647  1.0000
  H   H21       1.0  0.9366462281039317  0.031671470111554405  0.2713824398589892  1.0000
  H   H22       1.0  0.8064605524019083  0.1303766709862302  0.3202830727760926  1.0000
  H   H23       1.0  0.6882166572767472  0.12467554205798588  0.7880595470378537  1.0000
  H   H24       1.0  0.5460766516377402  0.0395656402925582  0.7251710648090111  1.0000
  H   H25       1.0  0.6902662330490229  0.13952836028916243  0.6832330454223055  1.0000
  H   H26       1.0  0.30656752652161146  0.8746107952862731  0.3207708950498613  1.0000
  H   H27       1.0  0.4443588891794972  0.9740952989303863  0.2750633813505985  1.0000
  H   H28       1.0  0.303972376697807  0.8845385600603636  0.21518840796124286  1.0000
  C   C1        1.0  0.7379351703675566  0.885931993072248  0.3928997800644325  1.0000
  C   C2        1.0  0.7430221007077191  0.8867190092860112  0.6142732402910481  1.0000
  C   C3        1.0  0.24974849381358405  0.1305201875577353  0.6121755760720972  1.0000
  C   C4        1.0  0.23862566776426056  0.1215236908348842  0.3886442335626583  1.0000
  C   C5        1.0  0.7681754125212875  0.6270283510455525  0.11316010713249369  1.0000
  C   C6        1.0  0.7466158270526149  0.6282037367679577  0.8948504987151011  1.0000
  C   C7        1.0  0.24383674714287198  0.3905930598775741  0.8916935394234927  1.0000
  C   C8        1.0  0.26409262910249237  0.38084126500527304  0.1091083683975711  1.0000
  C   C9        1.0  0.7358840733945796  0.8196177328931853  0.6864932434739544  1.0000
  C   C10       1.0  0.7455847464881982  0.6965083258060363  0.823352864948788  1.0000
  C   C11       1.0  0.5661794453544359  0.7572032488709796  0.7046679449868805  1.0000
  C   C12       1.0  0.9121720074984904  0.7586123926084698  0.8050099024664163  1.0000
  C   C13       1.0  0.5755613538665327  0.697296914927442  0.7737298129916965  1.0000
  C   C14       1.0  0.904861309816091  0.8199753961439384  0.7372928839028249  1.0000
  C   C15       1.0  0.23690776322469273  0.18433076354885713  0.3141679971865443  1.0000
  C   C16       1.0  0.25642959709198004  0.3113722691718054  0.1798488556364859  1.0000
  C   C17       1.0  0.07362604765567939  0.18336920793597497  0.2594042335135924  1.0000
  C   C18       1.0  0.4189896607204345  0.309107368194347  0.2333689950372388  1.0000
  C   C19       1.0  0.08740389420186286  0.2488511364778248  0.1933959706850672  1.0000
  C   C20       1.0  0.40729177178066306  0.24632027560052452  0.3000172851211431  1.0000
  C   C21       1.0  0.25501688477977064  0.19444496284559426  0.6861481702027419  1.0000
  C   C22       1.0  0.24556187184694514  0.3223626563601912  0.8202277419539143  1.0000
  C   C23       1.0  0.41884625233684136  0.19232396238179916  0.740679677077253  1.0000
  C   C24       1.0  0.08210188759021968  0.32152001538145203  0.7671094997722037  1.0000
  C   C25       1.0  0.4104819506915688  0.25835639170419006  0.806478822683161  1.0000
  C   C26       1.0  0.08900764710629969  0.2582805426224084  0.7005538191281957  1.0000
  C   C27       1.0  0.7381622133383272  0.8213901341928107  0.3192822734393417  1.0000
  C   C28       1.0  0.7607398124938383  0.6945470420315445  0.1849853083576889  1.0000
  C   C29       1.0  0.5776456248312696  0.8224784601669343  0.26325676881690907  1.0000
  C   C30       1.0  0.9203781973773956  0.6962020448902919  0.23989278316744134  1.0000
  C   C31       1.0  0.5929174648793631  0.7570796518380121  0.1973812904810899  1.0000
  C   C32       1.0  0.9070104355810852  0.7588973858955441  0.3065991149133254  1.0000
  C   C33       1.0  0.3788672436923972  0.7496963069994751  0.6540009080026721  1.0000
  C   C34       1.0  0.8922271403391161  0.1136682968421781  0.2667985960386261  1.0000
  C   C35       1.0  0.5954322723391313  0.1205112653095739  0.7339254072584042  1.0000
  C   C36       1.0  0.3979103226720681  0.8922668640719067  0.2688192942869634  1.0000
  O   O1        1.0  0.9081667064460245  0.9086137072161338  0.4240189863497363  1.0000
  O   O2        1.0  0.5755654974719561  0.9135744967380576  0.5834711096786122  1.0000
  O   O3        1.0  0.41715889373661225  0.10608350724012182  0.5817761782965717  1.0000
  O   O4        1.0  0.07134888629113328  0.09640246157504612  0.41880906015361313  1.0000
  O   O5        1.0  0.07701774989184429  0.10614871509454821  0.583593036674074  1.0000
  O   O6        1.0  0.41039146461388737  0.09917690326503961  0.4180587448445864  1.0000
  O   O7        1.0  0.5693043594720562  0.912759497093816  0.4205186136139787  1.0000
  O   O8        1.0  0.9155619913209418  0.9129780851752118  0.5884090731260726  1.0000
  O   O9        1.0  0.2425857734674181  0.943464691356148  0.5047811650394607  1.0000
  O   O10       1.0  0.7448148816384543  0.0712181695169321  0.5020097381794102  1.0000
  O   O11       1.0  0.9390689950999442  0.5913511680860425  0.0938676380807664  1.0000
  O   O12       1.0  0.5798616482061475  0.5864470333041395  0.9132974617069749  1.0000
  O   O13       1.0  0.40825350259446935  0.40167019510411694  0.9303591939690534  1.0000
  O   O14       1.0  0.09942997061267528  0.39827311369058555  0.07202298417105618  1.0000
  O   O15       1.0  0.07768274470976877  0.4324700419590002  0.9093814275974168  1.0000
  O   O16       1.0  0.435932964021333  0.41787798161303885  0.0911359753861021  1.0000
  O   O17       1.0  0.6026117625336835  0.6104673315679108  0.0761544998679611  1.0000
  O   O18       1.0  0.912353422511515  0.616429379020552  0.9322865181899971  1.0000
  O   O19       1.0  0.26007286576077593  0.5720915346622775  0.0057284350061337  1.0000
  O   O20       1.0  0.7587548708002243  0.4419227096363798  0.0031914574966548995  1.0000
