data_image0
_chemical_formula_structural       Ag2H26C28N4O4
_chemical_formula_sum              "Ag2 H26 C28 N4 O4"
_cell_length_a       8.758370704610675
_cell_length_b       8.453676471627736
_cell_length_c       10.23534744829369
_cell_angle_alpha    93.57884915795188
_cell_angle_beta     114.7298251860779
_cell_angle_gamma    110.21253638575428

_space_group_name_H-M_alt    "P 1"
_space_group_IT_number       1

loop_
  _space_group_symop_operation_xyz
  'x, y, z'

loop_
  _atom_site_type_symbol
  _atom_site_label
  _atom_site_symmetry_multiplicity
  _atom_site_fract_x
  _atom_site_fract_y
  _atom_site_fract_z
  _atom_site_occupancy
  Ag  Ag1       1.0  0.23097532370604765  0.673874678708664  0.5680353389090556  1.0000
  Ag  Ag2       1.0  0.7690166525397116  0.3261130580988619  0.4319665197316739  1.0000
  H   H1        1.0  0.9409164266323058  0.8650021308624787  0.3013475376176443  1.0000
  H   H2        1.0  0.05908064666148498  0.1350138531027341  0.6986527372172378  1.0000
  H   H3        1.0  0.0995108622516767  0.0841007966377845  0.3890523736908308  1.0000
  H   H4        1.0  0.9005000330491909  0.9159097166847375  0.610944095648762  1.0000
  H   H5        1.0  0.09562075043076834  0.9210930229811394  0.49307615341563604  1.0000
  H   H6        1.0  0.904385368846384  0.07892757068640323  0.5069199644537434  1.0000
  H   H7        1.0  0.48408799757876153  0.003833036007598891  0.09633190208761284  1.0000
  H   H8        1.0  0.5159213741900357  0.996173289927199  0.9036794246396841  1.0000
  H   H9        1.0  0.6675319024116533  0.827151667111366  0.12653195671622094  1.0000
  H   H10       1.0  0.33245096284461073  0.17284366843035304  0.8734814663316118  1.0000
  H   H11       1.0  0.685124397751295  0.6345737462739789  0.3002752120799031  1.0000
  H   H12       1.0  0.3148773743137099  0.3654034563829924  0.6997230202429423  1.0000
  H   H13       1.0  0.5170313618433154  0.6117053045078364  0.4495951969232551  1.0000
  H   H14       1.0  0.4829408527420539  0.388271003058115  0.5503927301649656  1.0000
  H   H15       1.0  0.37395531043142677  0.19870151074179893  0.19641393276259583  1.0000
  H   H16       1.0  0.6260699281905389  0.8013005518578709  0.8035905146101998  1.0000
  H   H17       1.0  0.19239490407785806  0.175094590789783  0.2398486410975097  1.0000
  H   H18       1.0  0.8076281049251931  0.8249226677014292  0.7601615575536942  1.0000
  H   H19       1.0  0.12258421889944765  0.15166160031020576  0.9655292037256447  1.0000
  H   H20       1.0  0.8774262069778372  0.8483556785059889  0.0344752336512713  1.0000
  H   H21       1.0  0.1292741509550267  0.9447087674031349  0.9616011611371252  1.0000
  H   H22       1.0  0.8707370262599454  0.0552838080164051  0.03840236798678373  1.0000
  H   H23       1.0  0.26846246165211335  0.4879327468420343  0.977886797756071  1.0000
  H   H24       1.0  0.7315437818970948  0.5120549734315958  0.02210973343380819  1.0000
  H   H25       1.0  0.20988316920671216  0.39996417493509273  0.18745528405517584  1.0000
  H   H26       1.0  0.7900955997177662  0.6000196404606014  0.8125345207829117  1.0000
  C   C1        1.0  0.08203809211771318  0.948829021614081  0.38649994506887714  1.0000
  C   C2        1.0  0.9179664064861013  0.05118891936961492  0.6135012929846726  1.0000
  C   C3        1.0  0.2153070712089544  0.9080798497257448  0.3543468117121337  1.0000
  C   C4        1.0  0.7846851275515262  0.091933961484159  0.6456495496502299  1.0000
  C   C5        1.0  0.3918972175064539  0.8981766605903374  0.25123469492210404  1.0000
  C   C6        1.0  0.608102813985056  0.10182543149335291  0.7487591912619325  1.0000
  C   C7        1.0  0.4892801156216962  0.9172100637325826  0.17088600323728542  1.0000
  C   C8        1.0  0.5107057135724986  0.0827798364484806  0.8291058029560008  1.0000
  C   C9        1.0  0.5925781226094385  0.8186845895944187  0.1899651017913513  1.0000
  C   C10       1.0  0.4074206686324331  0.18130916500276584  0.8100445263634911  1.0000
  C   C11       1.0  0.6024374423572352  0.7092191538981041  0.2887679309731865  1.0000
  C   C12       1.0  0.39757624188538904  0.29076896635822896  0.7112412233585348  1.0000
  C   C13       1.0  0.5085971937776748  0.6948764595825311  0.3719102967855863  1.0000
  C   C14       1.0  0.4913780351342893  0.3051077575800462  0.6280772039145506  1.0000
  C   C15       1.0  0.40067782214084247  0.7892655374447912  0.35108999187308854  1.0000
  C   C16       1.0  0.5993089611504558  0.21073262206112278  0.6488928018681295  1.0000
  C   C17       1.0  0.2395869130923529  0.10605455719448999  0.18093648378754787  1.0000
  C   C18       1.0  0.7604318076975362  0.8939453400247288  0.8190741774780437  1.0000
  C   C19       1.0  0.10032416789199061  0.03966231421983929  0.01531597878634021  1.0000
  C   C20       1.0  0.8996610356049074  0.9603332037681795  0.9846709737792242  1.0000
  C   C21       1.0  0.06482526360708347  0.6074413562350925  0.7567225931468046  1.0000
  C   C22       1.0  0.9351602444293264  0.3925335637912468  0.24326641202193142  1.0000
  C   C23       1.0  0.0327240639050642  0.5508777236713484  0.8826171141546982  1.0000
  C   C24       1.0  0.967249550207249  0.44908894998027177  0.11736501482649676  1.0000
  C   C25       1.0  0.15003046030888356  0.4911408702249319  0.9871675082352244  1.0000
  C   C26       1.0  0.84999280921771  0.5088982455741728  0.012843845879650932  1.0000
  C   C27       1.0  0.11704403435480504  0.4415523907790941  0.10312247437404662  1.0000
  C   C28       1.0  0.8829542749501939  0.5584539146079877  0.8968758477930978  1.0000
  N   N1        1.0  0.2892361955932755  0.7987179728827698  0.4131763658941027  1.0000
  N   N2        1.0  0.7107461934663348  0.20129836996969883  0.5868105229623313  1.0000
  N   N3        1.0  0.27431247006821735  0.9714873206664763  0.2561452152828211  1.0000
  N   N4        1.0  0.7256992903298781  0.028532532671910412  0.7438608314286698  1.0000
  O   O1        1.0  0.9700564564245937  0.6787313191153428  0.6747290488812112  1.0000
  O   O2        1.0  0.02995395420274603  0.3212641693886554  0.325268464873112  1.0000
  O   O3        1.0  0.1928065489815723  0.5766296492383348  0.7417512614436108  1.0000
  O   O4        1.0  0.807210934428788  0.42336613875480816  0.25826752769093997  1.0000
