data_image0
_chemical_formula_structural       ZnH28C32N8O4F6
_chemical_formula_sum              "Zn1 H28 C32 N8 O4 F6"
_cell_length_a       8.8122272718808
_cell_length_b       9.282495677098563
_cell_length_c       11.376301321917923
_cell_angle_alpha    82.48814145926666
_cell_angle_beta     68.09908495445923
_cell_angle_gamma    67.7704818291335

_space_group_name_H-M_alt    "P 1"
_space_group_IT_number       1

loop_
  _space_group_symop_operation_xyz
  'x, y, z'

loop_
  _atom_site_type_symbol
  _atom_site_label
  _atom_site_symmetry_multiplicity
  _atom_site_fract_x
  _atom_site_fract_y
  _atom_site_fract_z
  _atom_site_occupancy
  Zn  Zn1       1.0  0.9999997814503416  4.91085970100007e-07  0.5000000371912706  1.0000
  H   H1        1.0  0.8002313070892059  0.5717953105505558  0.8167912838441681  1.0000
  H   H2        1.0  0.19976883106160412  0.42820477670753126  0.1832078507628196  1.0000
  H   H3        1.0  0.5172819526970894  0.7617048358368452  0.9516640466394933  1.0000
  H   H4        1.0  0.4827174343851368  0.23829408643182853  0.048336309013237246  1.0000
  H   H5        1.0  0.4010506192260834  0.7233231023186875  0.1831252271630106  1.0000
  H   H6        1.0  0.5989495189247264  0.2766769849393995  0.8168739074439769  1.0000
  H   H7        1.0  0.8413753088408028  0.08898243241058172  0.9948219297693228  1.0000
  H   H8        1.0  0.15862530068904585  0.9110164913597886  0.005178072065291405  1.0000
  H   H9        1.0  0.8494876017826697  0.30322660879772917  0.14806068542220877  1.0000
  H   H10       1.0  0.1505117857717408  0.696772313861814  0.8519405490725519  1.0000
  H   H11       1.0  0.09018729261402571  0.361308056593515  0.8193664646785664  1.0000
  H   H12       1.0  0.909811623561346  0.6386920295537452  0.18063390258856776  1.0000
  H   H13       1.0  0.0887237924466149  0.2376796987541781  0.9518390667302157  1.0000
  H   H14       1.0  0.9112751232565653  0.7623203870022054  0.04816042169489528  1.0000
  H   H15       1.0  0.003820466982070138  0.3756677743136478  0.46201109518230515  1.0000
  H   H16       1.0  0.9961804231817128  0.6243334787155989  0.5379885760629789  1.0000
  H   H17       1.0  0.6747593290609473  0.18057043065236664  0.405724586766695  1.0000
  H   H18       1.0  0.32524081003424504  0.8194296573874669  0.594276305524339  1.0000
  H   H19       1.0  0.449577689610578  0.5977180784266809  0.36891122429616263  1.0000
  H   H20       1.0  0.5504224485402319  0.40228200883139914  0.6310879103108249  1.0000
  H   H21       1.0  0.4638146511103329  0.4083553930175157  0.34079183914551703  1.0000
  H   H22       1.0  0.5361854875126685  0.5916446946314408  0.6592081743034939  1.0000
  H   H23       1.0  0.746568182656098  0.6086861455944899  0.38601491220300943  1.0000
  H   H24       1.0  0.25343148553225353  0.39131510632394406  0.6139859917024282  1.0000
  H   H25       1.0  0.09226707001733557  0.24406428085085716  0.633181074769631  1.0000
  H   H26       1.0  0.9077325972266266  0.7559369702858164  0.3668180714517533  1.0000
  H   H27       1.0  0.8314514129092245  0.9322215843210486  0.8061159799313274  1.0000
  H   H28       1.0  0.1685482543347376  0.06777966681562482  0.193883166290064  1.0000
  C   C1        1.0  0.5269390521072665  0.0173846668763886  0.26931037903528227  1.0000
  C   C2        1.0  0.47306061560888657  0.9826165846511619  0.7306896460281253  1.0000
  C   C3        1.0  0.8923889727912949  0.0955239796097445  0.8924605154337399  1.0000
  C   C4        1.0  0.10761238827933552  0.9044761095409157  0.10753914419714754  1.0000
  C   C5        1.0  0.7754536395988367  0.40379895820887424  0.10507686919873284  1.0000
  C   C6        1.0  0.2245474403656615  0.5961988012920331  0.8949222421794546  1.0000
  C   C7        1.0  0.8974944204103185  0.3697305805794003  0.4389419251627657  1.0000
  C   C8        1.0  0.10250524730583517  0.63027067094815  0.5610580999006488  1.0000
  C   C9        1.0  0.7331512337919718  0.26245979409426207  0.41015061182357465  1.0000
  C   C10       1.0  0.26684937526567853  0.7375391292852314  0.5898485111690093  1.0000
  C   C11       1.0  0.8878218628226053  0.0200353623323153  0.7982992853035499  1.0000
  C   C12       1.0  0.11217874670724368  0.9799635614380551  0.20170071653105742  1.0000
  C   C13       1.0  0.539093133755692  0.4856130576269211  0.32148649660166484  1.0000
  C   C14       1.0  0.4609053110406407  0.5143881920080489  0.6785130034378497  1.0000
  C   C15       1.0  0.6159992654820386  0.5097953281945636  0.1808889898458403  1.0000
  C   C16       1.0  0.3839991797864855  0.49020592183128286  0.8191113890356974  1.0000
  C   C17       1.0  0.01914507365594181  0.1823290942786002  0.7051507063438933  1.0000
  C   C18       1.0  0.9808555358739073  0.8176698294917699  0.2948492954907137  1.0000
  C   C19       1.0  0.8422860268482141  0.4250878665936569  0.974496667972879  1.0000
  C   C20       1.0  0.15771505358848273  0.5749098932981198  0.025503322247338586  1.0000
  C   C21       1.0  0.010324130414481674  0.305605269400374  0.894085534777787  1.0000
  C   C22       1.0  0.9896755373016717  0.6943959821271761  0.10591449028562057  1.0000
  C   C23       1.0  0.5239929540570003  0.6385604761089924  0.12453429846614475  1.0000
  C   C24       1.0  0.4760059621183713  0.3614396100382678  0.8754660688009964  1.0000
  C   C25       1.0  0.7764588664058677  0.4845315246503008  0.3966621627734882  1.0000
  C   C26       1.0  0.2235408008380943  0.5154697264863729  0.6033369834478961  1.0000
  C   C27       1.0  0.7486908075406404  0.5543798397227279  0.9188010379497841  1.0000
  C   C28       1.0  0.2513068861871091  0.4456202449228286  0.08119968313547334  1.0000
  C   C29       1.0  0.5900376705686413  0.6604993452701893  0.9941053469291816  1.0000
  C   C30       1.0  0.40996246805435993  0.3395007423787747  0.0058946665198291994  1.0000
  C   C31       1.0  0.34983104635121987  0.10008388087047142  0.37827033617168837  1.0000
  C   C32       1.0  0.6501673989173045  0.8999173691553822  0.6217300427098492  1.0000
  N   N1        1.0  0.9767489608744245  0.19787314948834486  0.8317398705130259  1.0000
  N   N2        1.0  0.023250706841729134  0.8021281020392053  0.1682601545503815  1.0000
  N   N3        1.0  0.6734755451912806  0.41445012883136206  0.378595122643233  1.0000
  N   N4        1.0  0.3265245939039119  0.5855499592084712  0.6214057696478008  1.0000
  N   N5        1.0  0.9668928499820522  0.0755393116203109  0.6820789688170663  1.0000
  N   N6        1.0  0.0331048432734988  0.9244607726343688  0.31792087342616787  1.0000
  N   N7        1.0  0.8687475185474794  0.23183790111584565  0.44713863544980376  1.0000
  N   N8        1.0  0.13125214916867384  0.7681633504117044  0.5528613896136036  1.0000
  O   O1        1.0  0.32413299643560106  0.23008740764699104  0.4167609194303594  1.0000
  O   O2        1.0  0.6758683646350294  0.7699126815036694  0.583238740200528  1.0000
  O   O3        1.0  0.25697620559498796  0.016213855766622508  0.4113667795372394  1.0000
  O   O4        1.0  0.7430234621211652  0.983787395760928  0.5886332455261752  1.0000
  F   F1        1.0  0.6416964112306048  0.09512277520739332  0.2331359437050367  1.0000
  F   F2        1.0  0.3583029767960043  0.9048761478430337  0.7668661696317471  1.0000
  F   F3        1.0  0.613105676060343  0.8716427621816223  0.3043367110487196  1.0000
  F   F4        1.0  0.38689324011503606  0.12835732396563773  0.6956636562184144  1.0000
  F   F5        1.0  0.5001710123614841  0.9991849122199956  0.16186693076596012  1.0000
  F   F6        1.0  0.49982865582686736  0.0008163396984314999  0.8381339731394775  1.0000
