data_image0
_chemical_formula_structural       Cu12H72C87N24
_chemical_formula_sum              "Cu12 H72 C87 N24"
_cell_length_a       24.65448238124275
_cell_length_b       26.18319180505471
_cell_length_c       27.723681388362237
_cell_angle_alpha    87.62479990502729
_cell_angle_beta     89.51013807645613
_cell_angle_gamma    86.18691261849868

_space_group_name_H-M_alt    "P 1"
_space_group_IT_number       1

loop_
  _space_group_symop_operation_xyz
  'x, y, z'

loop_
  _atom_site_type_symbol
  _atom_site_label
  _atom_site_symmetry_multiplicity
  _atom_site_fract_x
  _atom_site_fract_y
  _atom_site_fract_z
  _atom_site_occupancy
  Cu  Cu1       1.0  0.2098094235121977  0.22104440217609075  0.853878188402419  1.0000
  Cu  Cu2       1.0  0.1416984414661684  0.20929064274217526  0.7603162579999964  1.0000
  Cu  Cu3       1.0  0.24044956128825848  0.12627986409467706  0.7906168024956345  1.0000
  Cu  Cu4       1.0  0.17654171706048055  0.7640252361108751  0.1303898917905855  1.0000
  Cu  Cu5       1.0  0.09027574839405621  0.7766167802766618  0.21462719234367006  1.0000
  Cu  Cu6       1.0  0.1921168765460877  0.8441992569223944  0.2126770115066492  1.0000
  Cu  Cu7       1.0  0.7648645472525573  0.20237005231568617  0.14184428201237864  1.0000
  Cu  Cu8       1.0  0.8615309474175205  0.22948336186914992  0.20948339119109963  1.0000
  Cu  Cu9       1.0  0.7918089135921207  0.13532488428140976  0.23832625950287686  1.0000
  Cu  Cu10      1.0  0.806391471586231  0.8005492683664387  0.8592748003880006  1.0000
  Cu  Cu11      1.0  0.8912806537640845  0.8087715593878574  0.7697133597825572  1.0000
  Cu  Cu12      1.0  0.8138197298374763  0.903418057723407  0.7984016569914874  1.0000
  H   H1        1.0  0.14792323512203612  0.31600892200516734  0.8988215775875122  1.0000
  H   H2        1.0  0.049135390220740795  0.30180401944264196  0.7721292599764669  1.0000
  H   H3        1.0  0.3337167698460134  0.06754302141751371  0.8561348487703672  1.0000
  H   H4        1.0  0.2981653272050053  0.20478450893151753  0.9359050756525564  1.0000
  H   H5        1.0  0.1090756167730405  0.16700547292461465  0.6612126219863657  1.0000
  H   H6        1.0  0.24118832372515436  0.05605972296014271  0.7002461669182125  1.0000
  H   H7        1.0  0.1280749627130717  0.6744230151365971  0.0736834298029478  1.0000
  H   H8        1.0  0.009519841926660904  0.6926905698181828  0.1890229085979982  1.0000
  H   H9        1.0  0.30157111074787923  0.8902470444653974  0.17712499847048246  1.0000
  H   H10       1.0  0.28342834471701644  0.7785278219715013  0.06839453258663751  1.0000
  H   H11       1.0  0.034226609542486096  0.8090656312552725  0.3125816942618514  1.0000
  H   H12       1.0  0.1725838214735163  0.902926203714607  0.31079031246486016  1.0000
  H   H13       1.0  0.7725291206142727  0.2897972267924729  0.058716385204221  1.0000
  H   H14       1.0  0.9060952853704336  0.32347772160210303  0.15028244038552435  1.0000
  H   H15       1.0  0.6999672766152045  0.05592459862914012  0.23528741375464085  1.0000
  H   H16       1.0  0.6661934141036524  0.1453304484320697  0.10267734521983132  1.0000
  H   H17       1.0  0.9441068875313262  0.22460593737621792  0.29768757060617906  1.0000
  H   H18       1.0  0.8516591568935042  0.09306441883541082  0.3338384136435694  1.0000
  H   H19       1.0  0.8386023027776447  0.6887927050366189  0.8988933411852573  1.0000
  H   H20       1.0  0.9529348626964164  0.6989697644844669  0.7799328502335073  1.0000
  H   H21       1.0  0.7184297345364996  0.9719974077387262  0.8439527449574415  1.0000
  H   H22       1.0  0.7036226548873469  0.8299381879306724  0.9274720812751698  1.0000
  H   H23       1.0  0.9441902386610578  0.8541215200817832  0.6722178928897622  1.0000
  H   H24       1.0  0.8383321166697612  0.983505830779983  0.7146613114460794  1.0000
  H   H25       1.0  0.08971873840420837  0.38678432872201546  0.9190924217183538  1.0000
  H   H26       1.0  0.9769408328588864  0.44348833030404233  0.897823251712879  1.0000
  H   H27       1.0  0.009117394195165208  0.3783273437710334  0.835845829459878  1.0000
  H   H28       1.0  0.0626702078937953  0.4451836560632145  0.9779258245066063  1.0000
  H   H29       1.0  0.07054149638209137  0.609081175248491  0.0428522632031374  1.0000
  H   H30       1.0  0.9770951116642622  0.5407052121254736  0.0755443263044882  1.0000
  H   H31       1.0  0.9935480632634465  0.6109485502745997  0.13096018908060367  1.0000
  H   H32       1.0  0.04853077785604398  0.5485210802151174  0.9839587054386673  1.0000
  H   H33       1.0  0.9297110232792601  0.38654984169772194  0.0886431443542364  1.0000
  H   H34       1.0  0.8881437434351651  0.44325128938928776  0.9936681396646069  1.0000
  H   H35       1.0  0.8292752804484066  0.37422605074970516  0.025800443857257004  1.0000
  H   H36       1.0  0.9911439023590699  0.44565015301771643  0.0556650938404673  1.0000
  H   H37       1.0  0.8825788620135098  0.6027728930565317  0.9188279197391511  1.0000
  H   H38       1.0  0.9883120442296869  0.53704418879299  0.8942251220912285  1.0000
  H   H39       1.0  0.9677685500078398  0.6096360769347342  0.8372196266608046  1.0000
  H   H40       1.0  0.9078992521989661  0.5367050269085  0.9799752743772604  1.0000
  H   H41       1.0  0.3896181394646091  0.035550688295586504  0.9280868636341854  1.0000
  H   H42       1.0  0.4517607224287445  0.0792350942358411  0.013082752867795503  1.0000
  H   H43       1.0  0.384718150946071  0.1416693621072227  0.9725800559300242  1.0000
  H   H44       1.0  0.4466350140341149  0.971896771029023  0.972040918798918  1.0000
  H   H45       1.0  0.6270500317780472  0.8839081554926483  0.9771172992177031  1.0000
  H   H46       1.0  0.5516158052282591  0.9811074398118648  0.9506464401316638  1.0000
  H   H47       1.0  0.626953983784432  0.9714213252725302  0.8993561565191758  1.0000
  H   H48       1.0  0.5549035903658109  0.9101782482072596  0.04238222869384599  1.0000
  H   H49       1.0  0.3764974720685714  0.9224017038299833  0.12453128023934572  1.0000
  H   H50       1.0  0.45438613767890956  0.884703558611804  0.042333010209866  1.0000
  H   H51       1.0  0.3790858938413565  0.8292858582982491  0.059936321077565004  1.0000
  H   H52       1.0  0.4406394696093229  0.9849900899230235  0.09714078980797321  1.0000
  H   H53       1.0  0.6030441928592012  0.08217539178371423  0.08391701696395161  1.0000
  H   H54       1.0  0.5389022554194369  0.9930389796688034  0.12881702623796806  1.0000
  H   H55       1.0  0.6104528854305328  0.0258361127857683  0.18367204223536507  1.0000
  H   H56       1.0  0.5469760210870972  0.0465291766928146  0.028035673240431408  1.0000
  H   H57       1.0  0.08919628437938339  0.1111089241708711  0.5967785718760298  1.0000
  H   H58       1.0  0.1366194372444838  0.0185171029523019  0.5391288900907159  1.0000
  H   H59       1.0  0.19322080211621537  0.0403862027507955  0.6108704284672585  1.0000
  H   H60       1.0  0.0276381771350671  0.08344651030163422  0.5407029033629699  1.0000
  H   H61       1.0  0.918388739552128  0.07079039035118481  0.3969648705997885  1.0000
  H   H62       1.0  0.015086722025728198  0.11269044984307898  0.4514439108263418  1.0000
  H   H63       1.0  0.9775056069092469  0.17041324554693207  0.3826306679387842  1.0000
  H   H64       1.0  0.9595646922581195  0.010381967609497198  0.4540003791000161  1.0000
  H   H65       1.0  0.9807295590639878  0.9166025140714993  0.608461219780793  1.0000
  H   H66       1.0  0.9374676205943898  0.014918869648191401  0.5498750690054025  1.0000
  H   H67       1.0  0.8855481992280544  0.996525585353311  0.6241817589998748  1.0000
  H   H68       1.0  0.043596897237769404  0.9458731942021574  0.545595554531346  1.0000
  H   H69       1.0  0.12493799341997658  0.9471773859808226  0.3841207926080515  1.0000
  H   H70       1.0  0.03443437196590079  0.9210746899128569  0.4585613172484814  1.0000
  H   H71       1.0  0.04209667121403271  0.8642600007014283  0.39368597398310373  1.0000
  H   H72       1.0  0.10135603703322717  0.016082199984566604  0.4442189703597991  1.0000
  C   C1        1.0  0.12963654003824843  0.3061641601475316  0.8652774788074143  1.0000
  C   C2        1.0  0.08264806316683598  0.32798381862332343  0.8418325752639435  1.0000
  C   C3        1.0  0.07918960103122427  0.2986209523963836  0.8006788492392192  1.0000
  C   C4        1.0  0.3181462905239841  0.10368728552145974  0.8703190166461499  1.0000
  C   C5        1.0  0.33419715609695533  0.1286734517890693  0.9114370957480065  1.0000
  C   C6        1.0  0.3002834439088531  0.17403198303712486  0.9107228774632578  1.0000
  C   C7        1.0  0.14262350862344422  0.14389087037692863  0.6777434868867903  1.0000
  C   C8        1.0  0.1718560513840259  0.0999266159947183  0.6610893105320841  1.0000
  C   C9        1.0  0.21029930583733147  0.08756927910592792  0.6976531748441064  1.0000
  C   C10       1.0  0.1034380926827012  0.6855829765875682  0.10459046299084923  1.0000
  C   C11       1.0  0.05604313423290106  0.6649266648089384  0.12366226247813472  1.0000
  C   C12       1.0  0.043163689302957685  0.6948584874328108  0.16366458787999255  1.0000
  C   C13       1.0  0.28899083594397007  0.8608593533123496  0.1539364786623096  1.0000
  C   C14       1.0  0.3147955937893697  0.8404290214636632  0.11278484931869315  1.0000
  C   C15       1.0  0.279836017082161  0.8034513381076424  0.09876264762080922  1.0000
  C   C16       1.0  0.0709919349219845  0.8286208583684528  0.30482317843895873  1.0000
  C   C17       1.0  0.09575671940763186  0.8647310384007628  0.3320369360434229  1.0000
  C   C18       1.0  0.1412939337900028  0.8769736201640298  0.303847773338788  1.0000
  C   C19       1.0  0.8030921724990419  0.2914110007403039  0.08648652038029074  1.0000
  C   C20       1.0  0.8447459951483082  0.3253052308145498  0.08989018426866122  1.0000
  C   C21       1.0  0.871428368954092  0.30858602768429927  0.13303307934846495  1.0000
  C   C22       1.0  0.6986272429963873  0.08299373246542531  0.20451447485707774  1.0000
  C   C23       1.0  0.6633791836365928  0.08661709325904351  0.16470887819816943  1.0000
  C   C24       1.0  0.6815092923427313  0.12834558710239463  0.13666211935103695  1.0000
  C   C25       1.0  0.9159443301682587  0.19441608013831768  0.2998726837917332  1.0000
  C   C26       1.0  0.9126250191195523  0.15395965429219421  0.3345721822113959  1.0000
  C   C27       1.0  0.8690393048671652  0.1270884091963822  0.318339451549008  1.0000
  C   C28       1.0  0.8626438386990996  0.6991312146486166  0.8674629137656498  1.0000
  C   C29       1.0  0.9056396255963292  0.6710558462477751  0.8447029119370985  1.0000
  C   C30       1.0  0.9209921786927067  0.7045640407798573  0.8067708649015021  1.0000
  C   C31       1.0  0.7225058283418663  0.9335967582708309  0.8604440375661897  1.0000
  C   C32       1.0  0.6898984765176477  0.9108862578087342  0.8961306674973317  1.0000
  C   C33       1.0  0.715089036316378  0.8612857538291936  0.9035094364740817  1.0000
  C   C34       1.0  0.9161678176191898  0.8813893719794947  0.6896255527246851  1.0000
  C   C35       1.0  0.8978165150940213  0.9315376582840645  0.6743237080542104  1.0000
  C   C36       1.0  0.8616466388301447  0.9471882185657707  0.7111565327949949  1.0000
  C   C37       1.0  0.0333642963472442  0.0150698398327407  0.49712281483306964  1.0000
  C   C38       1.0  0.9862295390414174  0.4917883849604579  0.9872589625526661  1.0000
  C   C39       1.0  0.4977950150504284  0.9797448573853488  0.0355423806385957  1.0000
  C   C40       1.0  0.045678095717661904  0.3692965546292514  0.8574991442222102  1.0000
  C   C41       1.0  0.05280782243804789  0.3957582567195744  0.8977989949517141  1.0000
  C   C42       1.0  0.0150250448831173  0.43391896947820635  0.917162558287089  1.0000
  C   C43       1.0  0.024507990780556117  0.45623806885392787  0.9591119682939324  1.0000
  C   C44       1.0  0.0270261748709117  0.6226590723366601  0.10772265510186682  1.0000
  C   C45       1.0  0.03787881074083539  0.5969798527846352  0.0668834920854096  1.0000
  C   C46       1.0  0.008842932936680412  0.5547459106387791  0.05152168258743471  1.0000
  C   C47       1.0  0.018217561740606014  0.5330273628940532  0.008601140990471393  1.0000
  C   C48       1.0  0.8571825206164901  0.3665357838573371  0.056141795916232716  1.0000
  C   C49       1.0  0.9011790329101502  0.3947910448687608  0.0587993746577951  1.0000
  C   C50       1.0  0.9158676155917007  0.4337405412738847  0.023897623630922696  1.0000
  C   C51       1.0  0.9633436027140262  0.45656166364839385  0.0258246216163229  1.0000
  C   C52       1.0  0.9318005420501194  0.6216710808746838  0.8583748395730811  1.0000
  C   C53       1.0  0.9182241895284022  0.59137493775912  0.8969595244197069  1.0000
  C   C54       1.0  0.951697258993029  0.5478629026386204  0.9150380825867971  1.0000
  C   C55       1.0  0.9437053624964661  0.5243939212835544  0.9587311660441531  1.0000
  C   C56       1.0  0.3748498614697269  0.11276963592547423  0.9471695167151356  1.0000
  C   C57       1.0  0.4001933211925817  0.06531194563308422  0.9523569787851616  1.0000
  C   C58       1.0  0.43957407865494247  0.04989965645424381  0.989041595244203  1.0000
  C   C59       1.0  0.4603854434555997  0.0010735029882340999  0.9954328895074344  1.0000
  C   C60       1.0  0.6416318868204414  0.9350899835109845  0.91727674278269  1.0000
  C   C61       1.0  0.613243638198156  0.9189028380936718  0.9565529441835781  1.0000
  C   C62       1.0  0.5661954820025696  0.9482023074459323  0.9739017350195315  1.0000
  C   C63       1.0  0.5407287413823665  0.9409763058622362  0.016752964808539196  1.0000
  C   C64       1.0  0.36425183277884077  0.8541581038035067  0.08868752155718339  1.0000
  C   C65       1.0  0.3917782626200932  0.8960711716897906  0.09707573339035491  1.0000
  C   C66       1.0  0.43789081832728977  0.9112621050835302  0.06916620556554423  1.0000
  C   C67       1.0  0.45847276001732956  0.957674514773821  0.07166237631111731  1.0000
  C   C68       1.0  0.620007377417366  0.05396694812986882  0.15505434734396326  1.0000
  C   C69       1.0  0.5923078866110955  0.05487534711883772  0.11292509974509812  1.0000
  C   C70       1.0  0.5516844649192052  0.020595794659790605  0.10084572632788283  1.0000
  C   C71       1.0  0.5319564348568733  0.0196810383596144  0.055557839369356515  1.0000
  C   C72       1.0  0.1633963450436724  0.07202405926668831  0.618157074877388  1.0000
  C   C73       1.0  0.11994821424880799  0.08051106691329583  0.5885046013505076  1.0000
  C   C74       1.0  0.10689908267448797  0.04925810526700761  0.5492847147459303  1.0000
  C   C75       1.0  0.057307675224635084  0.05369693336201212  0.5284445972977709  1.0000
  C   C76       1.0  0.9475751687772414  0.14254714520480152  0.3757527613467533  1.0000
  C   C77       1.0  0.9474498535319638  0.09931682433433761  0.40447610539275314  1.0000
  C   C78       1.0  0.9855224314165267  0.0851194429123581  0.4425214060756631  1.0000
  C   C79       1.0  0.988294589368408  0.0379776379492327  0.4645648905035318  1.0000
  C   C80       1.0  0.9112615281626191  0.9613814394008745  0.6314656520589497  1.0000
  C   C81       1.0  0.953158134063564  0.9504522425532118  0.6007814372649777  1.0000
  C   C82       1.0  0.966330331896742  0.982535285090279  0.5595689434524334  1.0000
  C   C83       1.0  0.0135284211434197  0.9767270538155091  0.5346738931133219  1.0000
  C   C84       1.0  0.07588552445754  0.8840440576811872  0.37732327697366247  1.0000
  C   C85       1.0  0.09253893824130441  0.9251603283585157  0.4000216549103898  1.0000
  C   C86       1.0  0.06571883415482917  0.9444487545596733  0.44245244507693127  1.0000
  C   C87       1.0  0.07228283652307968  0.9907109517846636  0.46074146173290853  1.0000
  N   N1        1.0  0.12070672607300988  0.2623027013180561  0.7998949233987391  1.0000
  N   N2        1.0  0.1519170073602325  0.2671980405286334  0.840096978249996  1.0000
  N   N3        1.0  0.26667732231979363  0.1757021741401559  0.8725369981773741  1.0000
  N   N4        1.0  0.27791242840918773  0.13207720590177272  0.8473328969545976  1.0000
  N   N5        1.0  0.204200296883549  0.12122938702938062  0.7331901510807343  1.0000
  N   N6        1.0  0.16217018367365196  0.1563370631745329  0.7206220207187218  1.0000
  N   N7        1.0  0.07990918291038442  0.7302361513872031  0.16802864204233714  1.0000
  N   N8        1.0  0.11741317718419711  0.7243583337836697  0.13136143575556505  1.0000
  N   N9        1.0  0.23670397248412905  0.8022427589519622  0.1289261916490076  1.0000
  N   N10       1.0  0.24257774917509783  0.8378076467383125  0.16333606044178592  1.0000
  N   N11       1.0  0.14315637177906382  0.8501724994010047  0.26331133227355263  1.0000
  N   N12       1.0  0.0993280318820808  0.820281980965504  0.2638369020310166  1.0000
  N   N13       1.0  0.8474401843221243  0.2682001653167916  0.1533413511589785  1.0000
  N   N14       1.0  0.8049990836431106  0.25733566642517053  0.12440887596099515  1.0000
  N   N15       1.0  0.723915067706045  0.14770593833233653  0.15821917627106796  1.0000
  N   N16       1.0  0.7347422137536839  0.11946859656952571  0.20036239109614945  1.0000
  N   N17       1.0  0.8485105402615998  0.14982684517493547  0.277386290375823  1.0000
  N   N18       1.0  0.8776860128160278  0.19163206941514946  0.26574783751188863  1.0000
  N   N19       1.0  0.8898336827307317  0.7488887942562529  0.8070718593714049  1.0000
  N   N20       1.0  0.8535533282437483  0.745423844804151  0.8448859621885918  1.0000
  N   N21       1.0  0.7587933716034528  0.8552412943101046  0.8742116053449112  1.0000
  N   N22       1.0  0.763533804999824  0.9002949066176811  0.8476581819634605  1.0000
  N   N23       1.0  0.8588117235174335  0.9095210384714177  0.7455038137933628  1.0000
  N   N24       1.0  0.8924609563104866  0.8685195899858373  0.732000292765861  1.0000
