data_image0
_chemical_formula_structural       Zn9H96C156N18O36
_chemical_formula_sum              "Zn9 H96 C156 N18 O36"
_cell_length_a       14.01080712061097
_cell_length_b       14.0108081634787
_cell_length_c       24.755990064045793
_cell_angle_alpha    90.00019988028303
_cell_angle_beta     89.999978769029
_cell_angle_gamma    120.00009300051006

_space_group_name_H-M_alt    "P 1"
_space_group_IT_number       1

loop_
  _space_group_symop_operation_xyz
  'x, y, z'

loop_
  _atom_site_type_symbol
  _atom_site_label
  _atom_site_symmetry_multiplicity
  _atom_site_fract_x
  _atom_site_fract_y
  _atom_site_fract_z
  _atom_site_occupancy
  Zn  Zn1       1.0  0.8505031487482384  0.5401891031918636  0.9533353695476805  1.0000
  Zn  Zn2       1.0  0.6896866146483662  0.14949592673448822  0.6200051704929095  1.0000
  Zn  Zn3       1.0  0.45981277652978036  0.3103168138821174  0.2866674424718383  1.0000
  Zn  Zn4       1.0  0.3103158884132995  0.4598109240845716  0.0466638735083365  1.0000
  Zn  Zn5       1.0  0.5401920502111607  0.8505041200133688  0.3799960849926478  1.0000
  Zn  Zn6       1.0  0.1494961035513214  0.6896840189387349  0.7133326666377044  1.0000
  Zn  Zn7       1.0  0.9999986230935747  0.6973909183720293  0.8333330366235999  1.0000
  Zn  Zn8       1.0  0.6973915723123414  0.9999989343629708  0.4999986873110203  1.0000
  Zn  Zn9       1.0  0.3026111909336039  0.3026090832394175  0.16666659542043763  1.0000
  H   H1        1.0  0.36794460484772873  0.7277099722867887  0.8295324368086556  1.0000
  H   H2        1.0  0.1684489184576066  0.6275523693956089  0.847715837281868  1.0000
  H   H3        1.0  0.22452528258074267  0.7848982935332315  0.0033288319527642  1.0000
  H   H4        1.0  0.42644961654067287  0.8893732989548796  0.9844155085340347  1.0000
  H   H5        1.0  0.45038320195218523  0.012554937925855806  0.872546364495804  1.0000
  H   H6        1.0  0.5459565152263793  0.21300790536352568  0.8926039195120623  1.0000
  H   H7        1.0  0.818367165908818  0.1951614970638644  0.9611678852302815  1.0000
  H   H8        1.0  0.7234195451996047  0.9937410325838485  0.941604123060543  1.0000
  H   H9        1.0  0.6950719460450402  0.9456012250577643  0.8273828339435455  1.0000
  H   H10       1.0  0.8149609662037844  0.862599449631652  0.8164496281246016  1.0000
  H   H11       1.0  0.6040128335141192  0.5999559725024781  0.9238504691722582  1.0000
  H   H12       1.0  0.48430197807174147  0.6810409257769406  0.9352631530010882  1.0000
  H   H13       1.0  0.6633489018105935  0.5607090729772038  0.9880898263971076  1.0000
  H   H14       1.0  0.5960487531783372  0.6128401056534754  0.070549122274457  1.0000
  H   H15       1.0  0.8539933415998249  0.5982056899963053  0.1602061694914241  1.0000
  H   H16       1.0  0.916500192867041  0.555844261278672  0.0716546234093229  1.0000
  H   H17       1.0  0.35976487173402233  0.6320493104433709  0.4961992803798267  1.0000
  H   H18       1.0  0.4591006249452577  0.8315448093454876  0.514381328376416  1.0000
  H   H19       1.0  0.560375431515162  0.775477469481494  0.6699932978446627  1.0000
  H   H20       1.0  0.462930282638034  0.5735532057872206  0.6510817268500162  1.0000
  H   H21       1.0  0.5621733830867727  0.5496128976377078  0.5392142218520561  1.0000
  H   H22       1.0  0.6670504827147783  0.4540387554726451  0.5592722925282203  1.0000
  H   H23       1.0  0.37679490973587093  0.18163113403523576  0.6278348553144113  1.0000
  H   H24       1.0  0.2703234622978102  0.27657848107233457  0.6082708060393287  1.0000
  H   H25       1.0  0.25052731591977556  0.3049231183850196  0.4940524188675682  1.0000
  H   H26       1.0  0.04763525922544432  0.18503526067577517  0.4831196147446946  1.0000
  H   H27       1.0  0.9959458415745176  0.3959877517456362  0.5905199915846566  1.0000
  H   H28       1.0  0.19674075857322765  0.5156978549069535  0.601931977195143  1.0000
  H   H29       1.0  0.8973627417552947  0.33665574583467606  0.6547601535898409  1.0000
  H   H30       1.0  0.01679098674554067  0.4039517137842806  0.7372211633477194  1.0000
  H   H31       1.0  0.7442038413414239  0.1460033892295768  0.8268738822411238  1.0000
  H   H32       1.0  0.6393419298348207  0.0835009155868178  0.7383211221677684  1.0000
  H   H33       1.0  0.2722867594360351  0.6402352409277653  0.16286421477006033  1.0000
  H   H34       1.0  0.3724485105348876  0.540900111278816  0.1810463726198392  1.0000
  H   H35       1.0  0.21510555932646022  0.4396260591710687  0.3366583248880559  1.0000
  H   H36       1.0  0.11062508424031152  0.5370704077267306  0.3177486649376107  1.0000
  H   H37       1.0  0.9874436399998818  0.43782784449228274  0.2058769644172358  1.0000
  H   H38       1.0  0.7869895355325341  0.332948761359404  0.2259326344860639  1.0000
  H   H39       1.0  0.8048374563330473  0.6232037858463358  0.29449935383205883  1.0000
  H   H40       1.0  0.006257153211592566  0.7296772283471283  0.274936196778448  1.0000
  H   H41       1.0  0.05440034099348897  0.7494710600207456  0.1607153703726709  1.0000
  H   H42       1.0  0.13739615720476187  0.9523591671434418  0.149782853658138  1.0000
  H   H43       1.0  0.4000406450884527  0.004057994854889539  0.2571825662342988  1.0000
  H   H44       1.0  0.3189576651855362  0.8032647522974301  0.2685959525079653  1.0000
  H   H45       1.0  0.4392868644919688  0.10263735145441186  0.32142286906265133  1.0000
  H   H46       1.0  0.3871596948233606  0.9832093926510553  0.40388216792483433  1.0000
  H   H47       1.0  0.4017984774969039  0.25579326211136083  0.49353934742332234  1.0000
  H   H48       1.0  0.44415576902131454  0.36065631798106784  0.4049871404268401  1.0000
  H   H49       1.0  0.6402336960056233  0.2722884012242233  0.17046884205786478  1.0000
  H   H50       1.0  0.5408978475804177  0.37244778520230426  0.1522846652187084  1.0000
  H   H51       1.0  0.4396298063335636  0.21510407064643997  0.9966712713736926  1.0000
  H   H52       1.0  0.5370778340898782  0.11062746895808565  0.015584563216215501  1.0000
  H   H53       1.0  0.43782743342008257  0.9874463901958491  0.127454927026541  1.0000
  H   H54       1.0  0.3329485404970925  0.7869933152322873  0.10739737299163468  1.0000
  H   H55       1.0  0.6232045600986212  0.804838095119983  0.0388333479276781  1.0000
  H   H56       1.0  0.7296787643901796  0.006260236426705161  0.058396704940733506  1.0000
  H   H57       1.0  0.7494727348311586  0.05440026300760797  0.17261759101744192  1.0000
  H   H58       1.0  0.9523646783966556  0.13740237392483587  0.1835495509652745  1.0000
  H   H59       1.0  0.00405819094454783  0.400046525559631  0.076149640069481  1.0000
  H   H60       1.0  0.8032625257028202  0.31896026319476783  0.0647364806309341  1.0000
  H   H61       1.0  0.10264038605936322  0.4392906317464734  0.0119106701289766  1.0000
  H   H62       1.0  0.9832113561594157  0.38716215603796655  0.9294508845363012  1.0000
  H   H63       1.0  0.2557903741177726  0.40179612257288977  0.8397934828916506  1.0000
  H   H64       1.0  0.36065749702143535  0.44415747382718246  0.9283458192061219  1.0000
  H   H65       1.0  0.7277145519841358  0.3679496958821105  0.5038011822381918  1.0000
  H   H66       1.0  0.6275550088824106  0.16845290830011087  0.48561873038458  1.0000
  H   H67       1.0  0.7848980898703813  0.22452166762953146  0.3300063296988114  1.0000
  H   H68       1.0  0.889376762586814  0.4264469873909889  0.3489183038953101  1.0000
  H   H69       1.0  0.012558601187663592  0.45038575963957334  0.4607854869595087  1.0000
  H   H70       1.0  0.21301095028727707  0.5459609123349978  0.4407269801387841  1.0000
  H   H71       1.0  0.19516211646817533  0.8183674765707065  0.3721636419618619  1.0000
  H   H72       1.0  0.9937433821115395  0.7234199027764775  0.39172761824029584  1.0000
  H   H73       1.0  0.9456010171305781  0.6950746948549805  0.5059472244048564  1.0000
  H   H74       1.0  0.8625985742840431  0.8149630457623687  0.5168800586813447  1.0000
  H   H75       1.0  0.5999576733833507  0.6040125678999786  0.4094788016408942  1.0000
  H   H76       1.0  0.6810417533417308  0.4843024893595497  0.3980672957128775  1.0000
  H   H77       1.0  0.5607072549117195  0.6633442921041351  0.3452394620579327  1.0000
  H   H78       1.0  0.6128391632209474  0.5960493344409771  0.2627785396761197  1.0000
  H   H79       1.0  0.598198688932996  0.85399609366668  0.1731265534907678  1.0000
  H   H80       1.0  0.555840737894485  0.9164990042718486  0.2616797330343914  1.0000
  H   H81       1.0  0.6320511416516512  0.3597663952844741  0.8371354592810932  1.0000
  H   H82       1.0  0.831546665215413  0.4591005100300975  0.8189524619403487  1.0000
  H   H83       1.0  0.7754751865815522  0.5603719997360698  0.6633401282356673  1.0000
  H   H84       1.0  0.5735511227555393  0.4629254172832589  0.682252648098718  1.0000
  H   H85       1.0  0.5496142813288502  0.5621719807251893  0.7941230468421596  1.0000
  H   H86       1.0  0.4540399030581738  0.6670504920868366  0.7740657922241568  1.0000
  H   H87       1.0  0.1816318895606984  0.37679455495801045  0.705500715496143  1.0000
  H   H88       1.0  0.27657946998574096  0.2703216931779195  0.72506354281942  1.0000
  H   H89       1.0  0.3049272964658982  0.2505279113972989  0.8392835532725017  1.0000
  H   H90       1.0  0.18503620083553332  0.04763922599605759  0.8502180935909891  1.0000
  H   H91       1.0  0.39598697518714254  0.9959430892161051  0.7428183310676532  1.0000
  H   H92       1.0  0.5156929755723497  0.19673640959275918  0.7314033249499516  1.0000
  H   H93       1.0  0.3366479387442994  0.8973620323439704  0.6785780303568103  1.0000
  H   H94       1.0  0.40394954187002  0.016791007966823222  0.5961187298951884  1.0000
  H   H95       1.0  0.14600647976023848  0.7442074534054867  0.5064611721155288  1.0000
  H   H96       1.0  0.08350122815258487  0.6393435963850037  0.5950129772935783  1.0000
  C   C1        1.0  0.4099399340486445  0.8146842552669397  0.9060748010525045  1.0000
  C   C2        1.0  0.33750856534726387  0.7392850412257985  0.8680281850670397  1.0000
  C   C3        1.0  0.22485733997531543  0.6838215760484586  0.8780826786510475  1.0000
  C   C4        1.0  0.18345318520939477  0.7007648438524327  0.9265844965008796  1.0000
  C   C5        1.0  0.2568972467317182  0.773875209331372  0.9652640882456751  1.0000
  C   C6        1.0  0.3692330508633505  0.8316382786131697  0.9547979794064929  1.0000
  C   C7        1.0  0.580988266918233  0.989981892980218  0.9054888347057571  1.0000
  C   C8        1.0  0.5310068742505933  0.05250275337795066  0.8919554352386214  1.0000
  C   C9        1.0  0.5845940767848888  0.16459222868604664  0.9030732531656581  1.0000
  C   C10       1.0  0.6888113312823664  0.21691449044310926  0.927751361400084  1.0000
  C   C11       1.0  0.7381569937921598  0.1542862897345713  0.9413851665887876  1.0000
  C   C12       1.0  0.6852212515891979  0.04214774807579858  0.9304426596508363  1.0000
  C   C13       1.0  0.5839597825870443  0.8212879688696758  0.8835404450407438  1.0000
  C   C14       1.0  0.6754420399260187  0.8697676710035438  0.8485885382152958  1.0000
  C   C15       1.0  0.7425454485777936  0.8236180905785915  0.8424731980962079  1.0000
  C   C16       1.0  0.7200579291482114  0.7281695092586417  0.8711695957006925  1.0000
  C   C17       1.0  0.623876527787978  0.6757670042268485  0.9026500161080194  1.0000
  C   C18       1.0  0.5556340619374327  0.7205261615632778  0.9086082212920488  1.0000
  C   C19       1.0  0.06361516212140832  0.643919066923729  0.9370312177870305  1.0000
  C   C20       1.0  0.7468332837642747  0.3368383315134835  0.938637727434042  1.0000
  C   C21       1.0  0.8021397142569454  0.6898183330972427  0.873273686527547  1.0000
  C   C22       1.0  0.7039131706259173  0.5720295022367737  0.026883679170687503  1.0000
  C   C23       1.0  0.6671263007311697  0.6007428415398907  0.072581338301589  1.0000
  C   C24       1.0  0.7243912094641518  0.6135285106066561  0.12087793879294402  1.0000
  C   C25       1.0  0.8121860144486348  0.5926278891185387  0.12225131394878731  1.0000
  C   C26       1.0  0.8454710012757974  0.5677475912403196  0.07393772641706421  1.0000
  C   C27       1.0  0.4047463325513336  0.5900559774638411  0.5727415174248875  1.0000
  C   C28       1.0  0.4017766447398687  0.6624876380782255  0.5346942316703789  1.0000
  C   C29       1.0  0.4589629912167653  0.7751376156315501  0.5447480648536214  1.0000
  C   C30       1.0  0.51731208676717  0.8165447781562989  0.593249492308523  1.0000
  C   C31       1.0  0.5169807257665011  0.743103205861338  0.6319297555355874  1.0000
  C   C32       1.0  0.4624107133760449  0.6307660635573741  0.6214634969480173  1.0000
  C   C33       1.0  0.40899593101929105  0.4190106305007859  0.5721552279232895  1.0000
  C   C34       1.0  0.5214978078201469  0.4689891955215444  0.5586219749369051  1.0000
  C   C35       1.0  0.5799987342383233  0.41540169575848995  0.5697400332882552  1.0000
  C   C36       1.0  0.5281027570195466  0.3111838241218551  0.5944192158049049  1.0000
  C   C37       1.0  0.41613002069217947  0.26184236335436134  0.6080514353092639  1.0000
  C   C38       1.0  0.3569288743940007  0.31477826849308593  0.5971098993246926  1.0000
  C   C39       1.0  0.23732957610300087  0.4160385648760681  0.5502086354920337  1.0000
  C   C40       1.0  0.19432539542151517  0.3245561865855889  0.5152566051501282  1.0000
  C   C41       1.0  0.08107277714098163  0.2574534578375562  0.5091408594958367  1.0000
  C   C42       1.0  0.008110165081639295  0.2799422580541844  0.5378365705704553  1.0000
  C   C43       1.0  0.05189176991524392  0.3761258281728245  0.5693171224012873  1.0000
  C   C44       1.0  0.164894588900303  0.4443690974331032  0.5752749276315114  1.0000
  C   C45       1.0  0.5803029831342815  0.9363830531659759  0.6036959641984865  1.0000
  C   C46       1.0  0.5900058503286304  0.2531649498459033  0.6053062142471646  1.0000
  C   C47       1.0  0.8876789947344224  0.19785471271385535  0.5399413421423773  1.0000
  C   C48       1.0  0.8681133139052122  0.2960891873124041  0.6935527482648425  1.0000
  C   C49       1.0  0.9336141553035163  0.33287264132361827  0.7392520203178066  1.0000
  C   C50       1.0  0.8891338068338895  0.27560737438604815  0.7875477547357974  1.0000
  C   C51       1.0  0.7804377563075634  0.1878134112251359  0.7889190650896865  1.0000
  C   C52       1.0  0.722272785153919  0.15452858120625723  0.7406050749917554  1.0000
  C   C53       1.0  0.1853134189535125  0.5952549670944832  0.2394064627936388  1.0000
  C   C54       1.0  0.2607161292281148  0.5982230900557113  0.2013615240878934  1.0000
  C   C55       1.0  0.31617962974390684  0.541035268024224  0.21141357458859744  1.0000
  C   C56       1.0  0.299236022030236  0.48269144721379575  0.2599161236732215  1.0000
  C   C57       1.0  0.2261251586864006  0.4830214590189214  0.2985960632132958  1.0000
  C   C58       1.0  0.16835810919121746  0.5375909061407923  0.288128353402179  1.0000
  C   C59       1.0  0.0100178172069791  0.5910074743750969  0.2388195484461377  1.0000
  C   C60       1.0  0.947496763554625  0.47850426026923265  0.22528685647866814  1.0000
  C   C61       1.0  0.8354068493410483  0.42000139960586563  0.2364016964450641  1.0000
  C   C62       1.0  0.7830827272154366  0.4718959816380987  0.2610810325969766  1.0000
  C   C63       1.0  0.8457122000626002  0.5838706077898548  0.274716219994275  1.0000
  C   C64       1.0  0.9578516988278313  0.6430733073269438  0.2637738642187699  1.0000
  C   C65       1.0  0.17871153388851718  0.7626713673699895  0.2168738998168962  1.0000
  C   C66       1.0  0.13022889372624022  0.8056708893928216  0.18192079053390836  1.0000
  C   C67       1.0  0.17637713892930407  0.9189254889340859  0.17580560945359028  1.0000
  C   C68       1.0  0.2718264759819466  0.9918879683613896  0.2045021603093318  1.0000
  C   C69       1.0  0.324228979512789  0.9481090013231607  0.23598216958716017  1.0000
  C   C70       1.0  0.2794760136571027  0.835110706135019  0.2419402170852507  1.0000
  C   C71       1.0  0.35608638594634107  0.4196973128405758  0.2703620123898531  1.0000
  C   C72       1.0  0.6631593533006852  0.4099952335829258  0.2719656227413694  1.0000
  C   C73       1.0  0.31017701635980194  0.11232143613101193  0.20660623601018813  1.0000
  C   C74       1.0  0.42797209355686056  0.13188565806947847  0.36021593447558325  1.0000
  C   C75       1.0  0.3992574402226056  0.06638602286444248  0.40591511583492235  1.0000
  C   C76       1.0  0.38647465368060824  0.11086607630189602  0.4542113509538197  1.0000
  C   C77       1.0  0.40737549384957117  0.2195610891094475  0.4555840527813686  1.0000
  C   C78       1.0  0.43225452851680063  0.277724937080606  0.4072693360106712  1.0000
  C   C79       1.0  0.5952556621342496  0.18531483480153807  0.09392647812930478  1.0000
  C   C80       1.0  0.5982234992834918  0.26071395878185655  0.1319731014409555  1.0000
  C   C81       1.0  0.5410348994545517  0.31617668157933565  0.1219182218264905  1.0000
  C   C82       1.0  0.48268803117130704  0.29923415087641553  0.0734160105554196  1.0000
  C   C83       1.0  0.4830231599740316  0.22612346324389407  0.0347360070862237  1.0000
  C   C84       1.0  0.5375951161753039  0.16835974713517032  0.0452033101490272  1.0000
  C   C85       1.0  0.5910067534698061  0.010017826016557886  0.09451283082707111  1.0000
  C   C86       1.0  0.47850355655698046  0.9474967486287086  0.1080462474311474  1.0000
  C   C87       1.0  0.4200011270457509  0.8354105706239421  0.09692923791104141  1.0000
  C   C88       1.0  0.47189670606150735  0.78308662135548  0.0722507092671876  1.0000
  C   C89       1.0  0.5838684098198359  0.8457131631497035  0.0586168870628043  1.0000
  C   C90       1.0  0.6430725976923031  0.9578541417477947  0.0695585854567398  1.0000
  C   C91       1.0  0.7626714903142685  0.17871236966371373  0.11645958630334971  1.0000
  C   C92       1.0  0.8056741777960214  0.13023124692868032  0.1514106710580592  1.0000
  C   C93       1.0  0.9189281872278628  0.17638301486327626  0.1575268000423904  1.0000
  C   C94       1.0  0.9918897966161141  0.2718314735217007  0.1288303971143137  1.0000
  C   C95       1.0  0.9481113621571852  0.3242345092048992  0.0973507993542739  1.0000
  C   C96       1.0  0.8351099788123336  0.27947599056965794  0.0913922093439226  1.0000
  C   C97       1.0  0.41969600070403607  0.35608084995687506  0.0629701164384358  1.0000
  C   C98       1.0  0.4099939476166768  0.6631637185165217  0.0613643436434614  1.0000
  C   C99       1.0  0.11232398768930102  0.3101811306374671  0.1267251785682291  1.0000
  C   C100      1.0  0.13188604757483793  0.4279721968299908  0.9731164060519077  1.0000
  C   C101      1.0  0.06638604398270341  0.3992588280854221  0.9274187577091126  1.0000
  C   C102      1.0  0.11086665934580256  0.3864749535966254  0.8791221464884771  1.0000
  C   C103      1.0  0.21956167430681725  0.407375789488654  0.8777491545518146  1.0000
  C   C104      1.0  0.27772568377550755  0.4322566298305972  0.926063136381643  1.0000
  C   C105      1.0  0.8146893524884151  0.4099422396108422  0.42725893127500575  1.0000
  C   C106      1.0  0.7392903451103624  0.3375110849075966  0.4653058213528638  1.0000
  C   C107      1.0  0.6838252864938144  0.2248599227377711  0.45525198798691946  1.0000
  C   C108      1.0  0.7007691137752519  0.1834546803657346  0.4067509565354471  1.0000
  C   C109      1.0  0.7738793792232601  0.25689698628460167  0.3680702816905069  1.0000
  C   C110      1.0  0.8316447582031047  0.3692334433763236  0.3785365399403915  1.0000
  C   C111      1.0  0.9899844490683877  0.5809888383101836  0.427843586070793  1.0000
  C   C112      1.0  0.05250702292911317  0.5310100322464493  0.4413769260666385  1.0000
  C   C113      1.0  0.16459562102598096  0.5845979976480675  0.43025884972377076  1.0000
  C   C114      1.0  0.21691703249641855  0.6888143940900022  0.40557966716079363  1.0000
  C   C115      1.0  0.15428660646702508  0.7381578319398585  0.39194665818838803  1.0000
  C   C116      1.0  0.042148227276349856  0.6852206120966002  0.402889424070672  1.0000
  C   C117      1.0  0.8212900262069174  0.583958215149096  0.44979102228234064  1.0000
  C   C118      1.0  0.8697664341910073  0.6754412921420397  0.48474305204778295  1.0000
  C   C119      1.0  0.8236164676233387  0.7425451377619581  0.4908588145152706  1.0000
  C   C120      1.0  0.7281673070642612  0.7200578690928481  0.46216190937652607  1.0000
  C   C121      1.0  0.6757645465586749  0.6238720988829981  0.4306813584528015  1.0000
  C   C122      1.0  0.7205251062252955  0.5556310365303857  0.4247243444708175  1.0000
  C   C123      1.0  0.6439229776746701  0.06361548271557634  0.3963012524553662  1.0000
  C   C124      1.0  0.3368405206850866  0.7468351607152925  0.39469466925645236  1.0000
  C   C125      1.0  0.689820805866276  0.8021435028439043  0.46005704907948797  1.0000
  C   C126      1.0  0.5720240975614602  0.7039101104761726  0.306447273216186  1.0000
  C   C127      1.0  0.6007385057028717  0.6671259581145537  0.2607475872830705  1.0000
  C   C128      1.0  0.6135208301539239  0.7243908153582056  0.21245266409312796  1.0000
  C   C129      1.0  0.5926210187850104  0.8121847788469267  0.2110805595223582  1.0000
  C   C130      1.0  0.5677425220397013  0.8454699180919362  0.2593945583791353  1.0000
  C   C131      1.0  0.5900571874393705  0.4047447622742552  0.760594032743029  1.0000
  C   C132      1.0  0.6624928554482921  0.4017757818094267  0.7986397637407805  1.0000
  C   C133      1.0  0.7751432786131932  0.45896586206895773  0.7885856757982168  1.0000
  C   C134      1.0  0.8165428157571597  0.5173106238859048  0.7400835280778041  1.0000
  C   C135      1.0  0.7431014342075319  0.5169786331420173  0.7014036039925671  1.0000
  C   C136      1.0  0.6307649742867272  0.4624051906697488  0.7118705238551897  1.0000
  C   C137      1.0  0.419011524871884  0.4089932292624353  0.76117977179198  1.0000
  C   C138      1.0  0.468991289972948  0.5214954739331291  0.774713167497076  1.0000
  C   C139      1.0  0.4154036100488839  0.5799978682491583  0.7635967292335765  1.0000
  C   C140      1.0  0.31118619739182674  0.5281040060548818  0.7389178135353589  1.0000
  C   C141      1.0  0.26183996735061743  0.4161273326010714  0.7252830286777083  1.0000
  C   C142      1.0  0.3147774791203161  0.35692614494936237  0.7362261749294065  1.0000
  C   C143      1.0  0.41604090598333715  0.2373299780453095  0.7831262108284136  1.0000
  C   C144      1.0  0.3245573675367623  0.19432876463001486  0.8180793348718822  1.0000
  C   C145      1.0  0.2574532441230986  0.0810747606316795  0.8241949221056402  1.0000
  C   C146      1.0  0.2799426051256192  0.008112711861372253  0.7954987627540292  1.0000
  C   C147      1.0  0.3761227413869933  0.05189170004527453  0.7640191417479372  1.0000
  C   C148      1.0  0.44436619966601404  0.1648914024555594  0.7580598799457833  1.0000
  C   C149      1.0  0.9363891136449072  0.5803062374632474  0.7296376207265354  1.0000
  C   C150      1.0  0.2531650024169636  0.5900064267741668  0.7280320303324005  1.0000
  C   C151      1.0  0.1978545034265551  0.8876776489949304  0.7933954995498596  1.0000
  C   C152      1.0  0.2960862695312232  0.8681158489657506  0.6397845664747095  1.0000
  C   C153      1.0  0.3328722451516697  0.9336150861522297  0.5940857882063355  1.0000
  C   C154      1.0  0.2756086574273484  0.8891339494932993  0.5457891565314839  1.0000
  C   C155      1.0  0.18781498501733315  0.7804390236118763  0.5444160578165267  1.0000
  C   C156      1.0  0.15453042195386515  0.7222743239524475  0.5927307754729157  1.0000
  N   N1        1.0  0.5247649666854174  0.8758464126672579  0.8950480229096415  1.0000
  N   N2        1.0  0.7930858733738692  0.5591123336988062  0.027052909023687698  1.0000
  N   N3        1.0  0.6966811497376499  0.6450501865551957  0.16999578206842614  1.0000
  N   N4        1.0  0.3510841530963518  0.4752336434073356  0.5617149878538541  1.0000
  N   N5        1.0  0.7660261075229686  0.20691805686717382  0.6937215193253792  1.0000
  N   N6        1.0  0.9483639832812688  0.3033147667525001  0.8366655850890865  1.0000
  N   N7        1.0  0.12415520641766883  0.6489188848722165  0.2283805037198192  1.0000
  N   N8        1.0  0.4408881359029381  0.2339738486224263  0.36038568946115396  1.0000
  N   N9        1.0  0.35495458556264475  0.05163491990493443  0.5033303171725549  1.0000
  N   N10       1.0  0.6489197597054145  0.12415515413198355  0.1049524306188729  1.0000
  N   N11       1.0  0.2339752620770099  0.4408900815700675  0.972947156027324  1.0000
  N   N12       1.0  0.051633196017675784  0.3549509347537594  0.8300043123805738  1.0000
  N   N13       1.0  0.8758478921877856  0.5247652941119795  0.43828465217082885  1.0000
  N   N14       1.0  0.5591066207192414  0.7930816769890826  0.3062789182281946  1.0000
  N   N15       1.0  0.6450450937288822  0.6966833430670504  0.1633340162826613  1.0000
  N   N16       1.0  0.4752350160830048  0.3510811055765187  0.7716192024923743  1.0000
  N   N17       1.0  0.20691310357460696  0.7660249682610356  0.639615223471921  1.0000
  N   N18       1.0  0.3033176173284529  0.9483648650089759  0.49666978677182533  1.0000
  O   O1        1.0  0.9950156308229979  0.6054075543776563  0.8959315337411624  1.0000
  O   O2        1.0  0.024597783920647612  0.6301702203943833  0.9839887324734633  1.0000
  O   O3        1.0  0.7044211630608432  0.39468560953017123  0.9234269247410296  1.0000
  O   O4        1.0  0.8408663620184598  0.3828903017685191  0.962615797977243  1.0000
  O   O5        1.0  0.87196751028705  0.7186157555604781  0.8343207107654179  1.0000
  O   O6        1.0  0.79911121744685  0.6354412982122283  0.9147367296474798  1.0000
  O   O7        1.0  0.6103843237180371  0.004976088945973155  0.5625950928029155  1.0000
  O   O8        1.0  0.6055757071817075  0.975401047811346  0.6506535240185444  1.0000
  O   O9        1.0  0.6902643065438101  0.2955721944071783  0.5900945734309246  1.0000
  O   O10       1.0  0.5420209976487201  0.15913080256843415  0.6292837580035737  1.0000
  O   O11       1.0  0.8466478552091844  0.12803676963464744  0.5009850495093531  1.0000
  O   O12       1.0  0.8363351670324235  0.2008760018094619  0.5814088901980767  1.0000
  O   O13       1.0  0.3945982138974956  0.38961590902795246  0.2292632386956157  1.0000
  O   O14       1.0  0.36983555181402056  0.3944329974330217  0.3173199141242549  1.0000
  O   O15       1.0  0.6053101989832756  0.30973613992168947  0.2567554740099709  1.0000
  O   O16       1.0  0.6171101190067746  0.4579773899495052  0.2959461336138105  1.0000
  O   O17       1.0  0.2813873878277776  0.1533528391826451  0.16765287874286372  1.0000
  O   O18       1.0  0.3645533920175624  0.16366668182280367  0.24807058891768458  1.0000
  O   O19       1.0  0.38961174366519213  0.39459312086157894  0.1040688975384683  1.0000
  O   O20       1.0  0.3944236519799704  0.36982610382616343  0.0160118006437884  1.0000
  O   O21       1.0  0.30973278983933755  0.6053125079234648  0.0765727377244261  1.0000
  O   O22       1.0  0.45797732496456  0.6171115843661356  0.0373862581216997  1.0000
  O   O23       1.0  0.15335583263729555  0.2813886467947242  0.1656777387002677  1.0000
  O   O24       1.0  0.16366870465130753  0.3645561481691217  0.08526011063722189  1.0000
  O   O25       1.0  0.6054072201159928  0.9950190794540176  0.4374025286798329  1.0000
  O   O26       1.0  0.630176123476474  0.024598451167513056  0.34934490324854284  1.0000
  O   O27       1.0  0.3946909369199575  0.7044286499189738  0.409908313110968  1.0000
  O   O28       1.0  0.38288969444928944  0.8408679079727147  0.3707147020469819  1.0000
  O   O29       1.0  0.7186108938627385  0.8719647836732917  0.4990141508921441  1.0000
  O   O30       1.0  0.635458031813272  0.7991259731060153  0.4185899161189468  1.0000
  O   O31       1.0  0.004982584600249163  0.6103888820844929  0.770736084652441  1.0000
  O   O32       1.0  0.9754036136063036  0.6055705187395545  0.6826797134271416  1.0000
  O   O33       1.0  0.2955772457080529  0.690265753891822  0.7432429885774284  1.0000
  O   O34       1.0  0.15913293753264685  0.5420277842749498  0.7040519381803492  1.0000
  O   O35       1.0  0.12803287111460557  0.8466477706269229  0.8323488672191675  1.0000
  O   O36       1.0  0.20088100369819267  0.8363324416767598  0.7519307366455196  1.0000
