data_image0
_chemical_formula_structural       AlH12C27N7O6
_chemical_formula_sum              "Al1 H12 C27 N7 O6"
_cell_length_a       3.9197462854790044
_cell_length_b       18.14864105110045
_cell_length_c       18.139791953926643
_cell_angle_alpha    120.56676967304497
_cell_angle_beta     94.1227138844553
_cell_angle_gamma    92.97276668238196

_space_group_name_H-M_alt    "P 1"
_space_group_IT_number       1

loop_
  _space_group_symop_operation_xyz
  'x, y, z'

loop_
  _atom_site_type_symbol
  _atom_site_label
  _atom_site_symmetry_multiplicity
  _atom_site_fract_x
  _atom_site_fract_y
  _atom_site_fract_z
  _atom_site_occupancy
  Al  Al1       1.0  0.0089126359489455  0.0007701562077641969  0.4973548616971043  1.0000
  H   H1        1.0  0.6113845895783642  0.3176780558552253  0.4207184482445142  1.0000
  H   H2        1.0  0.7835329608839815  0.09104780636129563  0.8991686810129875  1.0000
  H   H3        1.0  0.6335632979921682  0.6053810070552643  0.19247164003516543  1.0000
  H   H4        1.0  0.4071429757074513  0.3066225080883457  0.8935724966444594  1.0000
  H   H5        1.0  0.37428082210276165  0.22429755354296796  0.7320063429152196  1.0000
  H   H6        1.0  0.797466588847456  0.013534903767023798  0.7386462909983107  1.0000
  H   H7        1.0  0.6559175272778502  0.7666113445959087  0.2744505705754321  1.0000
  H   H8        1.0  0.2345418903575407  0.7600296210715314  0.4836982640164107  1.0000
  H   H9        1.0  0.2566360621756516  0.5998365758022505  0.4065167234745459  1.0000
  H   H10       1.0  0.40022904943597126  0.07787419022750439  0.1801803480014143  1.0000
  H   H11       1.0  0.3686037712775629  0.9987258198820756  0.26014889540896036  1.0000
  H   H12       1.0  0.6359850908640752  0.23775888687382013  0.500101905152398  1.0000
  C   C1        1.0  0.5033792571567659  0.06651930998772572  0.43192864657374475  1.0000
  C   C2        1.0  0.5640784241240054  0.0669028454142975  0.6305884938536932  1.0000
  C   C3        1.0  0.46019423265800447  0.8678179062346913  0.4307677829899389  1.0000
  C   C4        1.0  0.5669749658510098  0.247766512389795  0.3864865068356876  1.0000
  C   C5        1.0  0.5064203863429526  0.20216356159738078  0.29605548711367646  1.0000
  C   C6        1.0  0.7026095425839783  0.12019305332807313  0.8619023963871297  1.0000
  C   C7        1.0  0.5952809028226229  0.20327497154501376  0.905335362208099  1.0000
  C   C8        1.0  0.4456088353788772  0.5936594952621945  0.29508580088011627  1.0000
  C   C9        1.0  0.5517532933304069  0.6402708794053285  0.2567054851138622  1.0000
  C   C10       1.0  0.48670437274397926  0.241960702266681  0.8585867279120902  1.0000
  C   C11       1.0  0.4719904759512729  0.1967093178097201  0.7694573396482551  1.0000
  C   C12       1.0  0.5849851042976297  0.1143972509630231  0.7262423788739267  1.0000
  C   C13       1.0  0.7068516298896556  0.0770359739378748  0.7730226532984472  1.0000
  C   C14       1.0  0.5609110060322136  0.7292065493359415  0.3017363376057886  1.0000
  C   C15       1.0  0.44564013926154905  0.7723493101587027  0.3835235420749682  1.0000
  C   C16       1.0  0.3271281664864105  0.7257354412974522  0.4206372085558952  1.0000
  C   C17       1.0  0.3359126957168285  0.6370406695558728  0.37767379437423176  1.0000
  C   C18       1.0  0.4430091435775267  0.11201738090710481  0.2502954306086663  1.0000
  C   C19       1.0  0.42897485471442554  0.06834191509287992  0.29465074570168776  1.0000
  C   C20       1.0  0.5022687265743428  0.11375744121776422  0.38465742890160465  1.0000
  C   C21       1.0  0.5768401722667988  0.20345082947747536  0.4302715031926495  1.0000
  C   C22       1.0  0.4665768086132401  0.3763034719718236  0.25371341108098017  1.0000
  C   C23       1.0  0.5644054094909591  0.24442924477589406  0.12234186188204886  1.0000
  C   C24       1.0  0.5098385943646094  0.24878077488809677  0.24935855877430402  1.0000
  C   C25       1.0  0.45858741773552225  0.4997578643898849  0.24857988662315478  1.0000
  C   C26       1.0  0.5248670165810835  0.37766111669130004  0.1214189916872285  1.0000
  C   C27       1.0  0.5848638437766168  0.2499084288161129  0.9993254306462799  1.0000
  N   N1        1.0  0.5186859824573132  0.33276639620240905  0.1658571056701348  1.0000
  N   N2        1.0  0.5640883929455852  0.203307706591751  0.16574596161877503  1.0000
  N   N3        1.0  0.4582890129678533  0.33269485619935324  0.2945732002627395  1.0000
  N   N4        1.0  0.42717267239843437  0.4601446881104538  0.29392289800728116  1.0000
  N   N5        1.0  0.5041366045858665  0.4621602246077289  0.16457506626619522  1.0000
  N   N6        1.0  0.6055014059057625  0.2039375919075468  0.03864935725921728  1.0000
  N   N7        1.0  0.5506158397906944  0.33462001944322856  0.03715743296656629  1.0000
  O   O1        1.0  0.24500994656809638  0.9045937899798631  0.48465947532329046  1.0000
  O   O2        1.0  0.2482789088518089  0.011171026070961399  0.4136001262336462  1.0000
  O   O3        1.0  0.32583069353987076  0.0837241895403551  0.5910488617378674  1.0000
  O   O4        1.0  0.69244808949027  0.9074882929119712  0.4139408721021807  1.0000
  O   O5        1.0  0.7798648861583005  0.0128888053015999  0.5935559645487415  1.0000
  O   O6        1.0  0.7604945832133863  0.08457097238209602  0.48774044669288225  1.0000
