data_image0
_chemical_formula_structural       Cu2H12C8N20Cl2
_chemical_formula_sum              "Cu2 H12 C8 N20 Cl2"
_cell_length_a       6.190950299053852
_cell_length_b       8.526545581739171
_cell_length_c       10.23403298888041
_cell_angle_alpha    106.78380375897486
_cell_angle_beta     90.00178962965799
_cell_angle_gamma    90.00037919791849

_space_group_name_H-M_alt    "P 1"
_space_group_IT_number       1

loop_
  _space_group_symop_operation_xyz
  'x, y, z'

loop_
  _atom_site_type_symbol
  _atom_site_label
  _atom_site_symmetry_multiplicity
  _atom_site_fract_x
  _atom_site_fract_y
  _atom_site_fract_z
  _atom_site_occupancy
  Cu  Cu1       1.0  0.20765466647325334  1.0095436344701037e-05  0.750014666173044  1.0000
  Cu  Cu2       1.0  0.792343071391741  8.38836889699957e-07  0.2500114069136643  1.0000
  H   H1        1.0  0.3198418191474275  0.3382402671483008  0.6958843477174524  1.0000
  H   H2        1.0  0.3196913202923071  0.6617036256385376  0.804107808975253  1.0000
  H   H3        1.0  0.6802477368388437  0.6617394617859915  0.3040913122565954  1.0000
  H   H4        1.0  0.6802237879065273  0.33825432372055536  0.19589010698703646  1.0000
  H   H5        1.0  0.47373251007950046  0.4431901845758618  0.5973366854003003  1.0000
  H   H6        1.0  0.4736564369468894  0.5568043845177613  0.9026675784589102  1.0000
  H   H7        1.0  0.5263021274893304  0.5568104552158745  0.4026526676987173  1.0000
  H   H8        1.0  0.5262909766474592  0.44318045601206546  0.097330775225501  1.0000
  H   H9        1.0  0.5048242548519967  0.22637168899959903  0.5685117960879396  1.0000
  H   H10       1.0  0.5047086238078791  0.7736068365232215  0.9314424441328056  1.0000
  H   H11       1.0  0.4952249193847392  0.773645733045072  0.4314443569271518  1.0000
  H   H12       1.0  0.49524524990611235  0.2263642107018385  0.0685204316131092  1.0000
  C   C1        1.0  0.07947959906802278  0.17385353397298084  0.461845160676404  1.0000
  C   C2        1.0  0.07945264018830758  0.8261436587235381  0.03815206210849455  1.0000
  C   C3        1.0  0.9205243487626262  0.826161824409134  0.5381495948672637  1.0000
  C   C4        1.0  0.9205480774791894  0.17385112666111274  0.9618632795499591  1.0000
  C   C5        1.0  0.3912048663177785  0.3295477620761461  0.5961664762635123  1.0000
  C   C6        1.0  0.3911157222453311  0.6704323012212328  0.9038209656912102  1.0000
  C   C7        1.0  0.6088313861639136  0.6704527327892154  0.4038081854628216  1.0000
  C   C8        1.0  0.6088349217636306  0.32955127572410003  0.09617318333058482  1.0000
  N   N1        1.0  0.21996849270338  0.30052682443544393  0.4952538890913941  1.0000
  N   N2        1.0  0.21991899834768697  0.6994621266379967  0.004744291781555903  1.0000
  N   N3        1.0  0.7800580688393524  0.6994739312597744  0.5047472170272016  1.0000
  N   N4        1.0  0.7800607206454231  0.3005459495283204  0.9952555974901856  1.0000
  N   N5        1.0  0.19137688470460287  0.39048722255741813  0.4085553839237264  1.0000
  N   N6        1.0  0.1913368313980683  0.6095100151242647  0.09144708200443566  1.0000
  N   N7        1.0  0.8086480615061759  0.609497657051783  0.5914468883630518  1.0000
  N   N8        1.0  0.808646117979066  0.3905138501758287  0.9085428262829963  1.0000
  N   N9        1.0  0.0360380524049191  0.3221280724980887  0.3240534228752381  1.0000
  N   N10       1.0  0.036010918223389886  0.6778834247956099  0.1759550524012354  1.0000
  N   N11       1.0  0.9639772023587625  0.6778629511470131  0.6759522431297782  1.0000
  N   N12       1.0  0.9639752620459203  0.32215034643220963  0.824047925575911  1.0000
  N   N13       1.0  0.9630474711053336  0.1869904205866675  0.3543564181850981  1.0000
  N   N14       1.0  0.9630286600286765  0.8130275864910603  0.14566287538140443  1.0000
  N   N15       1.0  0.03694517031103569  0.8130226714115238  0.6456563723320626  1.0000
  N   N16       1.0  0.03695105966664159  0.1870088181916572  0.8543592856079982  1.0000
  N   N17       1.0  0.07048987315484109  0.056239433281675105  0.5273042249096348  1.0000
  N   N18       1.0  0.0704671438127349  0.9437521400227668  0.9727164508440607  1.0000
  N   N19       1.0  0.929533458516829  0.9438127897458202  0.47271089384143755  1.0000
  N   N20       1.0  0.9295384199682812  0.05620987119111479  0.02732150419659259  1.0000
  Cl  Cl1       1.0  0.5602933318928507  0.9999899608629194  0.7500251931259215  1.0000
  Cl  Cl2       1.0  0.439705520484047  0.999996276545453  0.25000660410052694  1.0000
