data_image0
_chemical_formula_structural       Mg6H6C24O18
_chemical_formula_sum              "Mg6 H6 C24 O18"
_cell_length_a       6.889357403514558
_cell_length_b       15.231539982790254
_cell_length_c       15.232337971939389
_cell_angle_alpha    117.77089255731862
_cell_angle_beta     98.67768450473889
_cell_angle_gamma    98.67432658203923

_space_group_name_H-M_alt    "P 1"
_space_group_IT_number       1

loop_
  _space_group_symop_operation_xyz
  'x, y, z'

loop_
  _atom_site_type_symbol
  _atom_site_label
  _atom_site_symmetry_multiplicity
  _atom_site_fract_x
  _atom_site_fract_y
  _atom_site_fract_z
  _atom_site_occupancy
  Mg  Mg1       1.0  0.01751066658596999  0.731765706478427  0.4060525960237556  1.0000
  Mg  Mg2       1.0  0.2858089314132854  0.6742452679895264  0.2682147286978847  1.0000
  Mg  Mg3       1.0  0.6114262442421962  0.5939171628462176  0.32573986778658803  1.0000
  Mg  Mg4       1.0  0.9824894999187779  0.2682340896787281  0.5939470095048522  1.0000
  Mg  Mg5       1.0  0.7141930869852615  0.3257552951246224  0.7317853615316141  1.0000
  Mg  Mg6       1.0  0.3885739222625588  0.4060826333109304  0.6742597377420199  1.0000
  H   H1        1.0  0.685951390080625  0.5547550425828048  0.5327333432416881  1.0000
  H   H2        1.0  0.13114625220530468  0.9779554431902612  0.4452367518968716  1.0000
  H   H3        1.0  0.15319563815810958  0.4671872523345966  0.022034756709899624  1.0000
  H   H4        1.0  0.31404839287635855  0.4452439866679184  0.4672658788176563  1.0000
  H   H5        1.0  0.8688542978472145  0.0220451198733187  0.5547632371009997  1.0000
  H   H6        1.0  0.8468059966926731  0.5328125438731206  0.9779649500503356  1.0000
  C   C1        1.0  0.9331168961606123  0.5664685319545695  0.4654347947653364  1.0000
  C   C2        1.0  0.3666257322801484  0.8989323761382977  0.43351556128342866  1.0000
  C   C3        1.0  0.46772935170803  0.5345197370941576  0.10102428927946505  1.0000
  C   C4        1.0  0.06687994785455227  0.433530497212594  0.534564881182668  1.0000
  C   C5        1.0  0.6333744342246065  0.10106742001885041  0.5664840442451793  1.0000
  C   C6        1.0  0.5322708170464806  0.4654800590454187  0.8989746598972136  1.0000
  C   C7        1.0  0.24291357067743743  0.5639670090257809  0.3910920810696014  1.0000
  C   C8        1.0  0.6789885014474278  0.827112467482614  0.4360332465258382  1.0000
  C   C9        1.0  0.8519075100007639  0.6089418392122212  0.17293386285692253  1.0000
  C   C10       1.0  0.7570869771253186  0.4360335540553777  0.6089085642801992  1.0000
  C   C11       1.0  0.3210116650573198  0.172887328674534  0.5639663590027697  1.0000
  C   C12       1.0  0.1480930400517478  0.39105872385135837  0.8270661261409489  1.0000
  C   C13       1.0  0.8243475723143021  0.5308415885304498  0.5179630454524259  1.0000
  C   C14       1.0  0.29347483114003126  0.9871087631631994  0.4691405634862706  1.0000
  C   C15       1.0  0.3063559641138625  0.48195067190309965  0.012873845552327609  1.0000
  C   C16       1.0  0.17564926945109952  0.4691574406542926  0.4820372868475148  1.0000
  C   C17       1.0  0.7065253331149605  0.012891033011527503  0.5308596983942666  1.0000
  C   C18       1.0  0.6936438188431282  0.5180483573476166  0.9871253765070167  1.0000
  C   C19       1.0  0.11488902329684683  0.5337775090606698  0.4473060973425761  1.0000
  C   C20       1.0  0.5811356120260454  0.9135386418005492  0.46621873856108925  1.0000
  C   C21       1.0  0.6676626060144031  0.5527117389225397  0.08648211520031174  1.0000
  C   C22       1.0  0.8851096726121099  0.46622228706349483  0.5526940633063263  1.0000
  C   C23       1.0  0.41886455447870224  0.08646115435660559  0.5337808669675186  1.0000
  C   C24       1.0  0.3323375604903447  0.4472880572346085  0.9135174903282961  1.0000
  O   O1        1.0  0.8617077371140525  0.628368233943213  0.43504623929528213  1.0000
  O   O2        1.0  0.23332556803180882  0.8066303907706781  0.37162655715023635  1.0000
  O   O3        1.0  0.4267313311691935  0.5649270519094216  0.19332381558852071  1.0000
  O   O4        1.0  0.13829242489118335  0.37163156224908517  0.5649546789371841  1.0000
  O   O5        1.0  0.7666745984729391  0.19336940538647693  0.6283730483783716  1.0000
  O   O6        1.0  0.5732688375853172  0.4350727442301476  0.806675133588158  1.0000
  O   O7        1.0  0.1915213285492995  0.6261994514778806  0.3617306569733999  1.0000
  O   O8        1.0  0.5653454237360549  0.7355258484535341  0.3737832438075445  1.0000
  O   O9        1.0  0.8297616227892278  0.6382853141386704  0.26450066906609504  1.0000
  O   O10       1.0  0.8084792215032123  0.3738011115856991  0.6382693320244642  1.0000
  O   O11       1.0  0.434654742768693  0.2644739477036211  0.6262163617210634  1.0000
  O   O12       1.0  0.17024001431131808  0.36171448205147516  0.7354983813422181  1.0000
  O   O13       1.0  0.39897925327917244  0.5305262718238521  0.3727228376064319  1.0000
  O   O14       1.0  0.8684891027534575  0.8421788353757547  0.46948320601749327  1.0000
  O   O15       1.0  0.026374841273778184  0.6273205094975366  0.15790225673804767  1.0000
  O   O16       1.0  0.6010209132255753  0.4694735243333028  0.627276767922176  1.0000
  O   O17       1.0  0.1315110637512902  0.1578209607813932  0.5305163995111145  1.0000
  O   O18       1.0  0.9736257110284969  0.3726800535484642  0.8420970759078873  1.0000
