data_image0
_chemical_formula_structural       Gd4H56C60O28
_chemical_formula_sum              "Gd4 H56 C60 O28"
_cell_length_a       7.598118579693238
_cell_length_b       15.342300265990803
_cell_length_c       15.4046
_cell_angle_alpha    62.69584432073797
_cell_angle_beta     87.01337902836403
_cell_angle_gamma    87.04201611551944

_space_group_name_H-M_alt    "P 1"
_space_group_IT_number       1

loop_
  _space_group_symop_operation_xyz
  'x, y, z'

loop_
  _atom_site_type_symbol
  _atom_site_label
  _atom_site_symmetry_multiplicity
  _atom_site_fract_x
  _atom_site_fract_y
  _atom_site_fract_z
  _atom_site_occupancy
  Gd  Gd1       1.0  0.46684136324196157  0.141330610019395  0.2175369077551608  1.0000
  Gd  Gd2       1.0  0.03305023035078139  0.7821960631853032  0.8587345883884723  1.0000
  Gd  Gd3       1.0  0.5331600327686132  0.8586688974029073  0.7824632164915569  1.0000
  Gd  Gd4       1.0  0.9669497654259374  0.2178049119893757  0.14126425213044772  1.0000
  H   H1        1.0  0.4975604245929544  0.3932504904498941  0.21559237492553512  1.0000
  H   H2        1.0  0.0017895494068937998  0.7849209454686134  0.6064708874038444  1.0000
  H   H3        1.0  0.5024410949103739  0.6067468153438469  0.7844094011378006  1.0000
  H   H4        1.0  0.9982119289321858  0.21507709420131255  0.3935292561260439  1.0000
  H   H5        1.0  0.5749875983740225  0.3212792527649669  0.33305611256312057  1.0000
  H   H6        1.0  0.9251259323302818  0.6667610083096918  0.6782458326111609  1.0000
  H   H7        1.0  0.4250125208954501  0.6787195207811509  0.6669456780859164  1.0000
  H   H8        1.0  0.0748701920588601  0.3332384991126105  0.32175442711101704  1.0000
  H   H9        1.0  0.9238575620196129  0.6842749635187388  0.2578534610648902  1.0000
  H   H10       1.0  0.5769188992733234  0.7410652383939365  0.31703854935066994  1.0000
  H   H11       1.0  0.07614379282671278  0.3157252777797552  0.7421482764321041  1.0000
  H   H12       1.0  0.4230850502194698  0.2589357367807423  0.6829588912481626  1.0000
  H   H13       1.0  0.9001357821825023  0.5271975721492339  0.41197943673289933  1.0000
  H   H14       1.0  0.599844619576885  0.586709059926804  0.47390149264294473  1.0000
  H   H15       1.0  0.09986429592271409  0.4728019352730755  0.5880194230691984  1.0000
  H   H16       1.0  0.40015673526944073  0.4132911813716903  0.5260957007568337  1.0000
  H   H17       1.0  0.7498372684296228  0.3866345966217183  0.4110910407442531  1.0000
  H   H18       1.0  0.749372058663866  0.5881092956920996  0.6137383043991633  1.0000
  H   H19       1.0  0.2501667222274193  0.6133656446767759  0.5889073832312872  1.0000
  H   H20       1.0  0.2506266192074947  0.41189167948257943  0.3862612191453678  1.0000
  H   H21       1.0  0.1564476486242441  0.022689250081626307  0.3340433549018655  1.0000
  H   H22       1.0  0.3434642907660574  0.6655185559246561  0.9770432046679643  1.0000
  H   H23       1.0  0.8435523883167306  0.977310991216868  0.6659571181505084  1.0000
  H   H24       1.0  0.6565371052445244  0.3344809514976461  0.02295627042200721  1.0000
  H   H25       1.0  0.3258168728604289  0.9483001316581507  0.36942252638478834  1.0000
  H   H26       1.0  0.1737313970951533  0.6302726842789499  0.05094874099545877  1.0000
  H   H27       1.0  0.6741831640805387  0.0517001096403362  0.6305792449810709  1.0000
  H   H28       1.0  0.826267363104712  0.3697268231433526  0.9490495035187507  1.0000
  H   H29       1.0  0.8079975754349958  0.6990823833491506  0.10604402790342252  1.0000
  H   H30       1.0  0.6930416179069211  0.8936557107545084  0.30185014782865244  1.0000
  H   H31       1.0  0.1920050561524391  0.3009185918255284  0.8939566923480058  1.0000
  H   H32       1.0  0.3069610548447628  0.10634453054397852  0.6981496083292456  1.0000
  H   H33       1.0  0.7035223828375619  0.4974117393367693  0.06457479733690259  1.0000
  H   H34       1.0  0.7959598468461878  0.9365992097284207  0.5019249149518572  1.0000
  H   H35       1.0  0.2964788896802588  0.5025899697141014  0.9354256225634285  1.0000
  H   H36       1.0  0.2040375542840636  0.06340103157006641  0.4980743275247548  1.0000
  H   H37       1.0  0.4978991549073937  0.5447262048820178  0.08662901499720019  1.0000
  H   H38       1.0  0.0018500389331919027  0.9141257192458525  0.4552672209067623  1.0000
  H   H39       1.0  0.5021021176104341  0.4552755041688458  0.913370755746392  1.0000
  H   H40       1.0  0.9981499980077757  0.0858745220526416  0.5447332521456048  1.0000
  H   H41       1.0  0.630403579907032  0.06199272316671062  0.9885473180705162  1.0000
  H   H42       1.0  0.8700087322011355  0.01104116723738  0.9381076822021227  1.0000
  H   H43       1.0  0.3695978572677916  0.938006050379407  0.011453140396163585  1.0000
  H   H44       1.0  0.1299900279987227  0.9889583401849225  0.06189250978232496  1.0000
  H   H45       1.0  0.5159110605127708  0.1697580380092347  0.9733533285063131  1.0000
  H   H46       1.0  0.9847602029295999  0.0262874450277764  0.8308022466447156  1.0000
  H   H47       1.0  0.48409037666205984  0.8302407355368828  0.02664712996035958  1.0000
  H   H48       1.0  0.01523600378804698  0.9737105946421496  0.16919868151737916  1.0000
  H   H49       1.0  0.5749590670190018  0.3290715501213271  0.8362980809225178  1.0000
  H   H50       1.0  0.9251053002856436  0.16335937153247937  0.6720361265667733  1.0000
  H   H51       1.0  0.4250423289915801  0.6709279573009752  0.16370204332420005  1.0000
  H   H52       1.0  0.07489745479454508  0.8366394020136385  0.3279642980310412  1.0000
  H   H53       1.0  0.6607802368524813  0.4227868053586904  0.661704283096654  1.0000
  H   H54       1.0  0.8377792260874628  0.3384783750896716  0.5779448157612492  1.0000
  H   H55       1.0  0.3392199235812399  0.5772112343112356  0.33829654345884547  1.0000
  H   H56       1.0  0.1622234878284701  0.6615211323326307  0.42205592377334966  1.0000
  C   C1        1.0  0.7439281071171422  0.3209820329091215  0.2195920224263332  1.0000
  C   C2        1.0  0.7558765410469377  0.7803158723935368  0.6791575544520682  1.0000
  C   C3        1.0  0.2560707354112211  0.6790160067608042  0.7804094871547775  1.0000
  C   C4        1.0  0.24412341356553205  0.2196858366573267  0.3208403026901507  1.0000
  C   C5        1.0  0.6955098430825399  0.4629848735160494  0.2581032853089694  1.0000
  C   C6        1.0  0.8039530328016654  0.7417484771242756  0.5374008176194423  1.0000
  C   C7        1.0  0.3044901526941785  0.5370161016586295  0.7418962043666966  1.0000
  C   C8        1.0  0.1960444094928349  0.2582510302980268  0.4625994082338707  1.0000
  C   C9        1.0  0.6170931487577677  0.3748294642733967  0.2589652114984133  1.0000
  C   C10       1.0  0.882506681180871  0.7410923918128631  0.6251044448467126  1.0000
  C   C11       1.0  0.3829082884170631  0.6251693092727209  0.7410378435952438  1.0000
  C   C12       1.0  0.11749339692434548  0.2589071156094391  0.374895064112124  1.0000
  C   C13       1.0  0.8604038425212295  0.6219035602393959  0.2586086393943816  1.0000
  C   C14       1.0  0.6399967188878575  0.7405676703389688  0.3791245699010162  1.0000
  C   C15       1.0  0.1395962355839941  0.3780959471829064  0.7413928170346935  1.0000
  C   C16       1.0  0.36000595386383344  0.2594325709595182  0.6208732387866431  1.0000
  C   C17       1.0  0.8467498511837519  0.5341092180808786  0.3447139639794585  1.0000
  C   C18       1.0  0.6532422491765145  0.6543518958592573  0.46678471620992906  1.0000
  C   C19       1.0  0.1532475499464994  0.4658910232176154  0.6552852784971535  1.0000
  C   C20       1.0  0.34675642869484585  0.3456490793154217  0.5332135090211096  1.0000
  C   C21       1.0  0.7629067442221213  0.4556681279290302  0.3441497894618095  1.0000
  C   C22       1.0  0.7366004875636846  0.655231813407781  0.5448865345072988  1.0000
  C   C23       1.0  0.237090615743881  0.5443328472456486  0.6558504171083329  1.0000
  C   C24       1.0  0.2633969135665665  0.3447684278907063  0.45511205881256694  1.0000
  C   C25       1.0  0.7119094102011587  0.5510779032827884  0.17070295735344124  1.0000
  C   C26       1.0  0.7880273715338503  0.8292478010555159  0.44939127868612155  1.0000
  C   C27       1.0  0.28809058557556  0.4489230718918905  0.8292971814789708  1.0000
  C   C28       1.0  0.21197134750175908  0.17075244024297126  0.5506079299216252  1.0000
  C   C29       1.0  0.7930823342964359  0.6301317800509951  0.1725566463327154  1.0000
  C   C30       1.0  0.707379121843658  0.827045438617539  0.37069315597134533  1.0000
  C   C31       1.0  0.2069176614802828  0.3698691951236839  0.8274434924996967  1.0000
  C   C32       1.0  0.2926208327688045  0.17295627043332476  0.6293053503276126  1.0000
  C   C33       1.0  0.6405783109416986  0.556777919629262  0.07797569438822906  1.0000
  C   C34       1.0  0.8592316439464298  0.9226342797609848  0.4431569592631987  1.0000
  C   C35       1.0  0.3594229615761293  0.4432237894216016  0.9220247255121093  1.0000
  C   C36       1.0  0.14076975206415193  0.0773652276613177  0.5568444632970113  1.0000
  C   C37       1.0  0.6788284701165209  0.6511727442160266  0.9869588755280175  1.0000
  C   C38       1.0  0.8212260356716286  0.013374893512875  0.348540806690707  1.0000
  C   C39       1.0  0.32117420263517  0.3488274970824605  0.013041529786626415  1.0000
  C   C40       1.0  0.17877676057280917  0.9866231461570509  0.6514599521270624  1.0000
  C   C41       1.0  0.7721090194841551  0.1533382921954001  0.028161845980022814  1.0000
  C   C42       1.0  0.7282211845601765  0.9717893067838974  0.8467646546057137  1.0000
  C   C43       1.0  0.22789241769067564  0.8466604813507177  0.9718386124866568  1.0000
  C   C44       1.0  0.2717734984308535  0.028212402266973406  0.1532346363254575  1.0000
  C   C45       1.0  0.6457813217024153  0.1413063921052142  0.9612576893085603  1.0000
  C   C46       1.0  0.8549123110349228  0.0385747340311298  0.8590834077994316  1.0000
  C   C47       1.0  0.3542187975670572  0.8586923814409035  0.03874215387023837  1.0000
  C   C48       1.0  0.14508517242382618  0.961424039514988  0.1409178014305893  1.0000
  C   C49       1.0  0.7009071455348916  0.19287073465091  0.8545357235417299  1.0000
  C   C50       1.0  0.7999226652570713  0.1456920362003018  0.8076472802257868  1.0000
  C   C51       1.0  0.29909285024182714  0.807130240523769  0.14546376613393608  1.0000
  C   C52       1.0  0.2000800074946127  0.8543082050981923  0.19235312508885014  1.0000
  C   C53       1.0  0.6536724279454232  0.29262725866182393  0.800446694257566  1.0000
  C   C54       1.0  0.8464842287039289  0.199615056811858  0.7081212630994358  1.0000
  C   C55       1.0  0.3463289680651583  0.7073722487604786  0.19955407914589784  1.0000
  C   C56       1.0  0.15351984428161805  0.8003837167342596  0.29187977678625293  1.0000
  C   C57       1.0  0.7010766002648198  0.3455786272014479  0.7017123009620647  1.0000
  C   C58       1.0  0.7982433502999342  0.2985599137596609  0.6550040613199499  1.0000
  C   C59       1.0  0.2989274727207274  0.6544201463446697  0.2982887389236311  1.0000
  C   C60       1.0  0.2017607226856128  0.7014388597864569  0.3449969785657458  1.0000
  O   O1        1.0  0.6909709307134122  0.24384210523729175  0.2157324398834746  1.0000
  O   O2        1.0  0.8088570879377457  0.7836623478074571  0.756258830592529  1.0000
  O   O3        1.0  0.3090291062275554  0.7561581360611953  0.7842680331688995  1.0000
  O   O4        1.0  0.1911415899336077  0.21633862736722165  0.2437400437952633  1.0000
  O   O5        1.0  0.8389716775491962  0.6704289214936381  0.9641405153377036  1.0000
  O   O6        1.0  0.6611486064680817  0.0360604742135635  0.3291256311205402  1.0000
  O   O7        1.0  0.1610310775309927  0.3295698520524795  0.03585861094661174  1.0000
  O   O8        1.0  0.3388541486121071  0.9639382993325469  0.670873495163775  1.0000
  O   O9        1.0  0.8986469211657352  0.3485067931886263  0.1912003521217258  1.0000
  O   O10       1.0  0.6012346908974493  0.8090302459725933  0.6517882055967165  1.0000
  O   O11       1.0  0.10135307461098361  0.6514941819860525  0.8088010850241787  1.0000
  O   O12       1.0  0.39876518138651557  0.1909729308306467  0.34821028141907107  1.0000
  O   O13       1.0  0.9272604082759912  0.18135108013943585  0.0003417026902994044  1.0000
  O   O14       1.0  0.5732693235671248  0.999968684622438  0.8187388708235018  1.0000
  O   O15       1.0  0.07274102889883952  0.8186476934066818  0.9996581066196342  1.0000
  O   O16       1.0  0.42672540058815406  3.2290552241e-05  0.18126075432762428  1.0000
  O   O17       1.0  0.7156969251609909  0.13621842849891413  0.11517855094021458  1.0000
  O   O18       1.0  0.7842070542470196  0.8844338225853576  0.8636200278739778  1.0000
  O   O19       1.0  0.284304470849591  0.8637810789233883  0.8848215733065032  1.0000
  O   O20       1.0  0.2157903057189827  0.11556715258932122  0.1363808278529106  1.0000
  O   O21       1.0  0.5493155874143056  0.7056769947678987  0.9378732685219829  1.0000
  O   O22       1.0  0.9508855100851219  0.06222242641332091  0.2938957245896674  1.0000
  O   O23       1.0  0.4506883620784876  0.294323980406773  0.062125470390341844  1.0000
  O   O24       1.0  0.049117244995066804  0.9377763471327896  0.706104050851401  1.0000
  O   O25       1.0  0.2838386439379192  0.015177293428799001  0.3514125289325206  1.0000
  O   O26       1.0  0.2160949664940758  0.6479972619537406  0.9844509563379944  1.0000
  O   O27       1.0  0.7161613930030484  0.9848229478696953  0.6485879441198535  1.0000
  O   O28       1.0  0.7839050704468915  0.3520029793447534  0.015547569244141426  1.0000
