data_image0
_chemical_formula_structural       Co2H16C16S4N4Cl4
_chemical_formula_sum              "Co2 H16 C16 S4 N4 Cl4"
_cell_length_a       7.310471631517949
_cell_length_b       9.275569127766412
_cell_length_c       9.27557220518118
_cell_angle_alpha    112.11325030700935
_cell_angle_beta     97.39936451663189
_cell_angle_gamma    97.39952810215857

_space_group_name_H-M_alt    "P 1"
_space_group_IT_number       1

loop_
  _space_group_symop_operation_xyz
  'x, y, z'

loop_
  _atom_site_type_symbol
  _atom_site_label
  _atom_site_symmetry_multiplicity
  _atom_site_fract_x
  _atom_site_fract_y
  _atom_site_fract_z
  _atom_site_occupancy
  Co  Co1       1.0  0.7500015280433628  0.37291653911339023  0.6270883631639279  1.0000
  Co  Co2       1.0  0.24999967052512057  0.6270854493041681  0.3729135066428526  1.0000
  H   H1        1.0  0.2499991170489437  0.8491251119280817  0.1508793052798154  1.0000
  H   H2        1.0  0.7499952379461944  0.15087693085816764  0.8491164682878606  1.0000
  H   H3        1.0  0.40866631895246297  0.2946763365680524  0.11080549807217467  1.0000
  H   H4        1.0  0.09133613529341024  0.8892027138672132  0.705328300277948  1.0000
  H   H5        1.0  0.5913337665753743  0.705326842468416  0.8891988587079639  1.0000
  H   H6        1.0  0.9086662450942029  0.11079810048418885  0.29466247112551264  1.0000
  H   H7        1.0  0.2500003962629548  0.17221220963669023  0.8277963302315642  1.0000
  H   H8        1.0  0.750001863762307  0.8277885757473837  0.17220951117434416  1.0000
  H   H9        1.0  0.41654400955027177  0.15594959376213777  0.5382444878499513  1.0000
  H   H10       1.0  0.08345676772861309  0.46175774566781763  0.8440510112985181  1.0000
  H   H11       1.0  0.5834538672364786  0.8440441080001121  0.4617506713069517  1.0000
  H   H12       1.0  0.916544179391707  0.5382489953642278  0.1559526234289379  1.0000
  H   H13       1.0  0.25381521583029343  0.0032257429448704993  0.3839008347626632  1.0000
  H   H14       1.0  0.24618451362346858  0.6161037115137444  0.9967775683835001  1.0000
  H   H15       1.0  0.746185445598215  0.9967738797750415  0.6160968518880026  1.0000
  H   H16       1.0  0.7538147919135413  0.38390185650867875  0.0032232937324536016  1.0000
  C   C1        1.0  0.42400025729374147  0.15711980916321977  0.3204122899625689  1.0000
  C   C2        1.0  0.07600701545820944  0.6795925298583609  0.8428813366253182  1.0000
  C   C3        1.0  0.5759995425422771  0.8428762515611223  0.6795861187407796  1.0000
  C   C4        1.0  0.9239980507748768  0.3204082503309919  0.157118331846263  1.0000
  C   C5        1.0  0.33767471061462107  0.08046102419101692  0.1501425062973709  1.0000
  C   C6        1.0  0.16233241786783736  0.8498625503955636  0.9195429690013912  1.0000
  C   C7        1.0  0.6623218231038094  0.9195445573025008  0.849860223037922  1.0000
  C   C8        1.0  0.8376729685918959  0.1501334937320564  0.08044632311954555  1.0000
  C   C9        1.0  0.24999916713880307  0.9199314144107757  0.08007355870819305  1.0000
  C   C10       1.0  0.7499995496743634  0.08007177549943376  0.9199295788241246  1.0000
  C   C11       1.0  0.3402194751198806  0.16996697079310508  0.0568578123435088  1.0000
  C   C12       1.0  0.15978417071887213  0.943143900473629  0.8300337047145379  1.0000
  C   C13       1.0  0.6597786701640657  0.8300338451430915  0.943145447747675  1.0000
  C   C14       1.0  0.8402236373150059  0.05685092767767229  0.1699618546820929  1.0000
  C   C15       1.0  0.25000305504919845  0.10148925761077976  0.8985195041537964  1.0000
  C   C16       1.0  0.7500012054011337  0.898513905357241  0.10147989893983579  1.0000
  S   S1        1.0  0.5959420318512229  0.32124587753850153  0.3833200263825915  1.0000
  S   S2        1.0  0.9040623279493898  0.6166831853589655  0.6787556580305464  1.0000
  S   S3        1.0  0.4040676390507371  0.6787512950912242  0.616686317561701  1.0000
  S   S4        1.0  0.09592861929090897  0.3833105500810276  0.32124416917470466  1.0000
  N   N1        1.0  0.3651979138109595  0.09660503268261778  0.4188636799241651  1.0000
  N   N2        1.0  0.13480637404394  0.581140900621321  0.9034001082947469  1.0000
  N   N3        1.0  0.6348065422778006  0.9033874328966717  0.5811349456794161  1.0000
  N   N4        1.0  0.8651859761546844  0.41886469487155853  0.09660865115579037  1.0000
  Cl  Cl1       1.0  0.5498731385513621  0.3644266624378999  0.7877183689932538  1.0000
  Cl  Cl2       1.0  0.9501254122388333  0.21228096095679658  0.6355754453812282  1.0000
  Cl  Cl3       1.0  0.4501233651492669  0.6355729804886606  0.2122821184864208  1.0000
  Cl  Cl4       1.0  0.04987822509841065  0.7877198156226296  0.36443053884375587  1.0000
