data_image0
_chemical_formula_structural       Zn8H112C160N8O32F48
_chemical_formula_sum              "Zn8 H112 C160 N8 O32 F48"
_cell_length_a       19.193339029279056
_cell_length_b       19.19333700672639
_cell_length_c       27.69073603263161
_cell_angle_alpha    110.27715334420304
_cell_angle_beta     110.2769315382673
_cell_angle_gamma    89.99621486647862

_space_group_name_H-M_alt    "P 1"
_space_group_IT_number       1

loop_
  _space_group_symop_operation_xyz
  'x, y, z'

loop_
  _atom_site_type_symbol
  _atom_site_label
  _atom_site_symmetry_multiplicity
  _atom_site_fract_x
  _atom_site_fract_y
  _atom_site_fract_z
  _atom_site_occupancy
  Zn  Zn1       1.0  0.5675387864251887  0.4944105115394135  0.48885529907113295  1.0000
  Zn  Zn2       1.0  0.4944092770073778  0.5675378616534559  0.9888544298131093  1.0000
  Zn  Zn3       1.0  0.9213434335792883  0.4944296069390503  0.48885952114263614  1.0000
  Zn  Zn4       1.0  0.5055699296333884  0.07865706584207999  0.011141451666674046  1.0000
  Zn  Zn5       1.0  0.49442847015110636  0.9213433282963449  0.988858503522273  1.0000
  Zn  Zn6       1.0  0.5055890338306809  0.432461901190493  0.011144877066470792  1.0000
  Zn  Zn7       1.0  0.43246115042658306  0.5055897268030165  0.5111450698467478  1.0000
  Zn  Zn8       1.0  0.07865659648636115  0.5055695196581097  0.5111409407049193  1.0000
  H   H1        1.0  0.4803775952991246  0.23116336838194232  0.08612767184887811  1.0000
  H   H2        1.0  0.17681547601382133  0.2485350583116457  0.8089520971950959  1.0000
  H   H3        1.0  0.693825928093311  0.41753050819409043  0.6173813039900933  1.0000
  H   H4        1.0  0.367865058818488  0.751495718603664  0.19104837049039958  1.0000
  H   H5        1.0  0.4804120592776968  0.35493942781269544  0.08615382946603485  1.0000
  H   H6        1.0  0.6564789218241599  0.8312250834971592  0.794371794223437  1.0000
  H   H7        1.0  0.19946044971734966  0.6201581877663357  0.5227272229852459  1.0000
  H   H8        1.0  0.597464979160996  0.6767283643605637  0.9772593264431675  1.0000
  H   H9        1.0  0.23116264972332334  0.4803777813815771  0.5861274055431379  1.0000
  H   H10       1.0  0.6321341984460813  0.24850522893124347  0.8089524398723709  1.0000
  H   H11       1.0  0.6201770452447165  0.3232258739342838  0.022738832430654467  1.0000
  H   H12       1.0  0.80052872923482  0.5975001583861755  0.4772809500368351  1.0000
  H   H13       1.0  0.8487464708838034  0.2626677316627663  0.36830688771875925  1.0000
  H   H14       1.0  0.48045993608000237  0.7373578866411491  0.6316743156888261  1.0000
  H   H15       1.0  0.7514638870279453  0.8231834962658409  0.6910473625593878  1.0000
  H   H16       1.0  0.13796467329432707  0.46315025227967505  0.794413602435945  1.0000
  H   H17       1.0  0.07635076452526579  0.582416605397718  0.38256742900657764  1.0000
  H   H18       1.0  0.6767731897654343  0.3798228670973955  0.47726144387251396  1.0000
  H   H19       1.0  0.6057171603930555  0.3549352473625759  0.08615962793403745  1.0000
  H   H20       1.0  0.7373325446727536  0.15125524870571638  0.13169319021394424  1.0000
  H   H21       1.0  0.3798415183129146  0.8005387965700448  0.9772718993867922  1.0000
  H   H22       1.0  0.5143510565509216  0.2802263793462672  0.9365681364275243  1.0000
  H   H23       1.0  0.6056436981805575  0.5195179071435374  0.8683085718995612  1.0000
  H   H24       1.0  0.1563540144174168  0.5143440148872926  0.4365451076531883  1.0000
  H   H25       1.0  0.2626428503198995  0.5195400444780276  0.8683264532829824  1.0000
  H   H26       1.0  0.24850509830387318  0.6321344474317456  0.3089530611326694  1.0000
  H   H27       1.0  0.4631487743028799  0.13796444773955585  0.29441337187085265  1.0000
  H   H28       1.0  0.06038006225590209  0.17677207738690018  0.3089552338865643  1.0000
  H   H29       1.0  0.4631122509119621  0.6564231091327528  0.2944012810267792  1.0000
  H   H30       1.0  0.40253509616868405  0.3232706863195176  0.02274062095791852  1.0000
  H   H31       1.0  0.6767294793336092  0.5974647216023142  0.4772593272314934  1.0000
  H   H32       1.0  0.5143444506317961  0.15635361935597555  0.9365456964782976  1.0000
  H   H33       1.0  0.6056772764930468  0.8487235346705617  0.8682871176075435  1.0000
  H   H34       1.0  0.8620072099581223  0.16879206030660043  0.2056238116075732  1.0000
  H   H35       1.0  0.5824173702472987  0.07635260879983716  0.8825687595410369  1.0000
  H   H36       1.0  0.3943226108272455  0.15127852262868657  0.13171432113648507  1.0000
  H   H37       1.0  0.19947161451579365  0.40250000304871486  0.5227192650900391  1.0000
  H   H38       1.0  0.6998407600513517  0.6938270983690912  0.1174052730705667  1.0000
  H   H39       1.0  0.36782810301355084  0.9396117329935405  0.1910465503001148  1.0000
  H   H40       1.0  0.0763936902718782  0.3001072318242634  0.3826044067439795  1.0000
  H   H41       1.0  0.7688445319187166  0.39430919323429947  0.41386037834846673  1.0000
  H   H42       1.0  0.1687923578842853  0.86200722827747  0.7056243433795969  1.0000
  H   H43       1.0  0.4856490187787585  0.7197726713338142  0.06343181097355441  1.0000
  H   H44       1.0  0.3549388113029364  0.4804114378131883  0.5861534222012351  1.0000
  H   H45       1.0  0.6450613982372033  0.5195881682442971  0.4138466590627415  1.0000
  H   H46       1.0  0.1512769988817337  0.3943224710607183  0.631713300527977  1.0000
  H   H47       1.0  0.30010769354729644  0.07639468382393484  0.8826048934297004  1.0000
  H   H48       1.0  0.3232270197747054  0.6201767389600903  0.5227386373914625  1.0000
  H   H49       1.0  0.4024995603336095  0.19947212225934413  0.02271954918680304  1.0000
  H   H50       1.0  0.8620344950237993  0.536850063960749  0.20558655961746536  1.0000
  H   H51       1.0  0.5777844220356202  0.8436347013531814  0.06346804813500728  1.0000
  H   H52       1.0  0.3435206081287774  0.16877523175281076  0.2056287284854362  1.0000
  H   H53       1.0  0.34357645575827417  0.5368875187736888  0.2055986990046178  1.0000
  H   H54       1.0  0.24853510181569755  0.1768163405142644  0.30895318007759437  1.0000
  H   H55       1.0  0.422215018970881  0.1563649826023052  0.9365318262645059  1.0000
  H   H56       1.0  0.17677122518976757  0.060381022410503166  0.8089557482691275  1.0000
  H   H57       1.0  0.16877476472814817  0.3435199182019416  0.7056283494374539  1.0000
  H   H58       1.0  0.8312078516558613  0.13799237778001577  0.2943757378843797  1.0000
  H   H59       1.0  0.5368505777571924  0.8620346049214475  0.7055858542193006  1.0000
  H   H60       1.0  0.8436454265890841  0.48565566906819396  0.563454766746325  1.0000
  H   H61       1.0  0.8436343265714825  0.577785056890967  0.5634681542469477  1.0000
  H   H62       1.0  0.15125427976563782  0.7373323528645839  0.6316931736171155  1.0000
  H   H63       1.0  0.41758288028942997  0.923648664380316  0.1174313626561626  1.0000
  H   H64       1.0  0.3061722263278098  0.30015939251331497  0.38259522754376707  1.0000
  H   H65       1.0  0.6938271694146677  0.6998403673592506  0.6174051613022156  1.0000
  H   H66       1.0  0.3942828696725936  0.6450638792345912  0.9138408339135108  1.0000
  H   H67       1.0  0.9396201925482682  0.8232274527535066  0.6910443329309499  1.0000
  H   H68       1.0  0.280226867183856  0.5143505774441408  0.4365679466190854  1.0000
  H   H69       1.0  0.8232273540692178  0.9396198511882474  0.19104382633624067  1.0000
  H   H70       1.0  0.9236065645322924  0.6998922983161434  0.6173951600735347  1.0000
  H   H71       1.0  0.3232707302065378  0.40253488445517155  0.5227407540324903  1.0000
  H   H72       1.0  0.30015945375623687  0.30617076464864806  0.8825942528137245  1.0000
  H   H73       1.0  0.06038736238588863  0.6321719527871537  0.3089525893138826  1.0000
  H   H74       1.0  0.13799272689364955  0.8312081780358226  0.7943765573103007  1.0000
  H   H75       1.0  0.6564232099867552  0.46311256872503725  0.7944002803648542  1.0000
  H   H76       1.0  0.7514938468573644  0.3678646821367977  0.6910463187484834  1.0000
  H   H77       1.0  0.8231827938276552  0.7514630374096357  0.19104716875126818  1.0000
  H   H78       1.0  0.5195169435664865  0.605643165731955  0.36830838681409245  1.0000
  H   H79       1.0  0.2626678853384659  0.8487465039347555  0.8683065513996835  1.0000
  H   H80       1.0  0.6998926911998922  0.9236071447336155  0.11739536263038976  1.0000
  H   H81       1.0  0.6450653266071666  0.3942823910716556  0.4138408393546057  1.0000
  H   H82       1.0  0.6201585570167653  0.19946025411003623  0.022728048014286496  1.0000
  H   H83       1.0  0.632172781846357  0.06038890691120707  0.8089536448986504  1.0000
  H   H84       1.0  0.3943561907213677  0.48048336702707656  0.1316911896421685  1.0000
  H   H85       1.0  0.7197725738226523  0.48564910651134596  0.5634319277804279  1.0000
  H   H86       1.0  0.5974999696193277  0.8005281929906259  0.9772809735220703  1.0000
  H   H87       1.0  0.4804828138107951  0.3943565931501496  0.6316923626873531  1.0000
  H   H88       1.0  0.4222246027436964  0.280221794611677  0.936554437618717  1.0000
  H   H89       1.0  0.7197766654808077  0.5777758505676046  0.5634453569267277  1.0000
  H   H90       1.0  0.41753076973908076  0.6938267597868021  0.11738233647987065  1.0000
  H   H91       1.0  0.9236490381160464  0.41758307756730756  0.6174328060484054  1.0000
  H   H92       1.0  0.5196227484514817  0.768836793052948  0.913872543277996  1.0000
  H   H93       1.0  0.48565521779904935  0.8436455082316527  0.06345440471378785  1.0000
  H   H94       1.0  0.9396115375113181  0.36782725269847555  0.6910473050137396  1.0000
  H   H95       1.0  0.7688375598168163  0.5196218246759087  0.4138726757208387  1.0000
  H   H96       1.0  0.231155450197086  0.6056909691910447  0.5861394761229376  1.0000
  H   H97       1.0  0.6056898923814559  0.23115575796020243  0.08614008711329281  1.0000
  H   H98       1.0  0.5368875517293501  0.34357657383227297  0.705598954028197  1.0000
  H   H99       1.0  0.5824701588032255  0.30617458732950803  0.8826190214747313  1.0000
  H   H100      1.0  0.15636511443502585  0.4222146270645197  0.4365317201525655  1.0000
  H   H101      1.0  0.5777755178500216  0.7197771801513327  0.06344499533589948  1.0000
  H   H102      1.0  0.5195406803589789  0.2626416425087967  0.36832561178415085  1.0000
  H   H103      1.0  0.8005393981879864  0.37984141928161097  0.477272497623268  1.0000
  H   H104      1.0  0.39430991025985646  0.7688439250048233  0.9138601479416834  1.0000
  H   H105      1.0  0.35493452129817626  0.6057172159762914  0.5861588812539081  1.0000
  H   H106      1.0  0.51958815026245  0.6450601782447903  0.9138462517979419  1.0000
  H   H107      1.0  0.8487224421247745  0.6056772128947684  0.3682865738715362  1.0000
  H   H108      1.0  0.280222006992055  0.4222239112858759  0.43655431060832217  1.0000
  H   H109      1.0  0.7373577208550515  0.480459560588997  0.13167398863646423  1.0000
  H   H110      1.0  0.8312250379131568  0.6564797647630838  0.29437188561752226  1.0000
  H   H111      1.0  0.30617351291319733  0.5824691757613961  0.3826185704094198  1.0000
  H   H112      1.0  0.37982289587450396  0.6767726213683999  0.977260981107534  1.0000
  C   C1        1.0  0.6467656089293424  0.9438812973268398  0.7953732954029602  1.0000
  C   C2        1.0  0.7666222135935852  0.33989579401237074  0.7801230250266324  1.0000
  C   C3        1.0  0.26423129968628695  0.022635190616540474  0.8627650357483602  1.0000
  C   C4        1.0  0.6599201009754693  0.7357102979066708  0.6372708809143217  1.0000
  C   C5        1.0  0.4601386412275446  0.24321021751487848  0.3548523971444552  1.0000
  C   C6        1.0  0.7684224962420388  0.41495345103121645  0.455984820795642  1.0000
  C   C7        1.0  0.9402041522506079  0.7666236202342205  0.2801236381945243  1.0000
  C   C8        1.0  0.013536207753254448  0.940206419451819  0.7801314883513938  1.0000
  C   C9        1.0  0.9868662325436613  0.8053900322681925  0.6789846078567192  1.0000
  C   C10       1.0  0.23337686577811204  0.660103890933577  0.21987648871741064  1.0000
  C   C11       1.0  0.414953718794443  0.7684215728507694  0.9559842579927603  1.0000
  C   C12       1.0  0.5838346276263235  0.40980867447179026  0.6202085837114948  1.0000
  C   C13       1.0  0.059793675081316014  0.9864635673174434  0.7198692945785153  1.0000
  C   C14       1.0  0.3736124121360048  0.9868667952862467  0.17899933595789713  1.0000
  C   C15       1.0  0.9402070755681253  0.013536517209899953  0.2801307667573595  1.0000
  C   C16       1.0  0.6485406150409218  0.3532609693096234  0.7046119777231039  1.0000
  C   C17       1.0  0.590150152429018  0.9635128361639287  0.8797208375947602  1.0000
  C   C18       1.0  0.5411123631422182  0.768410013055316  0.9559957540076593  1.0000
  C   C19       1.0  0.8513585701351971  0.6485120667973446  0.20460342563465142  1.0000
  C   C20       1.0  0.6599264095525114  0.4015105594360192  0.6372452355283753  1.0000
  C   C21       1.0  0.8851211455699256  0.1734685808978468  0.31337474707584057  1.0000
  C   C22       1.0  0.6116195768569241  0.4601261927554603  0.854853980751372  1.0000
  C   C23       1.0  0.2896254199229415  0.41618203469186454  0.8797805982671817  1.0000
  C   C24       1.0  0.5503072524979727  0.6344522612023126  0.5762514955737856  1.0000
  C   C25       1.0  0.5410804735817648  0.6875862637930654  0.9559767491883092  1.0000
  C   C26       1.0  0.4161840139762631  0.2896253010089466  0.3797822618020915  1.0000
  C   C27       1.0  0.7684107233873334  0.5411118384983312  0.45599571210702533  1.0000
  C   C28       1.0  0.3655274369746804  0.9739448208509314  0.9236934365993789  1.0000
  C   C29       1.0  0.6601035230747526  0.23337641699092157  0.7198753811492435  1.0000
  C   C30       1.0  0.5581431539956795  0.9738976964156765  0.9236493024219213  1.0000
  C   C31       1.0  0.5214381896776389  0.8116096837973501  0.04289223874874176  1.0000
  C   C32       1.0  0.28959549096023085  0.963569503134977  0.879776470539518  1.0000
  C   C33       1.0  0.6875868984375016  0.5410804723066533  0.45597670210221936  1.0000
  C   C34       1.0  0.35326304134911607  0.6485415727726859  0.20461276853077234  1.0000
  C   C35       1.0  0.35323532388041207  0.05611830674972398  0.20462750717194916  1.0000
  C   C36       1.0  0.23157784750856786  0.5850467104036738  0.5440153943312324  1.0000
  C   C37       1.0  0.692165419831646  0.8053402559960928  0.6789997859119337  1.0000
  C   C38       1.0  0.19460873670006848  0.013135603183307878  0.8210162448866497  1.0000
  C   C39       1.0  0.6344532274408365  0.5503002957411881  0.0762495375142151  1.0000
  C   C40       1.0  0.5214300649024325  0.7312359718561513  0.042867848765055776  1.0000
  C   C41       1.0  0.8053912411482926  0.98686630228179  0.17898416496444003  1.0000
  C   C42       1.0  0.4589193290595475  0.3124134191719606  0.04402348586667417  1.0000
  C   C43       1.0  0.0260475562992965  0.6344734483909135  0.5763046549411398  1.0000
  C   C44       1.0  0.692195785178363  0.373665409063264  0.6790065374367343  1.0000
  C   C45       1.0  0.3883815284740564  0.5398765937322736  0.14514587479704485  1.0000
  C   C46       1.0  0.1734509525348427  0.4282261332379846  0.8134063640155417  1.0000
  C   C47       1.0  0.17346789548426486  0.8851212639562716  0.81337476747602  1.0000
  C   C48       1.0  0.4496932734129471  0.36554741978179084  0.42374946079212333  1.0000
  C   C49       1.0  0.5718027784586537  0.3600591240948389  0.6866019414729363  1.0000
  C   C50       1.0  0.7567874492342668  0.5398607761238523  0.14514637154832127  1.0000
  C   C51       1.0  0.05979655313480206  0.23337654021020166  0.7198769375878198  1.0000
  C   C52       1.0  0.5398614793661664  0.7567887572481312  0.6451470358101614  1.0000
  C   C53       1.0  0.805339248648771  0.6921651883357426  0.17899999258364813  1.0000
  C   C54       1.0  0.8946344169229477  0.6116362260643624  0.35480026817334204  1.0000
  C   C55       1.0  0.036487816285727864  0.40985032184775594  0.620280330333486  1.0000
  C   C56       1.0  0.2642876841709379  0.34007826090038407  0.862727937793039  1.0000
  C   C57       1.0  0.6116365086578238  0.8946347784999982  0.8548010284778936  1.0000
  C   C58       1.0  0.44179289758228185  0.5503293545791763  0.07626260920775954  1.0000
  C   C59       1.0  0.3736668167867094  0.6921961307677477  0.17900767756559324  1.0000
  C   C60       1.0  0.056117621663858364  0.35323393233249323  0.7046268507204089  1.0000
  C   C61       1.0  0.40151014239295785  0.6599292606677166  0.1372461511388748  1.0000
  C   C62       1.0  0.6263893302039703  0.013134398014983562  0.8210017144146986  1.0000
  C   C63       1.0  0.5398740243852699  0.3883810290311658  0.6451456580222936  1.0000
  C   C64       1.0  0.022635904652616907  0.26423123224189726  0.36276497024853427  1.0000
  C   C65       1.0  0.10536529250448709  0.3883645686459261  0.6451998739519595  1.0000
  C   C66       1.0  0.3078347401770216  0.19466116901821806  0.32100136517820477  1.0000
  C   C67       1.0  0.6797105494691208  0.9296900807529197  0.7499901331715222  1.0000
  C   C68       1.0  0.9739020711731001  0.5581428337905051  0.4236488086238379  1.0000
  C   C69       1.0  0.34007312040042587  0.5984897558139507  0.362755287180505  1.0000
  C   C70       1.0  0.9438816851321831  0.6467651962455887  0.2953728898162067  1.0000
  C   C71       1.0  0.40980936069267665  0.5838368298733272  0.12020953717117776  1.0000
  C   C72       1.0  0.9774058903826696  0.4015476990372447  0.6372877345217274  1.0000
  C   C73       1.0  0.23337658635809788  0.0597961444555111  0.21987695637302088  1.0000
  C   C74       1.0  0.5850463565352371  0.23157747782931176  0.04401568940832581  1.0000
  C   C75       1.0  0.5984908271459303  0.34007375357126074  0.862755247748943  1.0000
  C   C76       1.0  0.013132815380060782  0.6263876328710366  0.32100035723381376  1.0000
  C   C77       1.0  0.6399803801151334  0.8851343707312223  0.8133675503963073  1.0000
  C   C78       1.0  0.5850735954788959  0.312399244228267  0.044031734905367145  1.0000
  C   C79       1.0  0.42822575249738987  0.17345049105539803  0.31340633437869764  1.0000
  C   C80       1.0  0.6344719631314959  0.026034881590426554  0.07630247933911241  1.0000
  C   C81       1.0  0.9635108109231041  0.5901495159228105  0.37971985164802646  1.0000
  C   C82       1.0  0.013133976996485237  0.19460957378929322  0.3210154734072646  1.0000
  C   C83       1.0  0.9296692025959031  0.07033049829239248  0.24999950083183348  1.0000
  C   C84       1.0  0.826549257005304  0.5717734728195013  0.18659371724843501  1.0000
  C   C85       1.0  0.4601254603036437  0.6116193621358832  0.354855379133049  1.0000
  C   C86       1.0  0.41616621196955333  0.5901920413500361  0.37979212593374695  1.0000
  C   C87       1.0  0.9438637533786649  0.14865225608615154  0.2953827364738044  1.0000
  C   C88       1.0  0.11486590836070569  0.36001889349919475  0.686633013197543  1.0000
  C   C89       1.0  0.6467386530410122  0.3514606563567212  0.7953876744656865  1.0000
  C   C90       1.0  0.4588875737095536  0.23159022528711398  0.044004614910214485  1.0000
  C   C91       1.0  0.02609786994612051  0.4418556615121787  0.5763510049143505  1.0000
  C   C92       1.0  0.33986314683630775  0.013497865551677476  0.2801407898263121  1.0000
  C   C93       1.0  0.4098513172225893  0.03648898942223867  0.1202805004317326  1.0000
  C   C94       1.0  0.23158948615280633  0.4588877675591546  0.5440043691569513  1.0000
  C   C95       1.0  0.7104063844860208  0.03643242232611496  0.12022191467107023  1.0000
  C   C96       1.0  0.8946670001226452  0.243224628757666  0.35483174466416045  1.0000
  C   C97       1.0  0.5582094609068945  0.44967835438808373  0.9237379366602523  1.0000
  C   C98       1.0  0.3655479854879925  0.44969536675341004  0.9237470676225212  1.0000
  C   C99       1.0  0.8513483143575726  0.05613563728732628  0.2046165541037934  1.0000
  C   C100      1.0  0.9864633674637132  0.059793819881072414  0.21986851991101722  1.0000
  C   C101      1.0  0.4418571669323227  0.026093648955111282  0.07635144927788663  1.0000
  C   C102      1.0  0.3398963248305832  0.7666231900570251  0.2801243394592702  1.0000
  C   C103      1.0  0.687600650405834  0.41492604542704464  0.45596834424397054  1.0000
  C   C104      1.0  0.9296894304154011  0.6797111558989998  0.24998952886906503  1.0000
  C   C105      1.0  0.4496759864364319  0.5582080601555787  0.42373716844917897  1.0000
  C   C106      1.0  0.40154860753613514  0.9774066105469289  0.13728799168278977  1.0000
  C   C107      1.0  0.9773644390979896  0.7357689291929858  0.63723524487834  1.0000
  C   C108      1.0  0.5838168735694608  0.7103743789846959  0.6202190552192872  1.0000
  C   C109      1.0  0.7666228093843797  0.9402036154170542  0.7801234324729617  1.0000
  C   C110      1.0  0.14864046397247666  0.3514876940656818  0.7953966025558613  1.0000
  C   C111      1.0  0.626333977545137  0.30780466097115766  0.8209935465261109  1.0000
  C   C112      1.0  0.9868663572055212  0.373610940329648  0.6789992494399041  1.0000
  C   C113      1.0  0.2432255834284047  0.8946667270596932  0.8548324739302868  1.0000
  C   C114      1.0  0.3514588259655794  0.6467387146458634  0.29538789667640936  1.0000
  C   C115      1.0  0.5503235435165051  0.4417922550943914  0.5762633542596943  1.0000
  C   C116      1.0  0.2687639896777511  0.4785693606131998  0.457132201137142  1.0000
  C   C117      1.0  0.3203012332087525  0.6796992755275825  0.2500008581025738  1.0000
  C   C118      1.0  0.6399408982033845  0.4281984296143121  0.8133990512727035  1.0000
  C   C119      1.0  0.4281970241826584  0.6399405588701869  0.31339829358203974  1.0000
  C   C120      1.0  0.9635680974497873  0.2895948690631513  0.37977790433090053  1.0000
  C   C121      1.0  0.18838941591877756  0.47856206779292887  0.45710796197568726  1.0000
  C   C122      1.0  0.7312355855392171  0.5214308787196841  0.5428678071252618  1.0000
  C   C123      1.0  0.14865212260691846  0.9438634124023011  0.7953837539527554  1.0000
  C   C124      1.0  0.7103739321371307  0.5838170179691387  0.12021862782297166  1.0000
  C   C125      1.0  0.38836441988448206  0.10536656861631138  0.14520032947670802  1.0000
  C   C126      1.0  0.8116101592981905  0.5214381715399554  0.5428920462867237  1.0000
  C   C127      1.0  0.013497965048486285  0.3398640184416024  0.7801410997397155  1.0000
  C   C128      1.0  0.8851331257469681  0.6399808673638318  0.3133670149929697  1.0000
  C   C129      1.0  0.5901921046914821  0.4161667387525866  0.8797923562350005  1.0000
  C   C130      1.0  0.3600196456830744  0.11486649890568398  0.18663346683093343  1.0000
  C   C131      1.0  0.8265318592071935  0.11487945483693807  0.18662486020281918  1.0000
  C   C132      1.0  0.07031127497000961  0.3202890045454224  0.750011046913272  1.0000
  C   C133      1.0  0.31241267677946616  0.4589197670262378  0.5440233061601913  1.0000
  C   C134      1.0  0.5717738227195779  0.8265497482774862  0.6865936738837062  1.0000
  C   C135      1.0  0.6601363831166293  0.9865024496982855  0.719859732882561  1.0000
  C   C136      1.0  0.3123987906006745  0.585073638528442  0.5440315301555428  1.0000
  C   C137      1.0  0.7567741302664787  0.10533232461085618  0.14516711281532924  1.0000
  C   C138      1.0  0.4785697377388799  0.2687637111088748  0.9571323862899204  1.0000
  C   C139      1.0  0.30780406272697997  0.6263341979846827  0.3209931831717795  1.0000
  C   C140      1.0  0.36005926180528286  0.5718029953999917  0.1866020998174277  1.0000
  C   C141      1.0  0.24321000412371752  0.460138433323614  0.8548520801574353  1.0000
  C   C142      1.0  0.7357111720438639  0.6599202373736829  0.13727079377875365  1.0000
  C   C143      1.0  0.10533366158036707  0.7567748244752012  0.6451676683623545  1.0000
  C   C144      1.0  0.07033100694424353  0.9296691077650933  0.750000580432143  1.0000
  C   C145      1.0  0.7357688209074239  0.9773637841464691  0.13723439720625652  1.0000
  C   C146      1.0  0.9865018375928257  0.6601356645234233  0.21985913531526782  1.0000
  C   C147      1.0  0.6485115824356952  0.8513594379950149  0.7046034178476858  1.0000
  C   C148      1.0  0.5984529553293497  0.022594103293982867  0.8627134392733776  1.0000
  C   C149      1.0  0.03643111613237656  0.7104053712601937  0.6202217432760474  1.0000
  C   C150      1.0  0.32028898048381643  0.07031023449704317  0.25001038953735116  1.0000
  C   C151      1.0  0.6796985694325598  0.32030040743744337  0.7499993769524023  1.0000
  C   C152      1.0  0.4785611171184029  0.18838944478073924  0.9571075017878811  1.0000
  C   C153      1.0  0.34008006330064683  0.2642893840678936  0.3627297147961172  1.0000
  C   C154      1.0  0.05613645616148213  0.8513473499713341  0.7046173447901721  1.0000
  C   C155      1.0  0.9739537807234768  0.3655270386892154  0.4236948720201637  1.0000
  C   C156      1.0  0.022593778048175594  0.5984514285503764  0.3627123666703582  1.0000
  C   C157      1.0  0.11487960507951553  0.8265315036294965  0.6866253142600343  1.0000
  C   C158      1.0  0.4149266140612508  0.6876003618292186  0.9559683463586094  1.0000
  C   C159      1.0  0.3514876311464619  0.1486408023283303  0.29539622975925534  1.0000
  C   C160      1.0  0.19466082668090906  0.3078338623443456  0.8209999548174378  1.0000
  N   N1        1.0  0.809618365899297  0.49251789917285277  0.4849854158102571  1.0000
  N   N2        1.0  0.5074817222211224  0.19038189166386835  0.015014847273796728  1.0000
  N   N3        1.0  0.1903816162165056  0.5074822632524985  0.5150144386611473  1.0000
  N   N4        1.0  0.49248904026659784  0.6753631957572283  0.9849565055607811  1.0000
  N   N5        1.0  0.4925173118865441  0.8096178691991581  0.9849851809167158  1.0000
  N   N6        1.0  0.6753635954560123  0.4924891755700216  0.4849566325930325  1.0000
  N   N7        1.0  0.32463584555048886  0.5075105083854652  0.5150432418064809  1.0000
  N   N8        1.0  0.5075106281642549  0.3246359318304001  0.015043595631297422  1.0000
  O   O1        1.0  0.9592998832984634  0.6003608309554946  0.5499121611347915  1.0000
  O   O2        1.0  0.550516712988454  0.40929765693519465  0.9501190169580837  1.0000
  O   O3        1.0  0.5906984256022197  0.6003509660963074  0.5498923661553687  1.0000
  O   O4        1.0  0.5407401424214197  0.9153401569459446  0.9310276730182846  1.0000
  O   O5        1.0  0.6096847707941039  0.08461293797728324  0.06892956503213535  1.0000
  O   O6        1.0  0.9153883939128207  0.3903143985371429  0.4310714520704406  1.0000
  O   O7        1.0  0.4844017850522133  0.45924563802633855  0.568901633400763  1.0000
  O   O8        1.0  0.6096832403328705  0.48436404541335065  0.06886448152840065  1.0000
  O   O9        1.0  0.39963859745059666  0.040701708026638486  0.9500869310485595  1.0000
  O   O10       1.0  0.9593488044902255  0.4495608872011089  0.5499437686009825  1.0000
  O   O11       1.0  0.04064787875249442  0.5504391832729921  0.45005615344260247  1.0000
  O   O12       1.0  0.04069883443843018  0.3996388549809139  0.45008699195378904  1.0000
  O   O13       1.0  0.4592481052554476  0.4844066697094646  0.06890083857740584  1.0000
  O   O14       1.0  0.4495620939130304  0.9593533487352416  0.04994424616621265  1.0000
  O   O15       1.0  0.5155995999204065  0.5407538132256065  0.4310985009366774  1.0000
  O   O16       1.0  0.3996496177899259  0.40930042158279895  0.9501067795673704  1.0000
  O   O17       1.0  0.6003647202674286  0.9593019565123554  0.04991345216357948  1.0000
  O   O18       1.0  0.5156405026773853  0.39032005179623036  0.4311338734505765  1.0000
  O   O19       1.0  0.48436196451383745  0.6096803563954367  0.568866221030653  1.0000
  O   O20       1.0  0.4093044964376843  0.3996483293596356  0.45010818191100543  1.0000
  O   O21       1.0  0.08465763425876802  0.4592561059663537  0.56897058316013  1.0000
  O   O22       1.0  0.5407546094969004  0.5156029580895519  0.9310978243008489  1.0000
  O   O23       1.0  0.6003509117616872  0.590697086797853  0.04988634616674396  1.0000
  O   O24       1.0  0.39031904786129684  0.5156352769718211  0.931131517309204  1.0000
  O   O25       1.0  0.550440140004774  0.040650141992671265  0.9500578541044361  1.0000
  O   O26       1.0  0.44948743818659415  0.5907162361101044  0.04988387650371345  1.0000
  O   O27       1.0  0.08461054698096837  0.6096864740711467  0.5689284831903975  1.0000
  O   O28       1.0  0.3903111822257368  0.9153898374285911  0.9310690692575957  1.0000
  O   O29       1.0  0.9153394148861979  0.5407422204775472  0.4310291441592326  1.0000
  O   O30       1.0  0.4592597874770875  0.08466278434732995  0.06897212945666802  1.0000
  O   O31       1.0  0.5907081368032862  0.44948628434836707  0.5498820700325664  1.0000
  O   O32       1.0  0.40929302074498963  0.550513723271436  0.45011783751230877  1.0000
  F   F1        1.0  0.9429880424151449  0.30345915939397367  0.7474682705597926  1.0000
  F   F2        1.0  0.965338354899238  0.6778372406455019  0.17385861865172084  1.0000
  F   F3        1.0  0.6778373102081259  0.965338244858067  0.6738592414341722  1.0000
  F   F4        1.0  0.11793602172180305  0.9911428579462007  0.7029783938265834  1.0000
  F   F5        1.0  0.8820645947171781  0.0088566712037448  0.2970215336463936  1.0000
  F   F6        1.0  0.056982792414693485  0.0560553991910311  0.252544641866784  1.0000
  F   F7        1.0  0.034698389953547265  0.003907852585903994  0.8261290707602527  1.0000
  F   F8        1.0  0.20852992624271133  0.6778283256214124  0.17388288619297032  1.0000
  F   F9        1.0  0.7914645845566495  0.003926281200968138  0.8261074506679119  1.0000
  F   F10       1.0  0.0039078077812674675  0.0346989855601549  0.3261278381684747  1.0000
  F   F11       1.0  0.05701306986910733  0.6965409241429085  0.2525321514315451  1.0000
  F   F12       1.0  0.6965411147246101  0.057013042280288945  0.752531660333588  1.0000
  F   F13       1.0  0.8044347006726155  0.9439312259490009  0.7474186814445571  1.0000
  F   F14       1.0  0.3034585057563886  0.9429871211355161  0.2474678334823536  1.0000
  F   F15       1.0  0.008855976295002491  0.882064132670031  0.7970219887881667  1.0000
  F   F16       1.0  0.05606801631847676  0.19556388529679228  0.7525808533456767  1.0000
  F   F17       1.0  0.003926466434435611  0.7914647322528977  0.3261070843876438  1.0000
  F   F18       1.0  0.034661493006105  0.32216236640244483  0.826141101956793  1.0000
  F   F19       1.0  0.9653019537970665  0.9960923088489791  0.17387114436662174  1.0000
  F   F20       1.0  0.19556519518257434  0.05606734527076177  0.2525816465400936  1.0000
  F   F21       1.0  0.11792142107920234  0.21177495127494692  0.7029779267493764  1.0000
  F   F22       1.0  0.20853535229512224  0.9960739571414623  0.1738929182499618  1.0000
  F   F23       1.0  0.00882632256482192  0.4149087465050555  0.7970355793959598  1.0000
  F   F24       1.0  0.41490760851112896  0.008825435095957289  0.29703511342146516  1.0000
  F   F25       1.0  0.8044456897928071  0.3034797403506602  0.7474331566745176  1.0000
  F   F26       1.0  0.9439437654971671  0.94301668767563  0.24745431583922065  1.0000
  F   F27       1.0  0.05605567550933411  0.0569829962798565  0.7525455585602926  1.0000
  F   F28       1.0  0.1955533895788902  0.6965199445952875  0.2525663570695257  1.0000
  F   F29       1.0  0.3034800950178961  0.8044462785808973  0.24743448164157647  1.0000
  F   F30       1.0  0.6965200255758147  0.1955526961821049  0.7525649513130404  1.0000
  F   F31       1.0  0.5850694434315429  0.21179522364010236  0.7029727542396954  1.0000
  F   F32       1.0  0.943932193221663  0.8044357207606936  0.24741922791829993  1.0000
  F   F33       1.0  0.9430170554906425  0.9439442078569157  0.7474550787417298  1.0000
  F   F34       1.0  0.32216158968908104  0.03466096062756208  0.3261406528934501  1.0000
  F   F35       1.0  0.6778277107915824  0.20852869567944762  0.6738817540522033  1.0000
  F   F36       1.0  0.4149302702633334  0.7882038280304399  0.29702683250592077  1.0000
  F   F37       1.0  0.7882241031370609  0.8820782420433204  0.7970216851434483  1.0000
  F   F38       1.0  0.21179583705070826  0.5850698308647821  0.20297337543399854  1.0000
  F   F39       1.0  0.9960928086577139  0.9653005435897909  0.6738720893045096  1.0000
  F   F40       1.0  0.7914694258173611  0.3221707270395909  0.8261163398971758  1.0000
  F   F41       1.0  0.3221721371137533  0.7914709113684991  0.3261179665563032  1.0000
  F   F42       1.0  0.9911735253405212  0.5850908605428912  0.202964141212554  1.0000
  F   F43       1.0  0.2117744788077474  0.11792167164433208  0.20297901128453327  1.0000
  F   F44       1.0  0.7882028806861852  0.4149298550716267  0.7970257776545818  1.0000
  F   F45       1.0  0.9911440058208002  0.1179360297553131  0.20297786568323764  1.0000
  F   F46       1.0  0.8820793295702387  0.7882251332523962  0.29702213458649124  1.0000
  F   F47       1.0  0.5850913803325142  0.9911744016841552  0.7029654292155171  1.0000
  F   F48       1.0  0.9960739225802014  0.20853535326491363  0.673892616292761  1.0000
