data_image0
_chemical_formula_structural       CuSiH16C20N8F6
_chemical_formula_sum              "Cu1 Si1 H16 C20 N8 F6"
_cell_length_a       8.09540160224388
_cell_length_b       13.101789692424475
_cell_length_c       13.10174791220243
_cell_angle_alpha    89.69321895907059
_cell_angle_beta     85.71328572942248
_cell_angle_gamma    85.7130063724992

_space_group_name_H-M_alt    "P 1"
_space_group_IT_number       1

loop_
  _space_group_symop_operation_xyz
  'x, y, z'

loop_
  _atom_site_type_symbol
  _atom_site_label
  _atom_site_symmetry_multiplicity
  _atom_site_fract_x
  _atom_site_fract_y
  _atom_site_fract_z
  _atom_site_occupancy
  Cu  Cu1       1.0  0.5000015852385431  0.4999978829106909  0.49999959329213084  1.0000
  Si  Si1       1.0  4.7860897964743855e-06  0.49999641091237396  0.4999945035693402  1.0000
  H   H1        1.0  0.26310153922733537  0.49997999735406756  0.33786259013047026  1.0000
  H   H2        1.0  0.2737234915722127  0.4998862413841039  0.1464304006074713  1.0000
  H   H3        1.0  0.8071093063821237  0.5000126063279569  0.1430021034327282  1.0000
  H   H4        1.0  0.7777364349026427  0.5000441804644497  0.33540775572841147  1.0000
  H   H5        1.0  0.19289908701732372  0.4999908215869411  0.8570029135288948  1.0000
  H   H6        1.0  0.7262868343453802  0.5001118280294252  0.8535661630151098  1.0000
  H   H7        1.0  0.7368987889271917  0.5000188264504644  0.6621328909230045  1.0000
  H   H8        1.0  0.2222631073117256  0.49996076837697967  0.664595359856932  1.0000
  H   H9        1.0  0.26310347536727363  0.3378628896322766  0.499975638891435  1.0000
  H   H10       1.0  0.27371878788107307  0.14643109619107966  0.4998813049566593  1.0000
  H   H11       1.0  0.8071055555227957  0.14299496137819293  0.5000138418058812  1.0000
  H   H12       1.0  0.7777395766305587  0.3354030938210998  0.5000432955035521  1.0000
  H   H13       1.0  0.19289283354654435  0.8569992694664137  0.49999014694890337  1.0000
  H   H14       1.0  0.726282895839823  0.853566962044532  0.5001080134360977  1.0000
  H   H15       1.0  0.7369009642423805  0.6621328754515404  0.5000150949736195  1.0000
  H   H16       1.0  0.2222636886158966  0.664591906605459  0.4999558909921689  1.0000
  C   C1        1.0  0.3809403572795916  0.49997835832987664  0.2919816529957799  1.0000
  C   C2        1.0  0.38708907001921483  0.499941687311278  0.18600029122439574  1.0000
  C   C3        1.0  0.5421758287973403  0.4999520378381064  0.1307029541987603  1.0000
  C   C4        1.0  0.6852326714845701  0.4999903433402793  0.1842678055978908  1.0000
  C   C5        1.0  0.6695445158982807  0.5000030342672517  0.2908012166647751  1.0000
  C   C6        1.0  0.314773255891275  0.5000130811662657  0.8157342688611067  1.0000
  C   C7        1.0  0.45783505841091454  0.5000513916068741  0.8692973714420165  1.0000
  C   C8        1.0  0.6129173506531133  0.5000579089063422  0.813996439115428  1.0000
  C   C9        1.0  0.6190625316679076  0.5000197034881708  0.7080167704717796  1.0000
  C   C10       1.0  0.3304578853097695  0.4999988554640781  0.7092010241572667  1.0000
  C   C11       1.0  0.380938727304155  0.29197960928726735  0.4999763378584064  1.0000
  C   C12       1.0  0.38708553674767626  0.1860000681507756  0.4999385510729511  1.0000
  C   C13       1.0  0.5421712485810913  0.1307009727715425  0.49994983181574787  1.0000
  C   C14       1.0  0.685230744030811  0.1842632660454129  0.49998950774411816  1.0000
  C   C15       1.0  0.669546861749481  0.2907966363709918  0.5000036541411106  1.0000
  C   C16       1.0  0.31476879717356354  0.8157317309590653  0.5000121354387872  1.0000
  C   C17       1.0  0.4578294447583173  0.8692947903928073  0.5000494657952785  1.0000
  C   C18       1.0  0.6129164146102042  0.8139956950273091  0.5000553473482512  1.0000
  C   C19       1.0  0.6190644626225676  0.7080161552193331  0.5000175050494207  1.0000
  C   C20       1.0  0.33045478029361425  0.7092014246820144  0.4999971149868757  1.0000
  N   N1        1.0  0.5199014001234303  0.4999910022691125  0.34333051026896305  1.0000
  N   N2        1.0  0.5664994243973639  0.49993754891715986  0.022407928563872304  1.0000
  N   N3        1.0  0.43351022424204905  0.5000658791993047  0.9775924525902869  1.0000
  N   N4        1.0  0.48009881659060477  0.5000085880572059  0.6566695511671555  1.0000
  N   N5        1.0  0.5199015314876618  0.3433289954691291  0.499989520781945  1.0000
  N   N6        1.0  0.566492842809822  0.022405603073416096  0.4999359748245951  1.0000
  N   N7        1.0  0.4335041348230531  0.9775901561053645  0.5000634893265783  1.0000
  N   N8        1.0  0.48010031398677455  0.6566675338550924  0.5000074312572096  1.0000
  F   F1        1.0  0.21495879870207088  0.5010525583278493  0.5010496732077598  1.0000
  F   F2        1.0  0.7850510718083186  0.4989393849080842  0.4989400747786875  1.0000
  F   F3        1.0  0.9999991245239951  0.5925065051390491  0.40748508248780274  1.0000
  F   F4        1.0  5.5074029176999595e-06  0.40748772896728985  0.5925048878178104  1.0000
  F   F5        1.0  0.024782543975113914  0.4074782792288971  0.4074758934398375  1.0000
  F   F6        1.0  0.9752283839009408  0.5925151955617382  0.5925115090632787  1.0000
