data_image0
_chemical_formula_structural       K2H40Pt2C36S2N4Cl2O12
_chemical_formula_sum              "K2 H40 Pt2 C36 S2 N4 Cl2 O12"
_cell_length_a       8.357510454772958
_cell_length_b       10.17341574462558
_cell_length_c       13.19949003553677
_cell_angle_alpha    101.54311541127363
_cell_angle_beta     104.31458061455615
_cell_angle_gamma    101.67402222369405

_space_group_name_H-M_alt    "P 1"
_space_group_IT_number       1

loop_
  _space_group_symop_operation_xyz
  'x, y, z'

loop_
  _atom_site_type_symbol
  _atom_site_label
  _atom_site_symmetry_multiplicity
  _atom_site_fract_x
  _atom_site_fract_y
  _atom_site_fract_z
  _atom_site_occupancy
  K   K1        1.0  0.22615436815429754  0.9432591852430506  0.0034941770354989955  1.0000
  K   K2        1.0  0.7738488882399183  0.05674092392504091  0.9965053388116163  1.0000
  H   H1        1.0  0.5355230540504365  0.5524007614955978  0.15043975874630178  1.0000
  H   H2        1.0  0.4644780791022355  0.4476003880977046  0.8495611045817241  1.0000
  H   H3        1.0  0.7626238816146511  0.16447919433872474  0.3222902412413262  1.0000
  H   H4        1.0  0.23737567347119892  0.8355209108117523  0.6777094605782424  1.0000
  H   H5        1.0  0.02530717821851173  0.2455660353599783  0.2708106242452146  1.0000
  H   H6        1.0  0.9746907988005163  0.7544330253476661  0.7291879160658965  1.0000
  H   H7        1.0  0.03786966810100978  0.43490408745722675  0.17203864945476968  1.0000
  H   H8        1.0  0.9621295444235968  0.5650949752370735  0.8279600817700015  1.0000
  H   H9        1.0  0.7832080851909639  0.5309906556972309  0.13111011585227325  1.0000
  H   H10       1.0  0.21679180724775193  0.4690104899670757  0.8688897978486523  1.0000
  H   H11       1.0  0.4222133505719583  0.7076376461121967  0.2328004190059403  1.0000
  H   H12       1.0  0.5777877825807067  0.2923635034811057  0.7672004443220857  1.0000
  H   H13       1.0  0.2937784892878526  0.7916038705258828  0.3760338257011782  1.0000
  H   H14       1.0  0.7062214083592337  0.2083972770807705  0.6239668467131878  1.0000
  H   H15       1.0  0.2030871149369275  0.6306547902750168  0.4844845904010811  1.0000
  H   H16       1.0  0.7969108724988557  0.3693442743173208  0.515515467336904  1.0000
  H   H17       1.0  0.132181348941984  0.4782528117563348  0.5671538573893571  1.0000
  H   H18       1.0  0.8678188912663458  0.5217493783064954  0.4328477856197992  1.0000
  H   H19       1.0  0.05725232767671432  0.28739496066793896  0.6520144795212701  1.0000
  H   H20       1.0  0.9427491480371871  0.71260723138154  0.3479873544015533  1.0000
  H   H21       1.0  0.1379429683396225  0.0660646282443338  0.5981798615166838  1.0000
  H   H22       1.0  0.8620572718687  0.9339375618184962  0.40182178149247966  1.0000
  H   H23       1.0  0.28983896575855544  0.03506557187884601  0.4614452945520995  1.0000
  H   H24       1.0  0.710159696382945  0.9649355737411583  0.5385551869486065  1.0000
  H   H25       1.0  0.1594687330488114  0.09126138854242072  0.19921120855043034  1.0000
  H   H26       1.0  0.8405301577480699  0.9087366394650688  0.8007895869332984  1.0000
  H   H27       1.0  0.10428824756397155  0.8713723286596251  0.23908876687666242  1.0000
  H   H28       1.0  0.8957131090356967  0.12862570137883014  0.7609116517209528  1.0000
  H   H29       1.0  0.8852982547317083  0.8524867041763358  0.1683287561017224  1.0000
  H   H30       1.0  0.1147015290095155  0.1475102833616333  0.8316712597008759  1.0000
  H   H31       1.0  0.9890768064495247  0.9851897544107049  0.29237144387631997  1.0000
  H   H32       1.0  0.0109226399388334  0.014806192613427506  0.7076283600449216  1.0000
  H   H33       1.0  0.4352748834948983  0.1622015630718465  0.9155528894727922  1.0000
  H   H34       1.0  0.5647268052492509  0.837797505538099  0.08444698229274657  1.0000
  H   H35       1.0  0.45122016998526965  0.04665772363630082  0.821001795631865  1.0000
  H   H36       1.0  0.5487802780449231  0.9533413410446488  0.1789971265065731  1.0000
  H   H37       1.0  0.1927890071301946  0.6200701247632596  0.05801582103885751  1.0000
  H   H38       1.0  0.8072126711971989  0.3799289399620066  0.9419825332998002  1.0000
  H   H39       1.0  0.024362436529763526  0.6632758361806526  0.03439570562130006  1.0000
  H   H40       1.0  0.975639241797637  0.3367232285446065  0.9656026487173578  1.0000
  Pt  Pt1       1.0  0.4399163583710147  0.245991378729272  0.3323717849418628  1.0000
  Pt  Pt2       1.0  0.5600828593619694  0.7540076859073751  0.6676277049963488  1.0000
  C   C1        1.0  0.49388181485124266  0.46260579671110247  0.18102277621691343  1.0000
  C   C2        1.0  0.5061180827958437  0.537395350895551  0.8189778961974524  1.0000
  C   C3        1.0  0.773563888564567  0.2460656941618922  0.28020882884862175  1.0000
  C   C4        1.0  0.22643566652127597  0.7539344109885848  0.7197908729709468  1.0000
  C   C5        1.0  0.91963906608175  0.29242583092662505  0.25137402202958015  1.0000
  C   C6        1.0  0.08036048379572244  0.707574272281505  0.748624921076555  1.0000
  C   C7        1.0  0.9263470331037167  0.3969788521131079  0.19723437404989133  1.0000
  C   C8        1.0  0.07365252198213312  0.603021253037369  0.8027653277696772  1.0000
  C   C9        1.0  0.7852584813099739  0.4508947120956678  0.17468365584552  1.0000
  C   C10       1.0  0.2147410737758761  0.5491053930548092  0.8253160459740485  1.0000
  C   C11       1.0  0.6421762770194518  0.4004722451709384  0.20628056126630406  1.0000
  C   C12       1.0  0.3578236258360121  0.5995289043780546  0.7937208698614953  1.0000
  C   C13       1.0  0.4204327239202074  0.5112526634099982  0.2703299012743728  1.0000
  C   C14       1.0  0.5795668363740205  0.4887474436828257  0.7296705592586363  1.0000
  C   C15       1.0  0.3883708878135508  0.6421050501271426  0.28411434947276604  1.0000
  C   C16       1.0  0.6116270996222325  0.3578940144651882  0.7158857082652262  1.0000
  C   C17       1.0  0.3134374646542851  0.6876815908155222  0.3629340115247501  1.0000
  C   C18       1.0  0.6865636632900092  0.3123195568354405  0.6370660930898354  1.0000
  C   C19       1.0  0.26624634242323714  0.5993424536514455  0.424438971162779  1.0000
  C   C20       1.0  0.7337523145098858  0.40065869002621923  0.5755607516244866  1.0000
  C   C21       1.0  0.2996430504363374  0.4688538390335567  0.40917534990056487  1.0000
  C   C22       1.0  0.7003552743523045  0.5311462660726107  0.5908249197187843  1.0000
  C   C23       1.0  0.2970402329547781  0.23737754904024658  0.4321030020099599  1.0000
  C   C24       1.0  0.7029580918338638  0.7626225560659209  0.5678972676093892  1.0000
  C   C25       1.0  0.25245919219101853  0.3638630933851204  0.46461427706787367  1.0000
  C   C26       1.0  0.7475407054560677  0.636138054221533  0.5353863953464923  1.0000
  C   C27       1.0  0.1657316385300334  0.3810094624142693  0.5428610610672919  1.0000
  C   C28       1.0  0.8342670288198448  0.6189916851480747  0.4571401791468475  1.0000
  C   C29       1.0  0.12334814636334811  0.2738167029515921  0.59063526333032  1.0000
  C   C30       1.0  0.8766529919977017  0.7261844485840572  0.40936635871114657  1.0000
  C   C31       1.0  0.1684690255592045  0.14987492114359216  0.5602920455498791  1.0000
  C   C32       1.0  0.831530539943401  0.850125187891564  0.4397091736965635  1.0000
  C   C33       1.0  0.2537427151685421  0.13172161796905613  0.48207994381433394  1.0000
  C   C34       1.0  0.7462559521813361  0.8682795295932878  0.5179212963998054  1.0000
  C   C35       1.0  0.0068721040549420504  0.9276170723718238  0.21786796195465996  1.0000
  C   C36       1.0  0.9931280118307627  0.07238095373763541  0.782131507015862  1.0000
  S   S1        1.0  0.3241715625118005  0.3482399150132808  0.05708848024915621  1.0000
  S   S2        1.0  0.675830121023978  0.651759151654325  0.942910632802942  1.0000
  N   N1        1.0  0.6356368471966148  0.2979226987536947  0.2579879296096621  1.0000
  N   N2        1.0  0.36436237574474717  0.7020763678252919  0.7420123190419902  1.0000
  N   N3        1.0  0.3815781425081822  0.4285752695552248  0.3344975436640141  1.0000
  N   N4        1.0  0.6184201718637112  0.5714248316662632  0.6655012085284612  1.0000
  Cl  Cl1       1.0  0.4880200445025977  0.029778417240180505  0.33258197083069524  1.0000
  Cl  Cl2       1.0  0.5119770343637029  0.9702216819946445  0.667416590448113  1.0000
  O   O1        1.0  0.2523888189153496  0.2185489814878565  0.0805756232990333  1.0000
  O   O2        1.0  0.7476153304232157  0.7814500872107076  0.9194231128669516  1.0000
  O   O3        1.0  0.1994102934126047  0.431269944383061  0.036199927912711864  1.0000
  O   O4        1.0  0.8005913901231665  0.5687291222845446  0.9637991851393864  1.0000
  O   O5        1.0  0.4125005153941714  0.3303664592842993  0.9735914697085235  1.0000
  O   O6        1.0  0.5875034104973976  0.6696357289691124  0.02640771118786491  1.0000
  O   O7        1.0  0.053428160899663596  0.019516046656328008  0.154374610885597  1.0000
  O   O8        1.0  0.94657072468884  0.980481979408822  0.8456254258846913  1.0000
  O   O9        1.0  0.4408555031620622  0.06480337947590442  0.8948095196882448  1.0000
  O   O10       1.0  0.5591465229349524  0.9351967296478777  0.10519056395865084  1.0000
  O   O11       1.0  0.1491399391377115  0.7028678810324037  0.06518475394209132  1.0000
  O   O12       1.0  0.8508617339813113  0.29713118175051534  0.934812841683133  1.0000
