data_image0
_chemical_formula_structural       Cd3H84C66S6N30
_chemical_formula_sum              "Cd3 H84 C66 S6 N30"
_cell_length_a       11.131938601156433
_cell_length_b       15.303584517161724
_cell_length_c       15.296718372778725
_cell_angle_alpha    114.3214663929882
_cell_angle_beta     104.02144541981579
_cell_angle_gamma    104.04136303405315

_space_group_name_H-M_alt    "P 1"
_space_group_IT_number       1

loop_
  _space_group_symop_operation_xyz
  'x, y, z'

loop_
  _atom_site_type_symbol
  _atom_site_label
  _atom_site_symmetry_multiplicity
  _atom_site_fract_x
  _atom_site_fract_y
  _atom_site_fract_z
  _atom_site_occupancy
  Cd  Cd1       1.0  0.49999886622852346  0.9999977267950158  0.4999996592528291  1.0000
  Cd  Cd2       1.0  3.6678802361041837e-06  0.5000048570918095  0.500001385462909  1.0000
  Cd  Cd3       1.0  0.5000002558657428  0.5000029810962515  4.6383359660704345e-06  1.0000
  H   H1        1.0  0.4787769254943657  0.8647544882569705  0.632088721211261  1.0000
  H   H2        1.0  0.7163294836405213  0.4473753674121567  0.3357353912304434  1.0000
  H   H3        1.0  0.654059754529378  0.7690986220159531  0.7420413766926757  1.0000
  H   H4        1.0  0.5681155768663758  0.6417105719284988  0.6325386881645799  1.0000
  H   H5        1.0  0.4772260000208633  0.718329460213681  0.6813996997816005  1.0000
  H   H6        1.0  0.5602722604950614  0.7717730503010782  0.31401990320469503  1.0000
  H   H7        1.0  0.7048817339095592  0.75014214664197  0.3624847521330069  1.0000
  H   H8        1.0  0.7099150656539523  0.8790990317221838  0.40923777090586805  1.0000
  H   H9        1.0  0.8632494451561711  0.6891592348627142  0.7085798151435584  1.0000
  H   H10       1.0  0.8770444611062516  0.7955921443656278  0.6860815378904093  1.0000
  H   H11       1.0  0.9958260359280616  0.7356551743827352  0.6742235797245968  1.0000
  H   H12       1.0  0.5609015320590416  0.5449726475426003  0.23307629230646396  1.0000
  H   H13       1.0  0.46152608813017787  0.5718192585569354  0.30744865178714076  1.0000
  H   H14       1.0  0.4707360102859753  0.4471629289633512  0.2527234009988391  1.0000
  H   H15       1.0  0.8467477240059011  0.3677626090461956  0.23255606597226836  1.0000
  H   H16       1.0  0.3804420277008448  0.6644100498653883  0.1115523835083323  1.0000
  H   H17       1.0  0.9121875273344029  0.2578962236335727  0.026920990262134067  1.0000
  H   H18       1.0  0.9356733330449386  0.3673667921023521  0.008991997712016163  1.0000
  H   H19       1.0  0.7959741276423103  0.3185157794132111  0.03683869963817443  1.0000
  H   H20       1.0  0.2462305804729183  0.6859254868759377  0.457655643830833  1.0000
  H   H21       1.0  0.34222562074438667  0.6373760007967347  0.38740808801379967  1.0000
  H   H22       1.0  0.3006513422810145  0.590729366731594  0.46976645032879816  1.0000
  H   H23       1.0  0.15505108934294753  0.29163314538904217  0.9805567412831666  1.0000
  H   H24       1.0  0.19138144748558264  0.31418792879070156  0.10959184457114898  1.0000
  H   H25       1.0  0.32199819246982747  0.32614441197741684  0.06145407748151398  1.0000
  H   H26       1.0  0.3273840796440839  0.7668008927612534  0.3117564467685271  1.0000
  H   H27       1.0  0.15371607395349682  0.6924152815191105  0.26420614574725926  1.0000
  H   H28       1.0  0.21758688834219714  0.747205671654342  0.19429368960993545  1.0000
  H   H29       1.0  0.6141899714217304  0.7672939690489924  0.1350801970152844  1.0000
  H   H30       1.0  0.2685919393687828  0.8884165979949047  0.5526932654636739  1.0000
  H   H31       1.0  0.8855351149394936  0.9728460956759617  0.2306296590272794  1.0000
  H   H32       1.0  0.9268862247517405  0.9906274852533913  0.3580114970439539  1.0000
  H   H33       1.0  0.759390011618713  0.9630030683733108  0.2814125478819278  1.0000
  H   H34       1.0  0.7884810570441585  0.5423344935661801  0.22816029993562376  1.0000
  H   H35       1.0  0.9547460561822803  0.6123978540989085  0.24979051329470542  1.0000
  H   H36       1.0  0.8308951813025374  0.5300216453869311  0.12076987236836349  1.0000
  H   H37       1.0  0.1747419719899881  0.019440862245325298  0.3108666756576355  1.0000
  H   H38       1.0  0.0821054680232081  0.8905240057305261  0.20428149511277371  1.0000
  H   H39       1.0  0.2607866923020553  0.9385897018822504  0.2644650540571122  1.0000
  H   H40       1.0  0.015340456201578147  0.6882732842135653  0.45485533407103423  1.0000
  H   H41       1.0  0.8893209215085421  0.7358576378326801  0.42789940616586364  1.0000
  H   H42       1.0  0.023007578897626783  0.8057717122888236  0.55263853814553  1.0000
  H   H43       1.0  0.5212256287316279  0.1352442576173374  0.3679058909334003  1.0000
  H   H44       1.0  0.28366742654247906  0.5526194899780633  0.66426054821099  1.0000
  H   H45       1.0  0.34594250643385743  0.23090323531283016  0.25795708137339807  1.0000
  H   H46       1.0  0.4318862944557084  0.35829050752606406  0.3674587270239656  1.0000
  H   H47       1.0  0.5227749446768613  0.2816716191313304  0.31859689871608055  1.0000
  H   H48       1.0  0.43972673955031644  0.2282241401145626  0.6859747503879846  1.0000
  H   H49       1.0  0.2951167291526104  0.24985582153834673  0.6375101276463226  1.0000
  H   H50       1.0  0.2900816950549511  0.12089738104187828  0.5907574759101735  1.0000
  H   H51       1.0  0.13674785182526256  0.3108364000483306  0.29141455158930546  1.0000
  H   H52       1.0  0.1229515196096713  0.20440271256164516  0.31391096927406187  1.0000
  H   H53       1.0  0.004171261053372237  0.2643404605283095  0.3257707870082598  1.0000
  H   H54       1.0  0.43909917247162883  0.4550260985543418  0.7669199559390806  1.0000
  H   H55       1.0  0.5384733029776995  0.42817870990962337  0.6925483524761092  1.0000
  H   H56       1.0  0.5292603593604213  0.5528327057497932  0.7472694951466323  1.0000
  H   H57       1.0  0.15324767160584687  0.632238470966733  0.7674454408280696  1.0000
  H   H58       1.0  0.619558048442997  0.33558558528595483  0.8884437794005963  1.0000
  H   H59       1.0  0.08781303269692856  0.7421040784556538  0.9730791426336864  1.0000
  H   H60       1.0  0.06432800555800372  0.6326350656469729  0.9910095670423263  1.0000
  H   H61       1.0  0.20402550576465495  0.6814845225664642  0.963160616566775  1.0000
  H   H62       1.0  0.7537696820315674  0.31407792613767777  0.5423444116072602  1.0000
  H   H63       1.0  0.6577703075864959  0.36262430092143205  0.6125892692207415  1.0000
  H   H64       1.0  0.699347364501591  0.4092709351385295  0.530232049185294  1.0000
  H   H65       1.0  0.8449497101447463  0.7083694898599118  0.019443087968262673  1.0000
  H   H66       1.0  0.808616630910187  0.6858092621338301  0.8904065696063272  1.0000
  H   H67       1.0  0.678000902532567  0.673856667590229  0.9385441571170504  1.0000
  H   H68       1.0  0.6726174048795671  0.23319940917247806  0.688242541128588  1.0000
  H   H69       1.0  0.8462861898524494  0.3075865761630681  0.7357949279048981  1.0000
  H   H70       1.0  0.7824153754637493  0.2527961860278367  0.8057073840422292  1.0000
  H   H71       1.0  0.385806551962844  0.23270011082038877  0.8649173151347185  1.0000
  H   H72       1.0  0.7314069161772493  0.11158214841302079  0.44730527277928195  1.0000
  H   H73       1.0  0.11446281327149418  0.027152650534070205  0.7693674086282913  1.0000
  H   H74       1.0  0.0731130190140803  0.009372038852063698  0.6419867762834741  1.0000
  H   H75       1.0  0.2406064536953849  0.03699645558019429  0.7185845831659494  1.0000
  H   H76       1.0  0.21152228143888865  0.45766580867500284  0.7718409752397479  1.0000
  H   H77       1.0  0.04525937713789573  0.3876047817861376  0.7502140533075803  1.0000
  H   H78       1.0  0.16910971361306795  0.4699817680860931  0.8792336126275302  1.0000
  H   H79       1.0  0.8252612205723509  0.9805609958114442  0.6891371763749632  1.0000
  H   H80       1.0  0.9178940201737332  0.10947785215308409  0.7957210518459306  1.0000
  H   H81       1.0  0.7392138698613092  0.06141060047202268  0.7355370405282784  1.0000
  H   H82       1.0  0.9846612727531935  0.3117293514983216  0.5451479274573574  1.0000
  H   H83       1.0  0.11068095692032638  0.2641434425053645  0.5721045479879123  1.0000
  H   H84       1.0  0.9769949824351657  0.19422703446895884  0.4473626129643621  1.0000
  C   C1        1.0  0.6080378139320716  0.7939056523951817  0.468689707184005  1.0000
  C   C2        1.0  0.6316684309041918  0.7335770276485148  0.516181647431587  1.0000
  C   C3        1.0  0.5791250937608438  0.7606565469906383  0.5935595814599209  1.0000
  C   C4        1.0  0.5689612472970966  0.7206885304918842  0.6662232859137733  1.0000
  C   C5        1.0  0.6477719899273567  0.7988623647888174  0.3841952049385213  1.0000
  C   C6        1.0  0.643586321498404  0.5683603814361433  0.3870030104896784  1.0000
  C   C7        1.0  0.6896390595623887  0.6549682005376597  0.4864648139720629  1.0000
  C   C8        1.0  0.802358441881715  0.6486899729855933  0.5478226456048175  1.0000
  C   C9        1.0  0.8896576289356729  0.7212193984392453  0.660101369023117  1.0000
  C   C10       1.0  0.5283472908817262  0.5310597292275646  0.2901288011798189  1.0000
  C   C11       1.0  0.5156775403384942  0.0931999917431057  0.7478971574977467  1.0000
  C   C12       1.0  0.13928153510298819  0.531272443215343  0.3251059922470034  1.0000
  C   C13       1.0  0.11547117219586069  0.4837795873837293  0.2172684315827738  1.0000
  C   C14       1.0  0.9856185068580176  0.4063704396412148  0.16698464880498423  1.0000
  C   C15       1.0  0.90286847008273  0.3336955240764254  0.054335701794208505  1.0000
  C   C16       1.0  0.2635005212615484  0.6157431835479484  0.41453751784120396  1.0000
  C   C17       1.0  0.2563693205284282  0.6130183720924691  0.1812038226669941  1.0000
  C   C18       1.0  0.20313358072270657  0.5135927707170963  0.168381059654365  1.0000
  C   C19       1.0  0.25465380414629385  0.452347960182827  0.10080956151294629  1.0000
  C   C20       1.0  0.2298780557198868  0.340127318322665  0.0611144730931699  1.0000
  C   C21       1.0  0.237848921865556  0.7097959459494303  0.24077307338031761  1.0000
  C   C22       1.0  0.7681170798893929  0.2522393682396427  0.34540829280741997  1.0000
  C   C23       1.0  0.81424840373964  0.6747592804379252  0.2058767085235189  1.0000
  C   C24       1.0  0.8982914080392207  0.7825565607321607  0.2660839432158896  1.0000
  C   C25       1.0  0.818724937312652  0.8328233367532076  0.2389792082320453  1.0000
  C   C26       1.0  0.8487186226439009  0.945444552006769  0.2790076017866881  1.0000
  C   C27       1.0  0.8489306126770728  0.5853223334480687  0.20100412026705064  1.0000
  C   C28       1.0  0.07507066074249047  0.8187310083273546  0.43149663109264236  1.0000
  C   C29       1.0  0.03482867661617217  0.8314554927720079  0.34478047762038944  1.0000
  C   C30       1.0  0.1539276916254055  0.8991190903940945  0.35123449203733503  1.0000
  C   C31       1.0  0.16897630916923842  0.9388895846054479  0.27876503265542846  1.0000
  C   C32       1.0  0.9968579680512232  0.7592572919179045  0.4687398135823101  1.0000
  C   C33       1.0  0.4226199871775194  0.6546915765768021  0.9068233311741168  1.0000
  C   C34       1.0  0.391958409082946  0.20609153804520017  0.5313051119221727  1.0000
  C   C35       1.0  0.3683297905695682  0.26641860710703463  0.48381157430256394  1.0000
  C   C36       1.0  0.4208752218393599  0.2393414213204323  0.40643627780462316  1.0000
  C   C37       1.0  0.4310411624295584  0.2793117713747009  0.33377521088116424  1.0000
  C   C38       1.0  0.3522253984577048  0.2011371588324877  0.6157994733176082  1.0000
  C   C39       1.0  0.3564126792576445  0.4316368090678536  0.6129922969995222  1.0000
  C   C40       1.0  0.31035994190434485  0.3450289900546863  0.5135311474136657  1.0000
  C   C41       1.0  0.19763846616925215  0.3513048841395801  0.4521713321470386  1.0000
  C   C42       1.0  0.11034005555487175  0.27877701408097266  0.339892078897698  1.0000
  C   C43       1.0  0.4716507839606479  0.46893746125522284  0.7098663435150457  1.0000
  C   C44       1.0  0.48431883570400913  0.9067956437651715  0.2521016237164345  1.0000
  C   C45       1.0  0.8607164866436605  0.4687301919700033  0.6748933486214029  1.0000
  C   C46       1.0  0.8845292390720446  0.5162222701676952  0.7827316625841831  1.0000
  C   C47       1.0  0.014379905951138076  0.5936329735950422  0.8330170427339922  1.0000
  C   C48       1.0  0.09713155296538656  0.6663055557774767  0.945664657288269  1.0000
  C   C49       1.0  0.7364980367576381  0.3842586737843732  0.5854609429440245  1.0000
  C   C50       1.0  0.7436338691912  0.3869834856109051  0.8187974137795069  1.0000
  C   C51       1.0  0.7968662949833459  0.4864098647756946  0.8316205684922976  1.0000
  C   C52       1.0  0.7453421263166292  0.5476523418003864  0.8991897574111648  1.0000
  C   C53       1.0  0.770118950130815  0.659871428307909  0.9388857012506691  1.0000
  C   C54       1.0  0.762152027096235  0.2902051339256673  0.7592274484965033  1.0000
  C   C55       1.0  0.2318849749506243  0.7477694887238042  0.6545903993241922  1.0000
  C   C56       1.0  0.18575162286186506  0.32524179985771434  0.7941269200415776  1.0000
  C   C57       1.0  0.10170993127440653  0.2174452971055061  0.7339182754349738  1.0000
  C   C58       1.0  0.1812732346187786  0.16717774314663808  0.7610214791582735  1.0000
  C   C59       1.0  0.15128101005238653  0.0545557498845639  0.7209910605217403  1.0000
  C   C60       1.0  0.1510748192217407  0.4146803022602796  0.798999138542186  1.0000
  C   C61       1.0  0.9249313650284491  0.18126851637179434  0.5685060539969554  1.0000
  C   C62       1.0  0.965173053049277  0.16854714302822765  0.6552234378045229  1.0000
  C   C63       1.0  0.8460773520536193  0.10088276761673137  0.6487690316874293  1.0000
  C   C64       1.0  0.8310237153002334  0.0611114954251448  0.7212366342200981  1.0000
  C   C65       1.0  0.0031448355806560106  0.24074378835299368  0.5312636494692882  1.0000
  C   C66       1.0  0.5773881665926622  0.34530717490228097  0.09321279932105134  1.0000
  S   S1        1.0  0.5516531572885697  0.15897247309835194  0.8714063708085507  1.0000
  S   S2        1.0  0.6808084995983704  0.1287672128888318  0.287746250124755  1.0000
  S   S3        1.0  0.39280562454211343  0.7124854486689572  0.8411449703066796  1.0000
  S   S4        1.0  0.4483451626956026  0.841027051250947  0.1285937014141041  1.0000
  S   S5        1.0  0.31920260896592373  0.8712486440096396  0.7122549579123357  1.0000
  S   S6        1.0  0.6072136762316731  0.2875078562416462  0.1588732240304864  1.0000
  N   N1        1.0  0.5444218517033407  0.8527138481114704  0.5133423634483592  1.0000
  N   N2        1.0  0.5295874231377694  0.8318123708856218  0.5889282277836898  1.0000
  N   N3        1.0  0.8238284727626564  0.5648221222122557  0.4891766093538267  1.0000
  N   N4        1.0  0.7270187830047591  0.5180059368236627  0.3927008043801906  1.0000
  N   N5        1.0  0.4876060041021972  0.0423309727595864  0.6571431742750564  1.0000
  N   N6        1.0  0.0310833953321039  0.4865913222201571  0.3393000284825619  1.0000
  N   N7        1.0  0.940726338634569  0.41095535306968867  0.2428159339869325  1.0000
  N   N8        1.0  0.3347153225206155  0.5110213757948542  0.07557962417502033  1.0000
  N   N9        1.0  0.334167047174411  0.6074094960368939  0.125163547532523  1.0000
  N   N10       1.0  0.8305248602442531  0.3429976659805902  0.385295476149544  1.0000
  N   N11       1.0  0.6918082776932479  0.6605998065839527  0.14713067883537415  1.0000
  N   N12       1.0  0.697945313516179  0.757047805228808  0.16792322577431654  1.0000
  N   N13       1.0  0.2591020478475772  0.9244168079058284  0.4352648153000161  1.0000
  N   N14       1.0  0.2088404885645262  0.8748162074883367  0.48203915865129693  1.0000
  N   N15       1.0  0.4453793767477948  0.614754018507263  0.9576093572507248  1.0000
  N   N16       1.0  0.4555766113588219  0.14728412006884636  0.48665251633097745  1.0000
  N   N17       1.0  0.4704138169547605  0.16818559726995364  0.4110664864821487  1.0000
  N   N18       1.0  0.17616935978063009  0.4351727347574225  0.5108162233993313  1.0000
  N   N19       1.0  0.27297851610870794  0.4819896983524217  0.607295524042236  1.0000
  N   N20       1.0  0.512392372531089  0.9576631073288978  0.34285597125667533  1.0000
  N   N21       1.0  0.968911851516225  0.51341131325497  0.6607014395889053  1.0000
  N   N22       1.0  0.05927222151665759  0.5890465045276726  0.7571844884878586  1.0000
  N   N23       1.0  0.6652824619017039  0.48897892649580393  0.924421982027347  1.0000
  N   N24       1.0  0.6658340512614843  0.3925900284643546  0.8748376669696826  1.0000
  N   N25       1.0  0.16947510046931324  0.6570088574273355  0.6147005784516681  1.0000
  N   N26       1.0  0.3081909703366463  0.33939971805158814  0.8528715178712006  1.0000
  N   N27       1.0  0.30205223144977117  0.24295016390213678  0.8320786840724352  1.0000
  N   N28       1.0  0.740902069917766  0.07558505008379507  0.564738545630398  1.0000
  N   N29       1.0  0.7911613856002759  0.12518487231962178  0.5179608721233464  1.0000
  N   N30       1.0  0.5546200351062254  0.385258732492069  0.04242904570905642  1.0000
