data_image0
_chemical_formula_structural       Cd2H32C22O18
_chemical_formula_sum              "Cd2 H32 C22 O18"
_cell_length_a       7.43014409231333
_cell_length_b       8.193178328017378
_cell_length_c       11.721443795252318
_cell_angle_alpha    88.18916642100258
_cell_angle_beta     85.36840309116955
_cell_angle_gamma    88.55102525836814

_space_group_name_H-M_alt    "P 1"
_space_group_IT_number       1

loop_
  _space_group_symop_operation_xyz
  'x, y, z'

loop_
  _atom_site_type_symbol
  _atom_site_label
  _atom_site_symmetry_multiplicity
  _atom_site_fract_x
  _atom_site_fract_y
  _atom_site_fract_z
  _atom_site_occupancy
  Cd  Cd1       1.0  0.7510540619227228  0.234533684245946  0.0056226442146395965  1.0000
  Cd  Cd2       1.0  0.2489479240629038  0.765462970110292  0.9943771156589348  1.0000
  H   H1        1.0  0.22796376681560562  0.353478615012463  0.7067711782792543  1.0000
  H   H2        1.0  0.7720312642663316  0.6465228433564505  0.2932262837213955  1.0000
  H   H3        1.0  0.032301314753539104  0.318556249880629  0.6312574064522565  1.0000
  H   H4        1.0  0.9676924557400072  0.6814440537275244  0.3687418927197257  1.0000
  H   H5        1.0  0.24535653358491774  0.40895311717002164  0.49927843527847676  1.0000
  H   H6        1.0  0.7546357953435886  0.5910470944275303  0.5007184015955843  1.0000
  H   H7        1.0  0.4105354235745723  0.8643909584831134  0.33359106075590717  1.0000
  H   H8        1.0  0.5894678317139466  0.13561186143329  0.6664100726895938  1.0000
  H   H9        1.0  0.09256772690257263  0.8671668684333085  0.6579425159179095  1.0000
  H   H10       1.0  0.9074356156063318  0.1328335410582326  0.3420595632334908  1.0000
  H   H11       1.0  0.1309490484948483  0.1264462337022323  0.4813785368564539  1.0000
  H   H12       1.0  0.8690516202078697  0.8735517079763895  0.5186229648417182  1.0000
  H   H13       1.0  0.3646645009262741  0.11318575095749138  0.4344531959364275  1.0000
  H   H14       1.0  0.6353388764657596  0.8868171955920302  0.565551338945781  1.0000
  H   H15       1.0  0.2950737571493747  0.1075621806833453  0.5832310801982885  1.0000
  H   H16       1.0  0.7049255964490584  0.892438301017499  0.4167729660102991  1.0000
  H   H17       1.0  0.29661406856710215  0.3454095181657236  0.2982062271265065  1.0000
  H   H18       1.0  0.7033836363210212  0.6545944080161091  0.7017918123273788  1.0000
  H   H19       1.0  0.4905260072655793  0.3274322038470173  0.3798332061122025  1.0000
  H   H20       1.0  0.50947313047309  0.6725668035460116  0.6201640848963379  1.0000
  H   H21       1.0  0.41443372776962656  0.16545073343252167  0.9272254523386395  1.0000
  H   H22       1.0  0.5855669671017267  0.8345447345046823  0.07277529434708191  1.0000
  H   H23       1.0  0.4704084033196239  0.3445641490239524  0.8786937032309297  1.0000
  H   H24       1.0  0.5295909415643223  0.6554313218774935  0.12130713223439932  1.0000
  H   H25       1.0  0.8362144716592185  0.8844800094801499  0.9591815113477298  1.0000
  H   H26       1.0  0.16378622539075147  0.11551671115689997  0.0408200380238029  1.0000
  H   H27       1.0  0.8562988899264569  0.9119166188090659  0.0879660370844846  1.0000
  H   H28       1.0  0.14370312876366853  0.0880813199053065  0.9120353758340727  1.0000
  H   H29       1.0  0.05598245852004171  0.37490870854225017  0.1145679866624647  1.0000
  H   H30       1.0  0.9440195863387117  0.6250867564307045  0.8854326712436417  1.0000
  H   H31       1.0  0.973813479940155  0.23494021744961907  0.1923155564962045  1.0000
  H   H32       1.0  0.02618586494379121  0.7650552534518268  0.8076852789691246  1.0000
  C   C1        1.0  0.9795522138680043  0.33189042600146484  0.8113362256200105  1.0000
  C   C2        1.0  0.020446987101046005  0.66810989740798  0.1886635687926983  1.0000
  C   C3        1.0  0.0840787017210118  0.38641271266867244  0.7008077883418622  1.0000
  C   C4        1.0  0.9159150098994004  0.6135887803227644  0.2991906127975739  1.0000
  C   C5        1.0  0.15605868900073008  0.6295602073512325  0.5875698862497671  1.0000
  C   C6        1.0  0.8439405119683202  0.3704401160582123  0.41242990816294167  1.0000
  C   C7        1.0  0.24553063729320707  0.541472228803265  0.4982406249019178  1.0000
  C   C8        1.0  0.7544671264680504  0.45853050799527756  0.5017583125845064  1.0000
  C   C9        1.0  0.3368660934595553  0.630301178687901  0.4079158610234472  1.0000
  C   C10       1.0  0.6631344313282738  0.36970161549871244  0.5920845996220976  1.0000
  C   C11       1.0  0.3390606094537246  0.8011364629607342  0.406246407804737  1.0000
  C   C12       1.0  0.6609440241694527  0.19886513294984806  0.5937546845345167  1.0000
  C   C13       1.0  0.25252998041921165  0.8862609947263492  0.4967895192066933  1.0000
  C   C14       1.0  0.7474746859084718  0.1137418855423604  0.5032132261775502  1.0000
  C   C15       1.0  0.1594712026088558  0.7999253250360352  0.5870258793995902  1.0000
  C   C16       1.0  0.8405307026922558  0.20007749784461026  0.4129753428255256  1.0000
  C   C17       1.0  0.26140065400179685  0.06862853699161059  0.4989216855490922  1.0000
  C   C18       1.0  0.7386027473802341  0.9313706831166471  0.501081291634847  1.0000
  C   C19       1.0  0.43407180203835344  0.3895444062852462  0.3056736890717602  1.0000
  C   C20       1.0  0.5659272506585539  0.6104582642324913  0.694323458916692  1.0000
  C   C21       1.0  0.552449500506434  0.3461859337356613  0.19869964163089548  1.0000
  C   C22       1.0  0.4475482916020753  0.6538155820213161  0.8012993435288892  1.0000
  O   O1        1.0  0.894241998076062  0.434664309470385  0.8765173045469083  1.0000
  O   O2        1.0  0.10576005113993861  0.5653336609022687  0.1234849587308275  1.0000
  O   O3        1.0  0.9801023901656619  0.1791207122234297  0.8338379553976337  1.0000
  O   O4        1.0  0.01989809973903789  0.8208795449052033  0.1661600495171101  1.0000
  O   O5        1.0  0.0620670730906667  0.5583934105931048  0.681485513851129  1.0000
  O   O6        1.0  0.9379266974028724  0.4416068930150415  0.31851378532084607  1.0000
  O   O7        1.0  0.431866685296022  0.5617328785440421  0.31640704209376486  1.0000
  O   O8        1.0  0.5681338656604354  0.4382674419011536  0.6835926635393365  1.0000
  O   O9        1.0  0.6127373132102605  0.45782664176859805  0.1287241797624645  1.0000
  O   O10       1.0  0.3872631199999362  0.5421760574431717  0.8712737298055586  1.0000
  O   O11       1.0  0.5858261559721001  0.19496660894144208  0.1844746410694569  1.0000
  O   O12       1.0  0.4141715750846587  0.805034843498973  0.8155226433719706  1.0000
  O   O13       1.0  0.5175522687335814  0.23104742729140776  0.893990667242484  1.0000
  O   O14       1.0  0.48244699110859557  0.7689517067347464  0.10601002520276379  1.0000
  O   O15       1.0  0.7773920552402843  0.9440083474289267  0.025649970267835432  1.0000
  O   O16       1.0  0.22260726347502677  0.0559895972139373  0.9743516202099514  1.0000
  O   O17       1.0  0.019084864800063904  0.2565623984383478  0.1129708392766631  1.0000
  O   O18       1.0  0.980915858418534  0.7434318484572843  0.8870299550824186  1.0000
