data_image0
_chemical_formula_structural       Cd2H16C8N4Cl4
_chemical_formula_sum              "Cd2 H16 C8 N4 Cl4"
_cell_length_a       7.303226873043624
_cell_length_b       7.597663783991626
_cell_length_c       7.602898607396047
_cell_angle_alpha    107.9552253119335
_cell_angle_beta     88.965758514166
_cell_angle_gamma    88.9681210661709

_space_group_name_H-M_alt    "P 1"
_space_group_IT_number       1

loop_
  _space_group_symop_operation_xyz
  'x, y, z'

loop_
  _atom_site_type_symbol
  _atom_site_label
  _atom_site_symmetry_multiplicity
  _atom_site_fract_x
  _atom_site_fract_y
  _atom_site_fract_z
  _atom_site_occupancy
  Cd  Cd1       1.0  0.7495330820898758  0.089424125259228  0.9375562984116284  1.0000
  Cd  Cd2       1.0  0.2496175616013971  0.9375216443341258  0.08938966855375693  1.0000
  H   H1        1.0  0.7580906151360693  0.5024590083672322  0.20562671723579473  1.0000
  H   H2        1.0  0.8251333211133272  0.8171229420447405  0.5366222973461418  1.0000
  H   H3        1.0  0.3253985525993953  0.5360912150056194  0.8174747469338681  1.0000
  H   H4        1.0  0.2583695303105529  0.2058552938750395  0.5020923889411719  1.0000
  H   H5        1.0  0.7943821428591775  0.6670426855863809  0.08301178913407627  1.0000
  H   H6        1.0  0.7185516679078886  0.892570665914434  0.3462305900733965  1.0000
  H   H7        1.0  0.21836457370794446  0.3458396043202896  0.8929249846478411  1.0000
  H   H8        1.0  0.2943013462944322  0.08317462104753298  0.6666473575319642  1.0000
  H   H9        1.0  0.8780654119541609  0.3123581422751869  0.6473519106632962  1.0000
  H   H10       1.0  0.5373048411918901  0.3108233110591172  0.6636502161109377  1.0000
  H   H11       1.0  0.0371265283842988  0.6639524428493147  0.3106255144706011  1.0000
  H   H12       1.0  0.37798575549454233  0.6471376990339055  0.312333159710647  1.0000
  H   H13       1.0  0.8946484900220212  0.5664483169756592  0.7771108103633322  1.0000
  H   H14       1.0  0.5912191305033618  0.18916335025863162  0.42631297971654886  1.0000
  H   H15       1.0  0.09082688072528099  0.4263662769443073  0.18928214213904934  1.0000
  H   H16       1.0  0.39444317130365647  0.7770234352505767  0.5662728780953683  1.0000
  C   C1        1.0  0.8449025912834572  0.5370769675248326  0.10199154947757444  1.0000
  C   C2        1.0  0.7371284025677839  0.9138126260539252  0.49377841578552734  1.0000
  C   C3        1.0  0.23719431292077084  0.49341466772089865  0.9140475938675859  1.0000
  C   C4        1.0  0.3450035074215521  0.1021385680293463  0.53679649409127  1.0000
  C   C5        1.0  0.8720150836823778  0.4245312065593653  0.7788367680549511  1.0000
  C   C6        1.0  0.5422977436829584  0.17413944355246264  0.5585331156412676  1.0000
  C   C7        1.0  0.04217064460367229  0.5586634661576966  0.17410257698333695  1.0000
  C   C8        1.0  0.37194942487548843  0.7787198362181016  0.4244053140529187  1.0000
  N   N1        1.0  0.8384859509319538  0.38671867554285905  0.928898566115549  1.0000
  N   N2        1.0  0.6638029660685874  0.05131790494461091  0.6191323632006199  1.0000
  N   N3        1.0  0.1638832432992032  0.6190091642858988  0.05132393429624218  1.0000
  N   N4        1.0  0.33859019049067735  0.9288656850104929  0.38650578318516415  1.0000
  Cl  Cl1       1.0  0.059665273587647505  0.8983748372619048  0.7883157153352797  1.0000
  Cl  Cl2       1.0  0.44506950227452785  0.24624751012604656  0.12872068745369344  1.0000
  Cl  Cl3       1.0  0.9449464859801324  0.12842956215944668  0.24610728270959464  1.0000
  Cl  Cl4       1.0  0.5595294422134458  0.7881865703120567  0.8980075429743832  1.0000
