data_image0
_chemical_formula_structural       Zn6H126C182N14O26
_chemical_formula_sum              "Zn6 H126 C182 N14 O26"
_cell_length_a       19.433863710874956
_cell_length_b       20.755736508351756
_cell_length_c       21.81780370852688
_cell_angle_alpha    116.12726507520641
_cell_angle_beta     99.66247644755514
_cell_angle_gamma    100.32023090932402

_space_group_name_H-M_alt    "P 1"
_space_group_IT_number       1

loop_
  _space_group_symop_operation_xyz
  'x, y, z'

loop_
  _atom_site_type_symbol
  _atom_site_label
  _atom_site_symmetry_multiplicity
  _atom_site_fract_x
  _atom_site_fract_y
  _atom_site_fract_z
  _atom_site_occupancy
  Zn  Zn1       1.0  0.7657615396134078  0.20248246281257556  0.09572729478792752  1.0000
  Zn  Zn2       1.0  0.23423743935589417  0.7975184783779596  0.904274294844015  1.0000
  Zn  Zn3       1.0  0.5927881414415026  0.12959801164020485  0.09192717271796622  1.0000
  Zn  Zn4       1.0  0.40721463931149066  0.8704035062983663  0.9080733780530181  1.0000
  Zn  Zn5       1.0  0.9232002572189159  0.15992916665481968  0.049280049999794094  1.0000
  Zn  Zn6       1.0  0.07680476497224481  0.8400729220917923  0.9507206074680783  1.0000
  H   H1        1.0  0.5550852835719695  0.32435003521277384  0.19450403719578452  1.0000
  H   H2        1.0  0.44491418502779834  0.6756548018255942  0.8054891710017388  1.0000
  H   H3        1.0  0.5411837889910345  0.4495166761749019  0.2724461637723081  1.0000
  H   H4        1.0  0.45881175669160273  0.5504853355065508  0.7275416241413168  1.0000
  H   H5        1.0  0.7745788875259834  0.5423593293929372  0.3421029022659924  1.0000
  H   H6        1.0  0.22541722085244234  0.4576426996825447  0.6578918499908823  1.0000
  H   H7        1.0  0.7874345935560143  0.41629863405712797  0.26567169960508613  1.0000
  H   H8        1.0  0.21256411805956787  0.583703405881721  0.7343216025259309  1.0000
  H   H9        1.0  0.5670810586263927  0.5488933714329319  0.3977099184535434  1.0000
  H   H10       1.0  0.4329109537615211  0.4511013601156861  0.6022784327980021  1.0000
  H   H11       1.0  0.7279287790940004  0.6306930382106515  0.3153079681070708  1.0000
  H   H12       1.0  0.2720752589940858  0.3693168767002746  0.6846976559410649  1.0000
  H   H13       1.0  0.6098395213466149  0.9526965422746442  0.14496577278918468  1.0000
  H   H14       1.0  0.3901558870699163  0.047297105295768894  0.8550299522592937  1.0000
  H   H15       1.0  0.610848663629625  0.8776714435558048  0.20708110378928532  1.0000
  H   H16       1.0  0.3891499733049529  0.12232445968658111  0.792916493602128  1.0000
  H   H17       1.0  0.6297755067368273  0.07392458889285079  0.4031868291791127  1.0000
  H   H18       1.0  0.3702229175205505  0.9260763377937807  0.5968091735213079  1.0000
  H   H19       1.0  0.6293162367425751  0.14822826475171522  0.33955739521315564  1.0000
  H   H20       1.0  0.37067782158457163  0.851768162364465  0.6604351719398879  1.0000
  H   H21       1.0  0.5530623271516079  0.8206910971864758  0.2556532445077694  1.0000
  H   H22       1.0  0.4469285174899796  0.17930868467447428  0.7443489681497439  1.0000
  H   H23       1.0  0.5539743698112433  0.7465125227574633  0.31809875636285073  1.0000
  H   H24       1.0  0.44601934154939465  0.2534900747201548  0.681906885460343  1.0000
  H   H25       1.0  0.6876388649892747  0.017137354076453396  0.448892122170065  1.0000
  H   H26       1.0  0.31235926126474584  0.9828624555044458  0.5511047445507914  1.0000
  H   H27       1.0  0.5275854113843721  0.009511644011126898  0.8635022558443665  1.0000
  H   H28       1.0  0.4724164195467893  0.9904882025508142  0.1365029572019552  1.0000
  H   H29       1.0  0.5148037482752487  0.9348346585249059  0.734771153221267  1.0000
  H   H30       1.0  0.485194029246003  0.06515790592420248  0.2652350050155903  1.0000
  H   H31       1.0  0.745894541697716  0.9606040300895982  0.7820989251117538  1.0000
  H   H32       1.0  0.2541039381312089  0.0393874067631117  0.2179004463816838  1.0000
  H   H33       1.0  0.7578633324955037  0.0342414927460837  0.9105543433915955  1.0000
  H   H34       1.0  0.24214011193165422  0.9657566788519104  0.08944719474558845  1.0000
  H   H35       1.0  0.5426869135574179  0.9482083850135652  0.6408665490433166  1.0000
  H   H36       1.0  0.45730479146780584  0.05178302128230428  0.3591354908479474  1.0000
  H   H37       1.0  0.5389365229900991  0.8857339755142563  0.5136534044508141  1.0000
  H   H38       1.0  0.4610520562617211  0.11426522686825541  0.48634456927463543  1.0000
  H   H39       1.0  0.696879371500387  0.7788269083052127  0.5562670628852119  1.0000
  H   H40       1.0  0.3031174191812198  0.2211717811733394  0.4437318906985582  1.0000
  H   H41       1.0  0.7016817610062561  0.8420780587193804  0.6838465895284003  1.0000
  H   H42       1.0  0.29831472901071276  0.15791951269007143  0.316152768938558  1.0000
  H   H43       1.0  0.6871154159300445  0.9431545135906487  0.5113978379874666  1.0000
  H   H44       1.0  0.31288289670379754  0.056849772977081214  0.48860230514102915  1.0000
  H   H45       1.0  0.7111578905048361  0.7567197684759179  0.3753955837304446  1.0000
  H   H46       1.0  0.28884604781540457  0.24328960570463212  0.6246189663668745  1.0000
  H   H47       1.0  0.5506653826064181  0.6757585608311415  0.45846606469121554  1.0000
  H   H48       1.0  0.4493270288385106  0.32423562426006924  0.541527157658969  1.0000
  H   H49       1.0  0.4562553717062913  0.0454554504034022  0.9686292090450124  1.0000
  H   H50       1.0  0.5437471562099533  0.9545432666353687  0.031368298983402  1.0000
  H   H51       1.0  0.5019705906420101  0.1885001240967483  0.18478428583632223  1.0000
  H   H52       1.0  0.49803109641464977  0.8114935607209047  0.8152132849021144  1.0000
  H   H53       1.0  0.3695070092555994  0.1863699087111215  0.1740859139320534  1.0000
  H   H54       1.0  0.6304960957981224  0.8136232259020985  0.8259120911018486  1.0000
  H   H55       1.0  0.3229473847231432  0.03501494402303249  0.9491354335538205  1.0000
  H   H56       1.0  0.6770544009661137  0.964984886161481  0.05086197415939612  1.0000
  H   H57       1.0  0.7939353396461044  0.2165745714587572  0.9627780498143679  1.0000
  H   H58       1.0  0.20606277893956104  0.7834347452968586  0.03722371258381686  1.0000
  H   H59       1.0  0.6072527517052678  0.23478239550724567  0.8667686348367738  1.0000
  H   H60       1.0  0.3927444807789017  0.7652218726498317  0.13322538493832792  1.0000
  H   H61       1.0  0.6035676512484899  0.20570112170647545  0.9327106662579325  1.0000
  H   H62       1.0  0.39642838002786374  0.794302579602551  0.0672824831150437  1.0000
  H   H63       1.0  0.5861747283903896  0.13731921229612  0.8412967650464723  1.0000
  H   H64       1.0  0.413824720129604  0.8626817125702289  0.1586957191252624  1.0000
  H   H65       1.0  0.7836632351654985  0.18336075528867474  0.8531946956663462  1.0000
  H   H66       1.0  0.2163375306886905  0.816652493172718  0.14681047286695312  1.0000
  H   H67       1.0  0.7186819009121309  0.21305049157480482  0.8112041416572213  1.0000
  H   H68       1.0  0.2813219017576927  0.7869605336449722  0.188798704536886  1.0000
  H   H69       1.0  0.6977087086717546  0.11847583746675379  0.7953330683480644  1.0000
  H   H70       1.0  0.3022971691361889  0.8815351937462522  0.20466733216109392  1.0000
  H   H71       1.0  0.0016377966547978038  0.053673026275511404  0.9674661464424049  1.0000
  H   H72       1.0  0.9983651116894523  0.9463251375622191  0.03253301872395311  1.0000
  H   H73       1.0  0.126608486361242  0.03336692496997529  0.9832810657618865  1.0000
  H   H74       1.0  0.8733933696567533  0.9666273256258789  0.016719516495648193  1.0000
  H   H75       1.0  0.06151478788610382  0.2368882344341969  0.16825312755805305  1.0000
  H   H76       1.0  0.9384918065062705  0.7631099596409213  0.8317511699730815  1.0000
  H   H77       1.0  0.18875113297519164  0.2237603710582974  0.19422937583341593  1.0000
  H   H78       1.0  0.8112529550463563  0.7762305420271005  0.8057724256441929  1.0000
  H   H79       1.0  0.942412977023899  0.03388500331389821  0.14579261682948905  1.0000
  H   H80       1.0  0.05758926619543575  0.9661126014360379  0.8542080509055696  1.0000
  H   H81       1.0  0.9451913256678498  0.9565062797455187  0.20446851165355204  1.0000
  H   H82       1.0  0.05480762523781381  0.0434907463828651  0.7955309765408813  1.0000
  H   H83       1.0  0.9620854484269756  0.9193212301251701  0.2725519442487396  1.0000
  H   H84       1.0  0.03791500321590751  0.0806830855568634  0.727456772488587  1.0000
  H   H85       1.0  0.7548883113142753  0.9450273188363879  0.3099198170266107  1.0000
  H   H86       1.0  0.2451097367024246  0.05497976761451891  0.6900842098343105  1.0000
  H   H87       1.0  0.007876142754398113  0.4088088777296548  0.24819428872712027  1.0000
  H   H88       1.0  0.9921240093590884  0.5911887152467868  0.7518060698694455  1.0000
  H   H89       1.0  0.9959059561000388  0.536623041771925  0.31654143646228755  1.0000
  H   H90       1.0  0.004096070330057001  0.46337568003050206  0.683459667379438  1.0000
  H   H91       1.0  0.7953904294896291  0.47635953791463936  0.15824721443338063  1.0000
  H   H92       1.0  0.20461317470446974  0.523643101036413  0.8417530087390332  1.0000
  H   H93       1.0  0.8072706406547284  0.3492614314459956  0.09162776660810582  1.0000
  H   H94       1.0  0.19273057176887684  0.6507400776624479  0.9083725523090038  1.0000
  H   H95       1.0  0.9414410331087949  0.6107943263031644  0.38633667839427244  1.0000
  H   H96       1.0  0.058562732062782244  0.38920887553594957  0.6136651788855119  1.0000
  H   H97       1.0  0.8894235029571789  0.9649819359530769  0.8406125356364103  1.0000
  H   H98       1.0  0.11058425127293961  0.0350129050910652  0.1593882351731395  1.0000
  H   H99       1.0  0.8846835324808  0.8893683902035434  0.7139668131334035  1.0000
  H   H100      1.0  0.11532377752568122  0.1106286810920594  0.28603299334051974  1.0000
  H   H101      1.0  0.8894259658089254  0.08366071645907168  0.6866752161309222  1.0000
  H   H102      1.0  0.11057988635645445  0.9163385907617894  0.3133289810850145  1.0000
  H   H103      1.0  0.9028410831025655  0.16009188928016727  0.8157218799243324  1.0000
  H   H104      1.0  0.09716581727702328  0.839907424790823  0.18428293099809423  1.0000
  H   H105      1.0  0.8262530311652513  0.8292994056243475  0.6026778960880393  1.0000
  H   H106      1.0  0.1737480335873158  0.17070154541292476  0.3973230844079083  1.0000
  H   H107      1.0  0.8169046319599007  0.7561650355921331  0.47595137228914564  1.0000
  H   H108      1.0  0.18309448935785613  0.2438364617428235  0.5240486374894716  1.0000
  H   H109      1.0  0.9271980739063397  0.9571706591146236  0.47813766340628655  1.0000
  H   H110      1.0  0.072802095625633  0.04283084507045489  0.5218629600788206  1.0000
  H   H111      1.0  0.9364731134578292  0.029817159354628593  0.6043856346181684  1.0000
  H   H112      1.0  0.06353026185112043  0.9701826873670285  0.39561567804684483  1.0000
  H   H113      1.0  0.9635179636123965  0.8420181652082944  0.331521065666145  1.0000
  H   H114      1.0  0.03647685709680101  0.15798276110565013  0.6684840379239887  1.0000
  H   H115      1.0  0.7594823762811489  0.8718038489498099  0.37251751354224183  1.0000
  H   H116      1.0  0.24051257080877522  0.12819762772829082  0.6274832553711178  1.0000
  H   H117      1.0  0.930376379217641  0.7374630541322631  0.4523156656461681  1.0000
  H   H118      1.0  0.06962431042950362  0.262538452032814  0.5476845759863238  1.0000
  H   H119      1.0  0.8300796203296843  0.5947111844988272  0.18968039070639273  1.0000
  H   H120      1.0  0.1699268251811219  0.4052903559701094  0.8103216193314396  1.0000
  H   H121      1.0  0.8157173517728042  0.7199815000321195  0.25572495586334304  1.0000
  H   H122      1.0  0.18428570956506016  0.28001722380354016  0.7442744659986573  1.0000
  H   H123      1.0  0.767736203801448  0.10485742851524552  0.22740741815016463  1.0000
  H   H124      1.0  0.23227373370929175  0.8951491723789786  0.7726013435221334  1.0000
  H   H125      1.0  0.7707795857084108  0.030216808866462903  0.2894786719217636  1.0000
  H   H126      1.0  0.22922659518525274  0.9697875314856572  0.7105272218484942  1.0000
  C   C1        1.0  0.6790112790242518  0.2894220426397355  0.17369346221092746  1.0000
  C   C2        1.0  0.32098750437081963  0.7105783231388187  0.8263005245295078  1.0000
  C   C3        1.0  0.6720128107757121  0.3631047794775952  0.22459357909620795  1.0000
  C   C4        1.0  0.3279880678372535  0.6368995044662071  0.7753986859850529  1.0000
  C   C5        1.0  0.6027521006292886  0.3723853560631483  0.22798969581586453  1.0000
  C   C6        1.0  0.39724683188757137  0.6276194732149564  0.7720011394108255  1.0000
  C   C7        1.0  0.5953308315370123  0.44219011538012143  0.2716932016635382  1.0000
  C   C8        1.0  0.40466540588342786  0.5578124650228985  0.7282976750538026  1.0000
  C   C9        1.0  0.6569209363524067  0.5048364338471529  0.3120125826701355  1.0000
  C   C10       1.0  0.34307672438767167  0.49516559827819157  0.6879796466171584  1.0000
  C   C11       1.0  0.7262903748426411  0.4945253619772102  0.31006359655130206  1.0000
  C   C12       1.0  0.27370677110484115  0.5054766700948932  0.6899299328630876  1.0000
  C   C13       1.0  0.7338466872877448  0.4243955919591045  0.26742391644473434  1.0000
  C   C14       1.0  0.2661520269891184  0.5756064489431194  0.7325698448235228  1.0000
  C   C15       1.0  0.6484902875174043  0.580310752476528  0.3517307859892469  1.0000
  C   C16       1.0  0.3515084453884826  0.4196912951693363  0.6482661892397062  1.0000
  C   C17       1.0  0.5985961848758876  0.5943369035839368  0.39244246391429277  1.0000
  C   C18       1.0  0.40139539393354084  0.4056600620696571  0.6075467595505871  1.0000
  C   C19       1.0  0.6890592960167653  0.6402197250351379  0.3467740997620653  1.0000
  C   C20       1.0  0.31094414606461385  0.3597879556643305  0.6532332523269346  1.0000
  C   C21       1.0  0.6142161603814885  0.10074224820675681  0.20091841758663523  1.0000
  C   C22       1.0  0.38577833950800067  0.8992519476945731  0.7990746547647946  1.0000
  C   C23       1.0  0.6194460844075566  0.05534413865177609  0.2383646823343568  1.0000
  C   C24       1.0  0.3805476785775215  0.944651172322054  0.7616292079763554  1.0000
  C   C25       1.0  0.613873713319201  0.9788391515062217  0.20154336447485136  1.0000
  C   C26       1.0  0.38612312785159736  0.0211578561050203  0.7984526006203936  1.0000
  C   C27       1.0  0.6137228222967581  0.9367616784802524  0.23663745139140266  1.0000
  C   C28       1.0  0.3862721552025832  0.06323420415851902  0.7633596050076505  1.0000
  C   C29       1.0  0.6196749468672422  0.9697323120756991  0.30997645471942553  1.0000
  C   C30       1.0  0.3803222894887526  0.030268052579756993  0.6900209732650708  1.0000
  C   C31       1.0  0.6262429289602807  0.0469623713609693  0.34663701448315726  1.0000
  C   C32       1.0  0.3737544550667451  0.9530385513656652  0.6533597519225012  1.0000
  C   C33       1.0  0.6259090727897103  0.08889970505774868  0.311480199700611  1.0000
  C   C34       1.0  0.3740859726173085  0.9110984069223491  0.6885141330984724  1.0000
  C   C35       1.0  0.6196105208048409  0.9253079704130445  0.347294842063221  1.0000
  C   C36       1.0  0.38038687386734443  0.07469295616710529  0.6527037608914057  1.0000
  C   C37       1.0  0.5833586153553726  0.8480706676520028  0.31165713104979187  1.0000
  C   C38       1.0  0.4166341567532967  0.15192856213100467  0.6883432975016035  1.0000
  C   C39       1.0  0.5830988871554936  0.8060421145350672  0.34664448621188637  1.0000
  C   C40       1.0  0.4168957087805937  0.19395992594123604  0.6533596760731868  1.0000
  C   C41       1.0  0.6563949636553518  0.95820351504571  0.4200175978966031  1.0000
  C   C42       1.0  0.3436038490138955  0.041796861329999  0.5799814393534817  1.0000
  C   C43       1.0  0.6507501117962279  0.07270717590473912  0.9722483299153878  1.0000
  C   C44       1.0  0.34925231248035254  0.9272949039052775  0.02775469595282944  1.0000
  C   C45       1.0  0.643346798106677  0.026988311145522904  0.8951877819833031  1.0000
  C   C46       1.0  0.3566553281665533  0.9730126515587612  0.104816107905343  1.0000
  C   C47       1.0  0.5751333107431408  0.9987450643155074  0.8450129346064018  1.0000
  C   C48       1.0  0.42486918531293577  0.0012553413342217994  0.1549907758712266  1.0000
  C   C49       1.0  0.5683818078235561  0.9573001846643975  0.7729005270918989  1.0000
  C   C50       1.0  0.4316166415959514  0.042696846227634894  0.2271025569158454  1.0000
  C   C51       1.0  0.6295286926620491  0.9424259365285291  0.7488442402762628  1.0000
  C   C52       1.0  0.37046787179569673  0.057569961684002614  0.2511562619373535  1.0000
  C   C53       1.0  0.6975815455090386  0.9701718525463222  0.7996868802296434  1.0000
  C   C54       1.0  0.30241627862958614  0.029822933537090493  0.20031288130930852  1.0000
  C   C55       1.0  0.704653839982484  0.012196320143125699  0.8718652922242781  1.0000
  C   C56       1.0  0.2953479469173034  0.9877996055763917  0.12813506456108575  1.0000
  C   C57       1.0  0.6234611088454259  0.900937093542822  0.6723504587893884  1.0000
  C   C58       1.0  0.37653351750007863  0.0990593528941588  0.32764999098137804  1.0000
  C   C59       1.0  0.5767321555104061  0.9110597917179247  0.6226909574503167  1.0000
  C   C60       1.0  0.4232623338092197  0.08893610050138533  0.37731199044825564  1.0000
  C   C61       1.0  0.5744110876259826  0.8760971420156665  0.5511463964941683  1.0000
  C   C62       1.0  0.42558168980527006  0.12390208969409142  0.4488549503317146  1.0000
  C   C63       1.0  0.618921896634305  0.8292997838732391  0.5266899946785913  1.0000
  C   C64       1.0  0.38107305045561196  0.17070169280486167  0.4733107742347684  1.0000
  C   C65       1.0  0.6634537587478918  0.8162949952505728  0.5752518589915709  1.0000
  C   C66       1.0  0.3365418387097563  0.18370313027005386  0.42474760160179414  1.0000
  C   C67       1.0  0.6658687125801708  0.8519787265788851  0.6467576510252259  1.0000
  C   C68       1.0  0.3341241032443564  0.14801491398168304  0.3532413606980711  1.0000
  C   C69       1.0  0.6197476481984979  0.8397866581211701  0.4193724616494451  1.0000
  C   C70       1.0  0.3802482047571801  0.16021426926263874  0.5806305008237231  1.0000
  C   C71       1.0  0.6569123482365953  0.9166851599483506  0.4555071427254375  1.0000
  C   C72       1.0  0.3430828767769114  0.08331352166346309  0.5444920381417049  1.0000
  C   C73       1.0  0.6794848493096027  0.7111158155424987  0.3802167708758902  1.0000
  C   C74       1.0  0.32051658142928124  0.2888901821133203  0.619792334095763  1.0000
  C   C75       1.0  0.5891622192735255  0.6653771818379397  0.42663099608390825  1.0000
  C   C76       1.0  0.41083261732811155  0.3346220500847822  0.5733651502335633  1.0000
  C   C77       1.0  0.4348661432633776  0.0756949391865902  0.01262970608307511  1.0000
  C   C78       1.0  0.5651354841096891  0.9243043290732301  0.9873665266600116  1.0000
  C   C79       1.0  0.45993681483224697  0.15667231948373936  0.1340333555668636  1.0000
  C   C80       1.0  0.5400656956655184  0.8433224863463948  0.8659638875730097  1.0000
  C   C81       1.0  0.3875257380401179  0.1548390703688725  0.1279834095020931  1.0000
  C   C82       1.0  0.6124758798983336  0.8451562895724507  0.8720139357641726  1.0000
  C   C83       1.0  0.3371211121374246  0.11054650114951407  0.0606385549526749  1.0000
  C   C84       1.0  0.6628812627852129  0.8894516558913281  0.9393586963800972  1.0000
  C   C85       1.0  0.3610603311155601  0.07058520550820191  0.0018013400307026024  1.0000
  C   C86       1.0  0.6389416607177837  0.9294135037703131  0.9981937950268789  1.0000
  C   C87       1.0  0.16722070593012722  0.1301088277572688  0.08910318875176422  1.0000
  C   C88       1.0  0.8327822807267327  0.8698837593819349  0.9109005283706396  1.0000
  C   C89       1.0  0.7369528847319842  0.21764443415857926  0.9606674209998758  1.0000
  C   C90       1.0  0.2630431454091208  0.7823648717869245  0.03933449139705668  1.0000
  C   C91       1.0  0.6185030194530016  0.19389338562191225  0.8834083988434075  1.0000
  C   C92       1.0  0.38149436336349407  0.8061114415697191  0.11658541849010375  1.0000
  C   C93       1.0  0.7254776516240541  0.1772407894139789  0.8355521311615633  1.0000
  C   C94       1.0  0.2745239016237376  0.8227696621076104  0.16444923092392832  1.0000
  C   C95       1.0  0.6293019567682451  0.7245255167450679  0.42046748493660163  1.0000
  C   C96       1.0  0.3706970328462091  0.2754754282989822  0.5795359412443092  1.0000
  C   C97       1.0  0.0455092117641556  0.09018992303255399  0.016244058431155405  1.0000
  C   C98       1.0  0.954492664333614  0.9098082397353197  0.983757247852168  1.0000
  C   C99       1.0  0.1141832702564756  0.07950854842802359  0.024773825532356908  1.0000
  C   C100      1.0  0.885820009081165  0.9204851538901482  0.9752281092951238  1.0000
  C   C101      1.0  0.07856857058489203  0.19269290815584844  0.12958057340664203  1.0000
  C   C102      1.0  0.9214336100493412  0.8073024691795112  0.8704237362028735  1.0000
  C   C103      1.0  0.14835573060800306  0.18547471812837563  0.14339712989281142  1.0000
  C   C104      1.0  0.851646429946463  0.8145167470349647  0.8566064556909153  1.0000
  C   C105      1.0  0.8507833023700685  0.11680067435303704  0.14286055979398782  1.0000
  C   C106      1.0  0.14922181022961212  0.8831997469769419  0.8571439962439912  1.0000
  C   C107      1.0  0.854081149464477  0.0732732890064653  0.18194194641424127  1.0000
  C   C108      1.0  0.1459264467649604  0.9267305001778398  0.8180639225142345  1.0000
  C   C109      1.0  0.9044657686520596  0.031846628746762896  0.17685472044599498  1.0000
  C   C110      1.0  0.09553813741722189  0.9681532238084002  0.823148046915371  1.0000
  C   C111      1.0  0.9060081579897885  0.9888397506855356  0.21070015212008308  1.0000
  C   C112      1.0  0.09399455485552721  0.011159537911702001  0.7893031222508782  1.0000
  C   C113      1.0  0.8575124467734556  0.9860601055021192  0.25139573352657874  1.0000
  C   C114      1.0  0.14248945206537666  0.013941970401141597  0.7486067559197735  1.0000
  C   C115      1.0  0.8584912374751071  0.9393116356407487  0.2865032015273813  1.0000
  C   C116      1.0  0.1415073743726296  0.0606898635677169  0.7134990266528192  1.0000
  C   C117      1.0  0.9163572865882442  0.9082453462610759  0.2927588976749009  1.0000
  C   C118      1.0  0.08363892816642252  0.0917550211780309  0.707242507975522  1.0000
  C   C119      1.0  0.8018377787591859  0.9241471382238231  0.3152023645965515  1.0000
  C   C120      1.0  0.19816054984239173  0.0758571541241793  0.6848005333553928  1.0000
  C   C121      1.0  0.9175730028302668  0.2954473300774367  0.12575776857998738  1.0000
  C   C122      1.0  0.08242377986747582  0.7045513565109828  0.8742398075920549  1.0000
  C   C123      1.0  0.9087870067663246  0.3710380407949927  0.1654033346094437  1.0000
  C   C124      1.0  0.09121464988091793  0.6289612380619899  0.8345979486432996  1.0000
  C   C125      1.0  0.9614327117456868  0.42441951177312376  0.2292261933717157  1.0000
  C   C126      1.0  0.03856708389138669  0.5755786430747633  0.7707766403220759  1.0000
  C   C127      1.0  0.9542078393353463  0.4957147941628791  0.26730795666191653  1.0000
  C   C128      1.0  0.04579464607558489  0.5042856076333421  0.7326939172667438  1.0000
  C   C129      1.0  0.8430020091550502  0.4626481186894153  0.17783105532740953  1.0000
  C   C130      1.0  0.15700076095279064  0.5373533953956411  0.8221676588946066  1.0000
  C   C131      1.0  0.8492628379059824  0.39085813869563424  0.14020038407720395  1.0000
  C   C132      1.0  0.15073807119168955  0.6091422513803266  0.8597998805858609  1.0000
  C   C133      1.0  0.88697305418701  0.5921215254476169  0.28241882861009077  1.0000
  C   C134      1.0  0.1130286051215208  0.4078777543727411  0.7175829137798999  1.0000
  C   C135      1.0  0.914369391243284  0.6345270627189946  0.3569164939237838  1.0000
  C   C136      1.0  0.08563391494745792  0.3654744591263253  0.6430845932690659  1.0000
  C   C137      1.0  0.9014080685345077  0.11357821345086448  0.912784518914883  1.0000
  C   C138      1.0  0.09859492755697374  0.8864182820068436  0.08721808568434151  1.0000
  C   C139      1.0  0.8957171395533478  0.06714248700226479  0.8358540238673483  1.0000
  C   C140      1.0  0.104290556203715  0.9328540330190479  0.16414835801899857  1.0000
  C   C141      1.0  0.8900285334215142  0.9905061951039614  0.8063475433347878  1.0000
  C   C142      1.0  0.10998155676733029  0.009491455723335198  0.1936552019440967  1.0000
  C   C143      1.0  0.8861294222155607  0.9481338921299027  0.734966316635287  1.0000
  C   C144      1.0  0.1138779929566311  0.05186542199432151  0.2650371941600369  1.0000
  C   C145      1.0  0.8859540384078246  0.9803300885340035  0.6899862160955054  1.0000
  C   C146      1.0  0.11404956167423559  0.019668644025301798  0.3100160378745684  1.0000
  C   C147      1.0  0.8910390750544082  0.057305028927032695  0.7202873513786515  1.0000
  C   C148      1.0  0.10896872054578914  0.9426937319961507  0.2797178165546157  1.0000
  C   C149      1.0  0.897102040167191  0.1002137327847947  0.7920860104397037  1.0000
  C   C150      1.0  0.1029079915485979  0.8997855970196791  0.20791834591597785  1.0000
  C   C151      1.0  0.881484374420836  0.9358994901078431  0.6142937413325457  1.0000
  C   C152      1.0  0.11851795799647391  0.0641003516904419  0.3857078759004651  1.0000
  C   C153      1.0  0.8495968920166844  0.857840492288737  0.5761024614192038  1.0000
  C   C154      1.0  0.15040140053738335  0.14215988210698066  0.4238969576835033  1.0000
  C   C155      1.0  0.844272688725006  0.8160252341498763  0.5043712731820095  1.0000
  C   C156      1.0  0.15572769493491023  0.183975152019336  0.4956284550591903  1.0000
  C   C157      1.0  0.8718034000933772  0.851066273850634  0.4675672694556783  1.0000
  C   C158      1.0  0.1281968358955083  0.14893355424739949  0.5324331203643595  1.0000
  C   C159      1.0  0.9046880682477794  0.9289850037390223  0.5053297140527634  1.0000
  C   C160      1.0  0.0953128381886117  0.0710153853735633  0.49467009147305413  1.0000
  C   C161      1.0  0.908950334270969  0.9700129438398973  0.5767381478593877  1.0000
  C   C162      1.0  0.09105042449438375  0.029986887201509698  0.4232623192452749  1.0000
  C   C163      1.0  0.8619544226817909  0.8522185446114462  0.35608973391772025  1.0000
  C   C164      1.0  0.1380397594400833  0.14778013207699559  0.6439097515174125  1.0000
  C   C165      1.0  0.918068256433884  0.8652160784793991  0.3266427681280959  1.0000
  C   C166      1.0  0.08192550807723363  0.13478483809428352  0.673360344343827  1.0000
  C   C167      1.0  0.8034776569955258  0.8816820139732757  0.349763538347162  1.0000
  C   C168      1.0  0.19651629503066204  0.11831777495076777  0.65023408750843  1.0000
  C   C169      1.0  0.8718608017307973  0.7383910412852686  0.3590457334070863  1.0000
  C   C170      1.0  0.12814146156831194  0.2616104756366795  0.6409556583537537  1.0000
  C   C171      1.0  0.9074954556759922  0.7061148524822799  0.39479546382761316  1.0000
  C   C172      1.0  0.09250680496182183  0.2938866634762931  0.6052054687959868  1.0000
  C   C173      1.0  0.8511949213807242  0.624975655301391  0.2474511918392466  1.0000
  C   C174      1.0  0.14880644669778323  0.3750264147683637  0.752549842910753  1.0000
  C   C175      1.0  0.8432798759605902  0.6960165640523215  0.2845179934707717  1.0000
  C   C176      1.0  0.15672431746688895  0.30398440175505936  0.7154820733211906  1.0000
  C   C177      1.0  0.8063801607677591  0.0720933268605748  0.22314874494185943  1.0000
  C   C178      1.0  0.19362977408169266  0.927913273070267  0.7768595575931982  1.0000
  C   C179      1.0  0.8949450743993593  0.5165976567294309  0.24234273665033618  1.0000
  C   C180      1.0  0.10505844325804499  0.48340274613664047  0.757656996161366  1.0000
  C   C181      1.0  0.8082965917027707  0.029397244765938496  0.2574247473751329  1.0000
  C   C182      1.0  0.19170848516490926  0.9706087686766124  0.7425826029026723  1.0000
  N   N1        1.0  0.4831060318259616  0.11783116959787777  0.07720219376141557  1.0000
  N   N2        1.0  0.5168965572246336  0.882165869427098  0.9227941623274418  1.0000
  N   N3        1.0  0.26208819330114597  0.10600910506018119  0.04743012148083638  1.0000
  N   N4        1.0  0.737915765918608  0.8939890665910472  0.9525701165292518  1.0000
  N   N5        1.0  0.24094823506374752  0.130406582291684  0.10295848626828531  1.0000
  N   N6        1.0  0.7590573495076925  0.8695860137841152  0.8970428624537805  1.0000
  N   N7        1.0  0.02838174476483601  0.1465890212779328  0.06672876397533405  1.0000
  N   N8        1.0  0.9716224418893165  0.8534080371743257  0.933272874477048  1.0000
  N   N9        1.0  0.6955623648946274  0.19857503288366024  0.8960489116828826  1.0000
  N   N10       1.0  0.3044359412061084  0.8014331562223163  0.10394736409897835  1.0000
  N   N11       1.0  0.6197058898203239  0.7969494391755987  0.4547363804333601  1.0000
  N   N12       1.0  0.38028958536863655  0.203052042372633  0.5452653840391052  1.0000
  N   N13       1.0  0.8654723668084261  0.8113654044646736  0.39432200655819133  1.0000
  N   N14       1.0  0.13452218775758953  0.18863271613258803  0.6056777586031645  1.0000
  O   O1        1.0  0.6199198262441926  0.23850314915996762  0.13243473622097218  1.0000
  O   O2        1.0  0.3800774739074342  0.7614955384450751  0.8675619989612147  1.0000
  O   O3        1.0  0.7428956220303676  0.2825666632838946  0.17337728346089426  1.0000
  O   O4        1.0  0.2570998011433617  0.7174308945317804  0.8266182473388924  1.0000
  O   O5        1.0  0.6191265349640106  0.0692544088333662  0.13560509767528123  1.0000
  O   O6        1.0  0.3808747173036339  0.9307454145542668  0.8643903962043427  1.0000
  O   O7        1.0  0.714247647077528  0.0993156899717818  0.015547265181133729  1.0000
  O   O8        1.0  0.28575496737541073  0.9006852631519708  0.984450733207993  1.0000
  O   O9        1.0  0.5924313644232271  0.0818156562313987  0.9904131851867177  1.0000
  O   O10       1.0  0.4075712128469675  0.9181869835765537  0.009590097377142026  1.0000
  O   O11       1.0  0.6034185988785908  0.16336201297507807  0.23108043181256485  1.0000
  O   O12       1.0  0.39657155782173004  0.8366315964912019  0.7689103881545095  1.0000
  O   O13       1.0  0.7142152613525924  0.2350830210875331  0.01465713813339425  1.0000
  O   O14       1.0  0.28578196169696213  0.764917338751033  0.9853379941648939  1.0000
  O   O15       1.0  0.8120325342405509  0.16186811300034518  0.15691531204107895  1.0000
  O   O16       1.0  0.18797122681898062  0.8381311824470218  0.8430885760363653  1.0000
  O   O17       1.0  0.861336064347242  0.23984166462938822  0.07784395847996715  1.0000
  O   O18       1.0  0.13865970618378753  0.7601609330611935  0.9221564828348221  1.0000
  O   O19       1.0  0.9783204799370755  0.28314536612058566  0.13608742880714444  1.0000
  O   O20       1.0  0.02167693183807987  0.7168499616033444  0.8639051659469673  1.0000
  O   O21       1.0  0.8885466972917869  0.07732074386910877  0.9473586423628291  1.0000
  O   O22       1.0  0.11145340433251508  0.9226785309746366  0.052644704722247845  1.0000
  O   O23       1.0  0.8878401999099452  0.104112501243101  0.09765322583356809  1.0000
  O   O24       1.0  0.11216718219154137  0.8958924059570778  0.902353538338822  1.0000
  O   O25       1.0  0.9189743405872334  0.1837834446880677  0.9418125630091866  1.0000
  O   O26       1.0  0.08102954540227365  0.8162124956950763  0.05818948032639789  1.0000
