data_image0
_chemical_formula_structural       Gd2MnH32C16O20
_chemical_formula_sum              "Gd2 Mn1 H32 C16 O20"
_cell_length_a       7.97859618805345
_cell_length_b       9.857966142442754
_cell_length_c       11.156018982951837
_cell_angle_alpha    110.80083160180833
_cell_angle_beta     107.05840921677233
_cell_angle_gamma    92.18017250782465

_space_group_name_H-M_alt    "P 1"
_space_group_IT_number       1

loop_
  _space_group_symop_operation_xyz
  'x, y, z'

loop_
  _atom_site_type_symbol
  _atom_site_label
  _atom_site_symmetry_multiplicity
  _atom_site_fract_x
  _atom_site_fract_y
  _atom_site_fract_z
  _atom_site_occupancy
  Gd  Gd1       1.0  0.9014686470448438  0.5753874307911957  0.15687209166122779  1.0000
  Gd  Gd2       1.0  0.09853639427925032  0.42462012741783894  0.8431311924868224  1.0000
  Mn  Mn1       1.0  0.9999944009627909  0.49999444937566306  0.49999714664103584  1.0000
  H   H1        1.0  0.41823366604916157  0.4741429652541101  0.09265244260006264  1.0000
  H   H2        1.0  0.581766673030998  0.5258669125820249  0.907346983322263  1.0000
  H   H3        1.0  0.2420897192231308  0.4158176394700135  0.11071456845036211  1.0000
  H   H4        1.0  0.7579080719352831  0.5841867003232936  0.8892870068273523  1.0000
  H   H5        1.0  0.05940083713914391  0.1228131142616675  0.7039476151587037  1.0000
  H   H6        1.0  0.9406030221096346  0.8771954748271684  0.29606201988895725  1.0000
  H   H7        1.0  0.2525986032843904  0.1427741752119545  0.80779369451092  1.0000
  H   H8        1.0  0.7474065450013326  0.8572409212438501  0.19222458803459117  1.0000
  H   H9        1.0  0.5561877142821248  0.18471051593178345  0.7638616646109638  1.0000
  H   H10       1.0  0.44380313628180806  0.8152917659256004  0.2361341597032407  1.0000
  H   H11       1.0  0.7482262835563347  0.09863998693356991  0.7639813235706967  1.0000
  H   H12       1.0  0.2517784736822293  0.9013720589724059  0.23601796357890947  1.0000
  H   H13       1.0  0.6114060550481284  0.07170270593122301  0.8596068405736614  1.0000
  H   H14       1.0  0.38859015717803647  0.9283126898153994  0.14039705223013496  1.0000
  H   H15       1.0  0.4345134223397337  0.5351937921909027  0.5842540920217444  1.0000
  H   H16       1.0  0.5654791323848728  0.4647984464593904  0.4157460429619276  1.0000
  H   H17       1.0  0.5804993249755981  0.42922422997160936  0.6572485505024445  1.0000
  H   H18       1.0  0.4195029385699343  0.5707701534587815  0.34274899812934484  1.0000
  H   H19       1.0  0.3919222110858058  0.34216123985112296  0.5068222496209244  1.0000
  H   H20       1.0  0.6080733930458775  0.657833135758061  0.49318102605699465  1.0000
  H   H21       1.0  0.8986813430204705  0.8389317511140177  0.9311215521756678  1.0000
  H   H22       1.0  0.1013242896271009  0.1610715656206878  0.0688679451563061  1.0000
  H   H23       1.0  0.8795137724586155  0.9020084045488375  0.7955353622952827  1.0000
  H   H24       1.0  0.12048584342241499  0.0979850762692394  0.2044496684047346  1.0000
  H   H25       1.0  0.6930841590348746  0.8000216165659424  0.8009684017356234  1.0000
  H   H26       1.0  0.3069182091390559  0.19997939085403257  0.19903040357227295  1.0000
  H   H27       1.0  0.6965863222997228  0.014733659063274705  0.41761222810691817  1.0000
  H   H28       1.0  0.303420912213369  0.985253904731941  0.5823940649397699  1.0000
  H   H29       1.0  0.5612929767198409  0.13172958328040346  0.3548224802524587  1.0000
  H   H30       1.0  0.4387138383555324  0.8682558195999022  0.6451803375011307  1.0000
  H   H31       1.0  0.5698004174642078  0.11740892978133391  0.5122307988998571  1.0000
  H   H32       1.0  0.4302009970821175  0.8825754959536314  0.4877669490466232  1.0000
  C   C1        1.0  0.7689792540597439  0.2855427226703213  0.9453588391467915  1.0000
  C   C2        1.0  0.2310266391684408  0.7144682554224673  0.05463676467538655  1.0000
  C   C3        1.0  0.6666108940709209  0.1495635941796039  0.8259863077801626  1.0000
  C   C4        1.0  0.3333813684251438  0.8504452935337953  0.1740110505060883  1.0000
  C   C5        1.0  0.3257789957387303  0.4305191114518294  0.6865878517177321  1.0000
  C   C6        1.0  0.6742178797347619  0.5694808449560186  0.3134112189274134  1.0000
  C   C7        1.0  0.8852114245997951  0.6699102365714396  0.740381932932351  1.0000
  C   C8        1.0  0.11478349137054517  0.33008647813091585  0.25961298126329513  1.0000
  C   C9        1.0  0.8023732839738215  0.2444011949747278  0.5221058047554477  1.0000
  C   C10       1.0  0.1976286546386206  0.7555920156647246  0.47789667516023815  1.0000
  C   C11       1.0  0.44312644552241653  0.43492028471398214  0.6054066660630893  1.0000
  C   C12       1.0  0.5568716019026213  0.565073004948438  0.39459320358333366  1.0000
  C   C13       1.0  0.8377606874760344  0.812440636168901  0.8218770328777365  1.0000
  C   C14       1.0  0.1622371526729651  0.1875572027461274  0.17811439381660674  1.0000
  C   C15       1.0  0.6469807530747929  0.12023386196397474  0.4460367156743955  1.0000
  C   C16       1.0  0.35302002172912245  0.8797538540547407  0.5539637449389829  1.0000
  O   O1        1.0  0.10064412633931848  0.6402120554745209  0.06260690749533634  1.0000
  O   O2        1.0  0.8993570267022548  0.35978904394580974  0.9373862853722696  1.0000
  O   O3        1.0  0.7234116439348597  0.33182251480592856  0.05038987883492756  1.0000
  O   O4        1.0  0.27659686913892056  0.6681828034652287  0.9496125402892801  1.0000
  O   O5        1.0  0.1678379889607697  0.4615663428063428  0.6542510089318582  1.0000
  O   O6        1.0  0.8321623429005098  0.5384313613524937  0.3457480858801673  1.0000
  O   O7        1.0  0.8803488970149046  0.5624697534277631  0.7811854720629083  1.0000
  O   O8        1.0  0.11964715204016581  0.4375324312730768  0.21881323981649808  1.0000
  O   O9        1.0  0.3777782707450399  0.3950532576058663  0.7906015828876107  1.0000
  O   O10       1.0  0.6222221474778493  0.6049575960431073  0.20940713880244033  1.0000
  O   O11       1.0  0.3043645964346808  0.4058972151739724  0.04284530974682349  1.0000
  O   O12       1.0  0.6956338930088535  0.5941104213917826  0.9571574771122753  1.0000
  O   O13       1.0  0.1308633949141011  0.15812945889045688  0.8005679540871924  1.0000
  O   O14       1.0  0.8691392083547668  0.8418735617108482  0.19944499680251945  1.0000
  O   O15       1.0  0.9102035437767668  0.24445445959226939  0.6333291817757569  1.0000
  O   O16       1.0  0.08980483394482523  0.7555442100670362  0.3666737590538034  1.0000
  O   O17       1.0  0.92287121518482  0.6627436505565569  0.6360524059350112  1.0000
  O   O18       1.0  0.07712881001015862  0.3372463553108034  0.363943249958993  1.0000
  O   O19       1.0  0.8129094867039156  0.3387923041468924  0.4705623656157058  1.0000
  O   O20       1.0  0.1870880951977085  0.6611987876672317  0.5294366963097943  1.0000
