data_image0
_chemical_formula_structural       K2Cr2H62C50O24
_chemical_formula_sum              "K2 Cr2 H62 C50 O24"
_cell_length_a       10.557952254867248
_cell_length_b       10.487957701951085
_cell_length_c       13.885798425162855
_cell_angle_alpha    108.4551207519935
_cell_angle_beta     95.16482112520468
_cell_angle_gamma    97.56184478217561

_space_group_name_H-M_alt    "P 1"
_space_group_IT_number       1

loop_
  _space_group_symop_operation_xyz
  'x, y, z'

loop_
  _atom_site_type_symbol
  _atom_site_label
  _atom_site_symmetry_multiplicity
  _atom_site_fract_x
  _atom_site_fract_y
  _atom_site_fract_z
  _atom_site_occupancy
  K   K1        1.0  0.64272580451334  0.9780473947848948  0.25387373593950713  1.0000
  K   K2        1.0  0.35727653880137217  0.021961401823404  0.7461267691505641  1.0000
  Cr  Cr1       1.0  0.8576688531120312  0.48585046732782894  0.23906584497652264  1.0000
  Cr  Cr2       1.0  0.14234078251269724  0.5141450510611919  0.7609254484172755  1.0000
  H   H1        1.0  0.28814043890356095  0.9974760955191828  0.13344279436422823  1.0000
  H   H2        1.0  0.7118514245684223  0.002526607186915402  0.8665598845603599  1.0000
  H   H3        1.0  0.20835707167657355  0.8278260497225602  0.11524581193197042  1.0000
  H   H4        1.0  0.7916346467705183  0.1721756227765923  0.884760210052747  1.0000
  H   H5        1.0  0.32019027908200576  0.8485920479605583  0.2900268200506916  1.0000
  H   H6        1.0  0.6798099752245436  0.15140959865090764  0.7099768670514593  1.0000
  H   H7        1.0  0.20860237376282953  0.9623754874487815  0.2914883864695383  1.0000
  H   H8        1.0  0.7913991827046161  0.037628186954854904  0.7085187544920191  1.0000
  H   H9        1.0  0.4051558544637928  0.008853016093233601  0.4555247301092679  1.0000
  H   H10       1.0  0.5948428243861558  0.9911506820410952  0.544477909445476  1.0000
  H   H11       1.0  0.31842578110747166  0.14065649420879112  0.44857962595267514  1.0000
  H   H12       1.0  0.6815748029278128  0.8593471942829467  0.5514238546622608  1.0000
  H   H13       1.0  0.5193734214207667  0.24154890778348206  0.5605156142370051  1.0000
  H   H14       1.0  0.48062852250584603  0.7584517319271029  0.4394807376378367  1.0000
  H   H15       1.0  0.523471299967575  0.2896530089863631  0.4484580591050858  1.0000
  H   H16       1.0  0.4765289278863279  0.7103486499808513  0.5515413082417028  1.0000
  H   H17       1.0  0.7514370535263951  0.2779643745674322  0.592072565020672  1.0000
  H   H18       1.0  0.2485598528178059  0.7220342216282204  0.40793089018124823  1.0000
  H   H19       1.0  0.7537883020437024  0.3329811877855634  0.4828256102259161  1.0000
  H   H20       1.0  0.2462097085312181  0.6670184307067971  0.517176002384808  1.0000
  H   H21       1.0  0.8611790507878396  0.08140753346557973  0.500596687151976  1.0000
  H   H22       1.0  0.13881800939878994  0.9185920888184357  0.4994048649082644  1.0000
  H   H23       1.0  0.9546292965171548  0.2474777091213909  0.5275500075791655  1.0000
  H   H24       1.0  0.04536966003727372  0.7525219076386166  0.47245094562281054  1.0000
  H   H25       1.0  0.073330828630219  0.16520626973962754  0.38692195453104733  1.0000
  H   H26       1.0  0.9266670624914257  0.8347984541561361  0.6130801612499895  1.0000
  H   H27       1.0  0.9849953194857479  0.9952365097127969  0.3562827738474042  1.0000
  H   H28       1.0  0.0150018945433246  0.004764138659581401  0.6437168750711566  1.0000
  H   H29       1.0  0.07508697344360371  0.045384705486675614  0.2065297382093547  1.0000
  H   H30       1.0  0.9249107417917347  0.9546190026171787  0.7934706809172171  1.0000
  H   H31       1.0  0.9735248050127299  0.1715191323446064  0.21714575999487812  1.0000
  H   H32       1.0  0.026469284555780365  0.8284856067177562  0.7828561135842308  1.0000
  H   H33       1.0  0.8574674431940466  0.039437534080001106  0.048999377965401415  1.0000
  H   H34       1.0  0.1425302852676182  0.9605661678459754  0.9510032010388587  1.0000
  H   H35       1.0  0.9611742433828783  0.9147255336592438  0.03971363642730101  1.0000
  H   H36       1.0  0.038822803577438905  0.08527409480264231  0.9602857557552582  1.0000
  H   H37       1.0  0.7723257030465264  0.7396100119645227  0.031011870386116382  1.0000
  H   H38       1.0  0.22767012022979577  0.2603936996040446  0.9689898675579516  1.0000
  H   H39       1.0  0.7629606292780906  0.8045345756558079  0.92697709144084  1.0000
  H   H40       1.0  0.237033464699195  0.19547016134726652  0.07302550209749371  1.0000
  H   H41       1.0  0.5299478041957072  0.7364992929682685  0.9024948817193349  1.0000
  H   H42       1.0  0.47004708632743325  0.26350441415478804  0.09750967551115514  1.0000
  H   H43       1.0  0.539998589102119  0.6787893595341431  0.010528197121061626  1.0000
  H   H44       1.0  0.45999697410482543  0.32121842517158683  0.9894781070126727  1.0000
  H   H45       1.0  0.4067518584644674  0.9173949074324809  0.9947442593753095  1.0000
  H   H46       1.0  0.5932373253201958  0.0826088244997649  0.005259214593053187  1.0000
  H   H47       1.0  0.3268859423542808  0.7471262415178189  0.9711621708415521  1.0000
  H   H48       1.0  0.673107821894263  0.25287645360498356  0.028840629183996214  1.0000
  H   H49       1.0  0.5593292899120714  0.45644441831720434  0.3996627801060698  1.0000
  H   H50       1.0  0.4406701546223033  0.5435582643521499  0.6003367834262364  1.0000
  H   H51       1.0  0.33577864941079133  0.3284466623369156  0.3532383260514039  1.0000
  H   H52       1.0  0.6642219390332756  0.6715570240955345  0.6467658745227567  1.0000
  H   H53       1.0  0.1824852336485563  0.3714788333517093  0.2243551534417421  1.0000
  H   H54       1.0  0.8175151789091972  0.6285238372888244  0.7756473504779606  1.0000
  H   H55       1.0  0.25552787467644583  0.5399506945703011  0.140236180415279  1.0000
  H   H56       1.0  0.7444708927653496  0.460047912575668  0.8597609162545581  1.0000
  H   H57       1.0  0.4789243297837161  0.6704856573346518  0.18926093326791718  1.0000
  H   H58       1.0  0.5210802550322812  0.32950782371731446  0.8107353035752781  1.0000
  H   H59       1.0  0.8478643284480826  0.6990887380618673  0.4217491736786628  1.0000
  H   H60       1.0  0.1521367016578381  0.3009006911974055  0.5782400948952429  1.0000
  H   H61       1.0  0.7454494488998621  0.5443256722538906  0.4181494303694252  1.0000
  H   H62       1.0  0.25455859010542536  0.45566575998836384  0.5818443753260071  1.0000
  C   C1        1.0  0.295391081718627  0.9045993983541862  0.15390847608978933  1.0000
  C   C2        1.0  0.7046017321416402  0.0954033005602568  0.8460942633852753  1.0000
  C   C3        1.0  0.3022145554765744  0.9381062333447759  0.26828788375659945  1.0000
  C   C4        1.0  0.6977906090225973  0.061896418337518404  0.7317149229155222  1.0000
  C   C5        1.0  0.4054028594899748  0.0958636588712878  0.4270998781389325  1.0000
  C   C6        1.0  0.5945965982707265  0.904139017620196  0.572901845271062  1.0000
  C   C7        1.0  0.5227593883839462  0.20292664083923032  0.477380139901321  1.0000
  C   C8        1.0  0.4772406724011945  0.7970739982174919  0.5226189707094591  1.0000
  C   C9        1.0  0.7507470893736043  0.24278042803080535  0.5080399026219169  1.0000
  C   C10       1.0  0.24925395266124178  0.7572201928192256  0.49196430825394094  1.0000
  C   C11       1.0  0.8673326277458459  0.17684807615865591  0.48177743934039097  1.0000
  C   C12       1.0  0.13266650910366448  0.8231525543339656  0.5182259304752819  1.0000
  C   C13       1.0  0.98484546180908  0.0939740902371469  0.3432877695383923  1.0000
  C   C14       1.0  0.015154668635418  0.90603266383701  0.6567157007748464  1.0000
  C   C15       1.0  0.9830718366211074  0.07469265064229089  0.23074946933758878  1.0000
  C   C16       1.0  0.016926388638054863  0.925314113074457  0.769253159915458  1.0000
  C   C17       1.0  0.8708476827553968  0.945611248779372  0.06619696853220357  1.0000
  C   C18       1.0  0.12914718572386621  0.0543924686401454  0.9338039889021559  1.0000
  C   C19       1.0  0.7610480965570758  0.8311655493393818  0.010422328025079343  1.0000
  C   C20       1.0  0.23894616448897218  0.16884020757417775  0.9895805222492559  1.0000
  C   C21       1.0  0.5327146169840946  0.7686133793376018  0.9865863426512363  1.0000
  C   C22       1.0  0.46728059885901263  0.2313923717250219  0.013417288132806973  1.0000
  C   C23       1.0  0.41147035893905587  0.8240258654140505  0.014632746111551869  1.0000
  C   C24       1.0  0.5885237482645567  0.17597886541114602  0.9853720073044628  1.0000
  C   C25       1.0  0.535219244822784  0.5715803130317882  0.2968973517414497  1.0000
  C   C26       1.0  0.4647828097395532  0.42841522539397653  0.703097057044623  1.0000
  C   C27       1.0  0.49337311769637904  0.4741991854693738  0.3420942589166104  1.0000
  C   C28       1.0  0.5066256717892942  0.5257994113801417  0.6579064375493644  1.0000
  C   C29       1.0  0.36715137956979055  0.40285636963799487  0.31665976410256763  1.0000
  C   C30       1.0  0.6328501460362334  0.5971473191806781  0.6833423371443959  1.0000
  C   C31       1.0  0.28114561641122293  0.4267762423594236  0.24436786791536494  1.0000
  C   C32       1.0  0.7188497012500578  0.5732244115369626  0.75563237986146  1.0000
  C   C33       1.0  0.32191960410308706  0.5222313858003674  0.19768082256199898  1.0000
  C   C34       1.0  0.6780815088885107  0.4777641522984625  0.8023149655920463  1.0000
  C   C35       1.0  0.44768255810466695  0.5944795909649231  0.22426106970002022  1.0000
  C   C36       1.0  0.5523210110724577  0.40550777680196143  0.7757314668494646  1.0000
  C   C37       1.0  0.6670263180011703  0.6603029045302478  0.3296932413876804  1.0000
  C   C38       1.0  0.33297377053401084  0.3396865244020901  0.6702974065541982  1.0000
  C   C39       1.0  0.7718248252820459  0.6145569145634937  0.37691149054391104  1.0000
  C   C40       1.0  0.22817604657266347  0.3854314906667042  0.6230789612124428  1.0000
  C   C41       1.0  0.7393795759338246  0.3356351314421104  0.23734223424650486  1.0000
  C   C42       1.0  0.2606224830372881  0.6643604049243663  0.7626528944987998  1.0000
  C   C43       1.0  0.7460458693759336  0.5163848916205468  0.13897623316233887  1.0000
  C   C44       1.0  0.2539646990019834  0.4836106312139918  0.8610122409450298  1.0000
  C   C45       1.0  0.9664498681143527  0.6472160102546314  0.24854172093417057  1.0000
  C   C46       1.0  0.03355867209720742  0.3527784817190992  0.7514528549692799  1.0000
  C   C47       1.0  0.9742240007483501  0.4578255775176244  0.338201355417695  1.0000
  C   C48       1.0  0.025780570841320117  0.5421679097122053  0.6617927215478191  1.0000
  C   C49       1.0  0.9338048195006793  0.3833611772022892  0.13549262452780653  1.0000
  C   C50       1.0  0.06622704887105615  0.616636275266153  0.8645070546321637  1.0000
  O   O1        1.0  0.40911498580083366  0.8533264790271391  0.12247111174812642  1.0000
  O   O2        1.0  0.5908782728326686  0.14667315842347514  0.8775301981101793  1.0000
  O   O3        1.0  0.40283250826959727  0.0515157526678252  0.3182528907417179  1.0000
  O   O4        1.0  0.5971685205389222  0.9484848743600834  0.6817491602564587  1.0000
  O   O5        1.0  0.637140600663443  0.14542464043837106  0.45777401637925413  1.0000
  O   O6        1.0  0.36286230687777293  0.8545759893026884  0.5422245559237525  1.0000
  O   O7        1.0  0.8729998450408659  0.14886859247911843  0.37503355895191254  1.0000
  O   O8        1.0  0.12699643623501802  0.851132051447742  0.6249689092530772  1.0000
  O   O9        1.0  0.8775100564142023  0.970862231286674  0.17390491613317488  1.0000
  O   O10       1.0  0.1224897354840166  0.029142485025794005  0.8260973207488292  1.0000
  O   O11       1.0  0.6417048820675931  0.8740353876898793  0.036094597344615044  1.0000
  O   O12       1.0  0.35829127093747104  0.1259703657589668  0.9639069341122309  1.0000
  O   O13       1.0  0.6798130759764547  0.7737728710669034  0.31570731356899984  1.0000
  O   O14       1.0  0.3201958737381432  0.22621857591731503  0.6842800730438655  1.0000
  O   O15       1.0  0.6645905077500062  0.24108102831118566  0.23420286214892633  1.0000
  O   O16       1.0  0.33541097993911256  0.7589103831089189  0.7658070787553586  1.0000
  O   O17       1.0  0.6820477460734936  0.5314956138078061  0.07156625568045881  1.0000
  O   O18       1.0  0.31795989707143957  0.46849380744353664  0.9284169571137824  1.0000
  O   O19       1.0  0.03555699800568141  0.7459448736604133  0.25272014529059567  1.0000
  O   O20       1.0  0.9644488039071035  0.2540618720788786  0.7472786486109515  1.0000
  O   O21       1.0  0.049305628957952825  0.4391543847555683  0.3971337950141135  1.0000
  O   O22       1.0  0.95069832420252  0.5608584918216266  0.6028663576520117  1.0000
  O   O23       1.0  0.9810379188440663  0.3166456388418197  0.06729875041258282  1.0000
  O   O24       1.0  0.018960261859071216  0.6833315058602168  0.932704655800251  1.0000
