data_image0
_chemical_formula_structural       Zn2H32C30N6O16
_chemical_formula_sum              "Zn2 H32 C30 N6 O16"
_cell_length_a       10.570683043661454
_cell_length_b       10.93833974084379
_cell_length_c       11.819854782542523
_cell_angle_alpha    89.99806823774733
_cell_angle_beta     90.00921834583735
_cell_angle_gamma    89.80375377415753

_space_group_name_H-M_alt    "P 1"
_space_group_IT_number       1

loop_
  _space_group_symop_operation_xyz
  'x, y, z'

loop_
  _atom_site_type_symbol
  _atom_site_label
  _atom_site_symmetry_multiplicity
  _atom_site_fract_x
  _atom_site_fract_y
  _atom_site_fract_z
  _atom_site_occupancy
  Zn  Zn1       1.0  0.6292664530877161  0.49859099252669387  0.4945182570003936  1.0000
  Zn  Zn2       1.0  0.3703935833559981  0.5012486631713813  0.49480610285915105  1.0000
  H   H1        1.0  0.70473835592081  0.8926621900510556  0.5007613563684146  1.0000
  H   H2        1.0  0.3031928508489941  0.9050652940407179  0.4839689874630082  1.0000
  H   H3        1.0  0.6959795662024533  0.09497294201595712  0.4801544648327933  1.0000
  H   H4        1.0  0.2949198055648026  0.1073539798879608  0.5052544201046487  1.0000
  H   H5        1.0  0.8368071444622203  0.9445432392932317  0.1606228798793055  1.0000
  H   H6        1.0  0.8289117644082039  0.7836906150787685  0.1808657520695718  1.0000
  H   H7        1.0  0.7884964276982486  0.84838332036783  0.0478611958313877  1.0000
  H   H8        1.0  0.5924679619633794  0.7930876984457383  0.1473503172427968  1.0000
  H   H9        1.0  0.6011128645358993  0.9523566365399035  0.1341372050995275  1.0000
  H   H10       1.0  0.7099913000235888  0.9425489342499419  0.3368014665185441  1.0000
  H   H11       1.0  0.6561881239444034  0.7920679775251075  0.3404099419288826  1.0000
  H   H12       1.0  0.22027812954061687  0.8120446679607342  0.12792061615449773  1.0000
  H   H13       1.0  0.256816016389422  0.6724369360565491  0.19775332461355793  1.0000
  H   H14       1.0  0.1071007901376007  0.743657278850911  0.21849385120019346  1.0000
  H   H15       1.0  0.2473928816496738  0.778352267476123  0.3851787182401694  1.0000
  H   H16       1.0  0.2085035292976372  0.9174729566155407  0.3172803693744584  1.0000
  H   H17       1.0  0.4136851496716929  0.8909496026205874  0.20262653488885726  1.0000
  H   H18       1.0  0.445336452980655  0.7606277045701265  0.2807702112131807  1.0000
  H   H19       1.0  0.7711745527223995  0.18529582541834336  0.1227642043035928  1.0000
  H   H20       1.0  0.7361211950533716  0.32581601629059526  0.19160361569430512  1.0000
  H   H21       1.0  0.8861540249856503  0.25486646278204717  0.21077821383139653  1.0000
  H   H22       1.0  0.7492472337943284  0.22230720698704698  0.3800560098116748  1.0000
  H   H23       1.0  0.7867565841068398  0.0823330243486353  0.3130631905147609  1.0000
  H   H24       1.0  0.5791179763658576  0.10843462912804107  0.201105409650296  1.0000
  H   H25       1.0  0.549092934926314  0.23890638811658252  0.2795249204838726  1.0000
  H   H26       1.0  0.1548954220600294  0.054829600356185906  0.1663963849868537  1.0000
  H   H27       1.0  0.16313274959662746  0.2157024518742574  0.1865610195978533  1.0000
  H   H28       1.0  0.20081390460822493  0.15105954639274444  0.0528908322408341  1.0000
  H   H29       1.0  0.3989050659900641  0.20628125679212425  0.1489383822953769  1.0000
  H   H30       1.0  0.3899377847436937  0.0470198293866702  0.1360275868976686  1.0000
  H   H31       1.0  0.2857639043285687  0.05712562116143261  0.3407652738152081  1.0000
  H   H32       1.0  0.3397048298263242  0.2075683933961869  0.3430587587394456  1.0000
  C   C1        1.0  0.5000305152535773  0.5000522710796177  0.7114990746516128  1.0000
  C   C2        1.0  0.49981243138835646  0.5008370509258172  0.0499926356325204  1.0000
  C   C3        1.0  0.5001746280075068  0.7380410409348882  0.4925206703681512  1.0000
  C   C4        1.0  0.4991849807765191  0.26178646658228644  0.4922705753268773  1.0000
  C   C5        1.0  0.06439433076339901  0.5010070312337902  0.5040205846368622  1.0000
  C   C6        1.0  0.9352021247781295  0.49967268420888905  0.5040172397392269  1.0000
  C   C7        1.0  0.4999519157172542  0.5002638349022135  0.2747162055560821  1.0000
  C   C8        1.0  0.5001225415968592  0.500463609712753  0.8329777689819766  1.0000
  C   C9        1.0  0.6246086142004614  0.9290197814838238  0.5481703574212062  1.0000
  C   C10       1.0  0.3788609381914582  0.9298375328491771  0.5423025555139418  1.0000
  C   C11       1.0  0.6217714575723718  0.0700548554751848  0.5398759440581529  1.0000
  C   C12       1.0  0.3763489165336296  0.0708295105156864  0.5507909857812692  1.0000
  C   C13       1.0  0.49995532457439407  0.5007481164279499  0.9362082923407584  1.0000
  C   C14       1.0  0.5053424125055201  0.9253343000305563  0.3610058536757705  1.0000
  C   C15       1.0  0.49094569515605707  0.0742931997425629  0.3610945376373706  1.0000
  C   C16       1.0  0.5024985000730595  0.8791000944012382  0.4922511713522226  1.0000
  C   C17       1.0  0.4969302666410583  0.12070180627610941  0.4922448213833591  1.0000
  C   C18       1.0  0.4997052464117574  0.5006461126838461  0.1533788136322869  1.0000
  C   C19       1.0  0.6337491204043318  0.8833262227835874  0.3071572906804718  1.0000
  C   C20       1.0  0.6443775036152246  0.8737098002678748  0.1773536240395828  1.0000
  C   C21       1.0  0.7822647410541278  0.862088682172157  0.1397459299083295  1.0000
  C   C22       1.0  0.40523837863759127  0.8532896759216584  0.2881633519538482  1.0000
  C   C23       1.0  0.26267367289830906  0.8322475508005525  0.30815370274297044  1.0000
  C   C24       1.0  0.2087337991485896  0.7610870979879178  0.2074474635276289  1.0000
  C   C25       1.0  0.5894205882038861  0.14627386260411873  0.2864120388645333  1.0000
  C   C26       1.0  0.7323990126345521  0.1674617348592093  0.3038587916309439  1.0000
  C   C27       1.0  0.7843415457106814  0.23726152809069131  0.20152819581508652  1.0000
  C   C28       1.0  0.3612601238776705  0.11627289963749382  0.309536290518608  1.0000
  C   C29       1.0  0.3476384349998582  0.1257081200576664  0.17994949921808975  1.0000
  C   C30       1.0  0.20892744639389346  0.1373392252146317  0.1446644167139866  1.0000
  N   N1        1.0  0.17400808737462367  0.5020359588362026  0.49950627619382704  1.0000
  N   N2        1.0  0.8255880456392646  0.49835947551650145  0.49947135220570976  1.0000
  N   N3        1.0  0.6567521493729912  0.880476494658794  0.6681562153283238  1.0000
  N   N4        1.0  0.3318338891393182  0.8660206233320055  0.6502555838498765  1.0000
  N   N5        1.0  0.6715169582273575  0.1335193186221275  0.647029322259904  1.0000
  N   N6        1.0  0.3479611679851189  0.11942753415708302  0.6715601448130358  1.0000
  O   O1        1.0  0.6079313814109141  0.5018446329282824  0.6637275764887391  1.0000
  O   O2        1.0  0.39200402926528716  0.497932682823965  0.6639537885844788  1.0000
  O   O3        1.0  0.6059620227949978  0.6837592991477949  0.48676961225151427  1.0000
  O   O4        1.0  0.3925116523733791  0.686966919245677  0.49430734461970627  1.0000
  O   O5        1.0  0.6068211316738967  0.3128996274263685  0.4932132037536406  1.0000
  O   O6        1.0  0.39330580808802296  0.316049283224757  0.48725667538896295  1.0000
  O   O7        1.0  0.6080842967537947  0.49593443644605634  0.3224853305642839  1.0000
  O   O8        1.0  0.39197158005297444  0.5042795157192118  0.3228442116981682  1.0000
  O   O9        1.0  0.6127340489764208  0.9338003380244047  0.7508068596289306  1.0000
  O   O10       1.0  0.7294140664309694  0.7919845381101922  0.6711822697479876  1.0000
  O   O11       1.0  0.4030892148609623  0.797759589833298  0.7027459263548862  1.0000
  O   O12       1.0  0.2190490358101016  0.8855387860501196  0.6719593218711353  1.0000
  O   O13       1.0  0.6016106695983082  0.2013889144042337  0.7013501962423591  1.0000
  O   O14       1.0  0.7848745616786488  0.11401479402703531  0.6662712165722483  1.0000
  O   O15       1.0  0.39293774212670485  0.06503629613278862  0.7531984592453966  1.0000
  O   O16       1.0  0.2771055594174285  0.2091957207074486  0.6762004584691468  1.0000
