data_image0
_chemical_formula_structural       Cd2H32C42N4O16
_chemical_formula_sum              "Cd2 H32 C42 N4 O16"
_cell_length_a       8.371968170601612
_cell_length_b       10.112725713593106
_cell_length_c       13.978704217405182
_cell_angle_alpha    99.67652923623746
_cell_angle_beta     101.41747165456273
_cell_angle_gamma    112.7129074668634

_space_group_name_H-M_alt    "P 1"
_space_group_IT_number       1

loop_
  _space_group_symop_operation_xyz
  'x, y, z'

loop_
  _atom_site_type_symbol
  _atom_site_label
  _atom_site_symmetry_multiplicity
  _atom_site_fract_x
  _atom_site_fract_y
  _atom_site_fract_z
  _atom_site_occupancy
  Cd  Cd1       1.0  0.3560940519424776  0.10903821107222456  0.5463468411185772  1.0000
  Cd  Cd2       1.0  0.6439064493792229  0.8909601437420916  0.4536547660623924  1.0000
  H   H1        1.0  0.6539791519947045  0.4369401467886291  0.9900582998211862  1.0000
  H   H2        1.0  0.34602501380273754  0.5630626657299587  0.009941439451971176  1.0000
  H   H3        1.0  0.38780528678167775  0.2695985193470989  0.8416556114022952  1.0000
  H   H4        1.0  0.6121970552855629  0.7304054309401948  0.15834404027336993  1.0000
  H   H5        1.0  0.10942437226570689  0.0897689717293559  0.8695540783290455  1.0000
  H   H6        1.0  0.8905756081948225  0.9102327802480659  0.13044215309771084  1.0000
  H   H7        1.0  0.1007943731757379  0.0857102205771554  0.046677901469301716  1.0000
  H   H8        1.0  0.8992031945795986  0.9142893167907433  0.9533177630359903  1.0000
  H   H9        1.0  0.1991385000729409  0.13746090658757737  0.2924881199419644  1.0000
  H   H10       1.0  0.8008650398392234  0.8625407843836328  0.7075128367458277  1.0000
  H   H11       1.0  0.23811104125914542  0.02834676470061479  0.7174585894208363  1.0000
  H   H12       1.0  0.7618876363323537  0.9716527278824074  0.2825429301626415  1.0000
  H   H13       1.0  0.05550673565967657  0.9930004718259299  0.6403611985369579  1.0000
  H   H14       1.0  0.9444931667395623  0.006999012646424797  0.35963975613794474  1.0000
  H   H15       1.0  0.5753054671212823  0.4264651768131317  0.6970729581103685  1.0000
  H   H16       1.0  0.42469441114229767  0.5735365425649874  0.3029289799712842  1.0000
  H   H17       1.0  0.8210038616349777  0.5687238075641331  0.8615773124677375  1.0000
  H   H18       1.0  0.17899666664953168  0.43127679845559896  0.13842242479253028  1.0000
  H   H19       1.0  0.8707065877597557  0.16182651012086777  0.8733942997489804  1.0000
  H   H20       1.0  0.1292969266031818  0.8381751727005168  0.1266080836025409  1.0000
  H   H21       1.0  0.6233081986152628  0.035211647218858395  0.7080132274614074  1.0000
  H   H22       1.0  0.3766923027064447  0.9647867075954577  0.29198837971956226  1.0000
  H   H23       1.0  0.3497283424203985  0.5805157684309917  0.5388877115263924  1.0000
  H   H24       1.0  0.6502715230685611  0.4194859468722214  0.4611149398871177  1.0000
  H   H25       1.0  0.9372431236584546  0.21726206815383617  0.2905353913960269  1.0000
  H   H26       1.0  0.06276099104051257  0.7827407280651001  0.709467201204582  1.0000
  H   H27       1.0  0.9536648823964528  0.6556912808101386  0.3363269123742043  1.0000
  H   H28       1.0  0.046335645888056776  0.34430932520958624  0.6636728248860635  1.0000
  H   H29       1.0  0.7916335701114077  0.5403074330002795  0.1572461759998234  1.0000
  H   H30       1.0  0.2083663450624513  0.45969205554698794  0.8427540653432217  1.0000
  H   H31       1.0  0.6678712645250044  0.5115658640526348  0.2492724464177059  1.0000
  H   H32       1.0  0.3321250386851559  0.4884314261456024  0.7507263662487204  1.0000
  C   C1        1.0  0.5297060878926132  0.35455214442666266  0.10067601658628429  1.0000
  C   C2        1.0  0.4702938272812389  0.6454473441206049  0.8993242247567537  1.0000
  C   C3        1.0  0.5323965390472267  0.3569558451393817  0.001385915837850888  1.0000
  C   C4        1.0  0.4676040147865237  0.6430447690301762  0.9986123947586947  1.0000
  C   C5        1.0  0.38345617988689895  0.2633110021269616  0.9182344388491616  1.0000
  C   C6        1.0  0.6165485848330122  0.736690680733588  0.08176595293006265  1.0000
  C   C7        1.0  0.22717994171851788  0.1634870283525274  0.9337141315025691  1.0000
  C   C8        1.0  0.772819414270309  0.8365158451331071  0.06628287408184257  1.0000
  C   C9        1.0  0.22222485487674964  0.1599048869292545  0.03232651349431141  1.0000
  C   C10       1.0  0.7777738993624581  0.8400946301032376  0.9676707260979924  1.0000
  C   C11       1.0  0.370960214814275  0.25379673898716953  0.11635401410659087  1.0000
  C   C12       1.0  0.629036101170506  0.7462005552859807  0.8836440852279779  1.0000
  C   C13       1.0  0.6429089828324379  0.37188493427484565  0.7391835193453885  1.0000
  C   C14       1.0  0.35709154403850357  0.6281134286892963  0.2608166611718588  1.0000
  C   C15       1.0  0.7782902622453278  0.4504657266528653  0.8300763200628793  1.0000
  C   C16       1.0  0.2217059785053194  0.5495337862263978  0.16992561600587658  1.0000
  C   C17       1.0  0.8602795280829626  0.37415594344972186  0.8806666597902151  1.0000
  C   C18       1.0  0.1397221866854323  0.6258446422346041  0.11933465255706471  1.0000
  C   C19       1.0  0.807615251289086  0.22328449985652551  0.8365854229849817  1.0000
  C   C20       1.0  0.1923864748403545  0.7767138468471232  0.1634156192874201  1.0000
  C   C21       1.0  0.6701840896672026  0.1527634937710474  0.7453740142590846  1.0000
  C   C22       1.0  0.32981699921591445  0.8472359703659007  0.2546285155028301  1.0000
  C   C23       1.0  0.2532633984031135  0.7968250807437797  0.4899818032554251  1.0000
  C   C24       1.0  0.7467389536115975  0.20317438750724645  0.5100180216023347  1.0000
  C   C25       1.0  0.16130935180383682  0.6329144897926539  0.4403860371819163  1.0000
  C   C26       1.0  0.8386918009523754  0.3670849947188585  0.559612925920689  1.0000
  C   C27       1.0  0.23190919696934736  0.5383752088746974  0.47304285376225863  1.0000
  C   C28       1.0  0.7680919316511989  0.46162651054258674  0.5269570927470966  1.0000
  C   C29       1.0  0.14825948560761046  0.3870192111288944  0.419763077308545  1.0000
  C   C30       1.0  0.8517416302383225  0.6129825042134768  0.5802375825326677  1.0000
  C   C31       1.0  5.7998012436493205e-06  0.33357694249828995  0.33397204849192974  1.0000
  C   C32       1.0  0.9999953032700759  0.6664247687691612  0.6660293246811477  1.0000
  C   C33       1.0  0.927136580119445  0.4283497821734769  0.3031002921260963  1.0000
  C   C34       1.0  0.07286271058271154  0.5716508278820102  0.6969007233746042  1.0000
  C   C35       1.0  0.006138457858050116  0.5782106547237903  0.35722437968330223  1.0000
  C   C36       1.0  0.9938626835371167  0.4217910687683997  0.6427748534941884  1.0000
  C   C37       1.0  0.2151267275141464  0.2825696828452777  0.45636540490676947  1.0000
  C   C38       1.0  0.7848737752211291  0.7174309150246284  0.5436357590172207  1.0000
  C   C39       1.0  0.6981955964921127  0.4561379332157216  0.1855112491541391  1.0000
  C   C40       1.0  0.3018037311203228  0.5438604460089136  0.814488069607954  1.0000
  C   C41       1.0  0.35129112137359897  0.24997224169531052  0.2199830365315023  1.0000
  C   C42       1.0  0.6487081579675121  0.7500306073408538  0.7800182490440761  1.0000
  N   N1        1.0  0.5889095997550912  0.22538957808115603  0.6980954537768157  1.0000
  N   N2        1.0  0.411090888791989  0.7746087726582472  0.30190686673601863  1.0000
  N   N3        1.0  0.9993289490193221  0.44215819388488603  0.9739626644809221  1.0000
  N   N4        1.0  0.0006770277337010954  0.557843476790083  0.026037875721591764  1.0000
  O   O1        1.0  0.16047656318153242  0.8701418777724752  0.474395614366216  1.0000
  O   O2        1.0  0.8395227261070558  0.12985648922742138  0.525605844391464  1.0000
  O   O3        1.0  0.419843193955181  0.8594723555307766  0.5426683442188249  1.0000
  O   O4        1.0  0.5801567354068667  0.1405293801469938  0.4573307405353688  1.0000
  O   O5        1.0  0.3220165473823188  0.32393573369190426  0.5445869447443812  1.0000
  O   O6        1.0  0.6779821671194597  0.6760615280602664  0.4554128781004891  1.0000
  O   O7        1.0  0.16121696723458706  0.14977547058977334  0.398056555327436  1.0000
  O   O8        1.0  0.8387817486807735  0.8502240342179876  0.6019428242604549  1.0000
  O   O9        1.0  0.7807146600022179  0.36354944377155357  0.21898161838223024  1.0000
  O   O10       1.0  0.21928525517164124  0.6364500447757137  0.7810186229608151  1.0000
  O   O11       1.0  0.4448106883706942  0.3525918856499288  0.29696071784419337  1.0000
  O   O12       1.0  0.5551796554572517  0.6474032550199096  0.7030320893078752  1.0000
  O   O13       1.0  0.2146543672699863  0.12426408523936769  0.22088146622195376  1.0000
  O   O14       1.0  0.7853455592649113  0.8757331643272224  0.7791185050462062  1.0000
  O   O15       1.0  0.18140813146604276  0.07221699188149698  0.6730074066189644  1.0000
  O   O16       1.0  0.8185911464614931  0.9277836140990768  0.32699432221359354  1.0000
