data_image0
_chemical_formula_structural       Zn8H32C80N8O26F16
_chemical_formula_sum              "Zn8 H32 C80 N8 O26 F16"
_cell_length_a       23.838516634126382
_cell_length_b       23.840574807849798
_cell_length_c       23.838478286290922
_cell_angle_alpha    67.00013297108269
_cell_angle_beta     72.27227256679559
_cell_angle_gamma    107.74116992706595

_space_group_name_H-M_alt    "P 1"
_space_group_IT_number       1

loop_
  _space_group_symop_operation_xyz
  'x, y, z'

loop_
  _atom_site_type_symbol
  _atom_site_label
  _atom_site_symmetry_multiplicity
  _atom_site_fract_x
  _atom_site_fract_y
  _atom_site_fract_z
  _atom_site_occupancy
  Zn  Zn1       1.0  0.0569503084871316  0.9570486057297599  0.4870852471352124  1.0000
  Zn  Zn2       1.0  0.056950006929014294  0.09990756981717647  0.45598267041172846  1.0000
  Zn  Zn3       1.0  0.9430588977584262  0.9870925850030896  0.4570252707457105  1.0000
  Zn  Zn4       1.0  0.9430662473739063  0.955975240955112  0.5999036644604488  1.0000
  Zn  Zn5       1.0  0.9441330014548583  0.5440313169472757  0.0129170363042591  1.0000
  Zn  Zn6       1.0  0.05589657454829925  0.5129202416400175  0.04403439486490878  1.0000
  Zn  Zn7       1.0  0.9441217826597568  0.4001005624810998  0.04296491069815296  1.0000
  Zn  Zn8       1.0  0.05587665184583569  0.5429623266894764  0.9001012076382723  1.0000
  H   H1        1.0  0.9223327616132552  0.6512217424183291  0.11377851401150006  1.0000
  H   H2        1.0  0.07772722707877475  0.6137877974555648  0.15127503606628073  1.0000
  H   H3        1.0  0.9241331033859556  0.889184118510933  0.347175200361356  1.0000
  H   H4        1.0  0.07576403389865746  0.8470983301852681  0.38932204973902174  1.0000
  H   H5        1.0  0.07770147850131787  0.46390066128911656  0.771086083885379  1.0000
  H   H6        1.0  0.9223179869237369  0.2710549253901746  0.9639198057120241  1.0000
  H   H7        1.0  0.07578351968124512  0.22868723951631154  0.5349434287581758  1.0000
  H   H8        1.0  0.9241458296809526  0.0349555079524677  0.7286616926850655  1.0000
  H   H9        1.0  0.7364130833500937  0.4650859389378963  0.11071589724362965  1.0000
  H   H10       1.0  0.73636242407148  0.27133367065609815  0.152842797505876  1.0000
  H   H11       1.0  0.2650346293259532  0.22894660430343086  0.34874916236943687  1.0000
  H   H12       1.0  0.2650237096006549  0.03610513868645879  0.38619024722812156  1.0000
  H   H13       1.0  0.26363082745628924  0.6107284090924237  0.9650746560100741  1.0000
  H   H14       1.0  0.26361531582567455  0.652828293288344  0.7713356117239629  1.0000
  H   H15       1.0  0.7349951520165519  0.8487817697825475  0.728909642782213  1.0000
  H   H16       1.0  0.7349678391940911  0.8862282222303078  0.5360646141343892  1.0000
  H   H17       1.0  0.9164333340425729  0.8419554671089454  0.7498838434885827  1.0000
  H   H18       1.0  0.9090702582462669  0.8027348350456618  0.8314196711355278  1.0000
  H   H19       1.0  0.09183721780531336  0.6663060279195036  0.7501200764958897  1.0000
  H   H20       1.0  0.13416271000593136  0.7404809997062358  0.6685938954971675  1.0000
  H   H21       1.0  0.9081666659026053  0.6580539579193423  0.9255256226406915  1.0000
  H   H22       1.0  0.8658488708033687  0.6972684918398213  0.8936653987780474  1.0000
  H   H23       1.0  0.08359907783656706  0.8337085791645436  0.5744727540076866  1.0000
  H   H24       1.0  0.09095800419216013  0.7595375238719981  0.6063222736937349  1.0000
  H   H25       1.0  0.9164122805963613  0.07448042425202296  0.3336784467438251  1.0000
  H   H26       1.0  0.9090547749033105  0.10633891304233568  0.2595015944589677  1.0000
  H   H27       1.0  0.09184183749948016  0.4255286099821021  0.1580817837953035  1.0000
  H   H28       1.0  0.1341549492490088  0.39367085448108696  0.19730972762477708  1.0000
  H   H29       1.0  0.9081660624918657  0.25012379434730264  0.16629027757124246  1.0000
  H   H30       1.0  0.8658444388138593  0.1685948986451747  0.24045793146085978  1.0000
  H   H31       1.0  0.08358148293242348  0.24988073056803017  0.3419758316676464  1.0000
  H   H32       1.0  0.09093696703052252  0.3314077768616385  0.3027741439403044  1.0000
  C   C1        1.0  0.18202665221945574  0.09102342291219392  0.4089771654867391  1.0000
  C   C2        1.0  1.3694217670847692e-06  0.13947999436720684  0.360521457657569  1.0000
  C   C3        1.0  0.9999819007987085  0.9096086962621611  0.4096349450348599  1.0000
  C   C4        1.0  0.8179829103661548  0.9090011624789582  0.5909891835457091  1.0000
  C   C5        1.0  1.0845670402658231e-05  0.8605287565982421  0.6394759153596183  1.0000
  C   C6        1.0  0.9999905393415957  0.09038914006823244  0.5903787535720468  1.0000
  C   C7        1.0  2.7759598651868606e-05  0.5909918415781448  0.0910354184422388  1.0000
  C   C8        1.0  6.170433451329924e-06  0.36052321807348153  0.13947997825679445  1.0000
  C   C9        1.0  0.8192424153653449  0.4096266295045509  0.09037430687983065  1.0000
  C   C10       1.0  2.940484471088619e-06  0.40897877373001285  0.9090065756631701  1.0000
  C   C11       1.0  1.5997199638324417e-07  0.6394781098222707  0.8605258732423593  1.0000
  C   C12       1.0  0.1807672105496395  0.5903705387999452  0.9096321649437227  1.0000
  C   C13       1.0  9.260984064979082e-06  0.8045791745669816  0.6954262304223207  1.0000
  C   C14       1.0  2.86859772550986e-06  0.695428291313078  0.8045741426143351  1.0000
  C   C15       1.0  0.9568267842339819  0.7774338852947548  0.7668342397403481  1.0000
  C   C16       1.0  0.044270579372280815  0.723656554917845  0.733166291387434  1.0000
  C   C17       1.0  0.9557410991274152  0.7225749387375656  0.8206090365348262  1.0000
  C   C18       1.0  0.04319435039915465  0.7763541269953007  0.6793917891479495  1.0000
  C   C19       1.0  0.9999973472578106  0.1954290280899967  0.30457891665169967  1.0000
  C   C20       1.0  2.0515436745007227e-06  0.30457371140068545  0.19543271038734386  1.0000
  C   C21       1.0  0.9568151751615448  0.17939538051048498  0.27634193688574266  1.0000
  C   C22       1.0  0.044267808472618256  0.32060932237875756  0.22258849502988912  1.0000
  C   C23       1.0  0.9557351611670767  0.23316922253172126  0.22365021764106532  1.0000
  C   C24       1.0  0.04318120422947666  0.26683472129374763  0.2774474843879418  1.0000
  C   C25       1.0  2.665084390699925e-05  0.6285720608028313  0.12860168589375584  1.0000
  C   C26       1.0  0.9562620837470277  0.6565682403300811  0.13551028943336277  1.0000
  C   C27       1.0  0.9571021810391047  0.6911966188540151  0.17038922660441344  1.0000
  C   C28       1.0  8.252605674270227e-06  0.6996744327211103  0.19971778121534114  1.0000
  C   C29       1.0  0.042938467382093476  0.6703854604867131  0.1912326256884781  1.0000
  C   C30       1.0  0.043788935301286455  0.6355034453004222  0.1566071475212852  1.0000
  C   C31       1.0  0.9999703674912799  0.734951777823632  0.23506684635725592  1.0000
  C   C32       1.0  0.9999283412758402  0.7655641417952095  0.2657752941905188  1.0000
  C   C33       1.0  0.9999109845136261  0.8008636709972092  0.3010972616152827  1.0000
  C   C34       1.0  0.957884789502117  0.8312997695369545  0.30844741483851823  1.0000
  C   C35       1.0  0.9572314467819608  0.8664178141967935  0.3428334794473002  1.0000
  C   C36       1.0  0.9999513863979458  0.8720204294367021  0.37212296329424543  1.0000
  C   C37       1.0  0.04264597705824971  0.8427065769269361  0.36657287634759694  1.0000
  C   C38       1.0  0.04194424715620246  0.8082483902196957  0.3315301112541745  1.0000
  C   C39       1.0  8.170742809517952e-06  0.3714042154747545  0.871432218270968  1.0000
  C   C40       1.0  0.04377306722049921  0.40824769458865257  0.7996742644452581  1.0000
  C   C41       1.0  0.04291632187742774  0.3725280734726083  0.7658883638587709  1.0000
  C   C42       1.0  0.9999959950661435  0.3003091084390731  0.8003179118913906  1.0000
  C   C43       1.0  0.9570882838982229  0.2658686373400626  0.8725382859338211  1.0000
  C   C44       1.0  0.9562482498364274  0.29964539530916295  0.90826751849594  1.0000
  C   C45       1.0  0.9999675355085458  0.2649996768302642  0.7649935994509464  1.0000
  C   C46       1.0  0.999945275396186  0.23434761501301432  0.7343290667386881  1.0000
  C   C47       1.0  0.9999332333328752  0.1990363998554157  0.69901180158206  1.0000
  C   C48       1.0  0.04196542456625007  0.2336967055672474  0.6265582467273418  1.0000
  C   C49       1.0  0.042666320727455756  0.19995460610756763  0.5908005452979666  1.0000
  C   C50       1.0  0.9999661784918175  0.1279486597979938  0.6279266519675061  1.0000
  C   C51       1.0  0.9572457609789208  0.09081867566894167  0.6999271559655328  1.0000
  C   C52       1.0  0.9579052574745717  0.12658091293734222  0.7336680445952908  1.0000
  C   C53       1.0  0.7441399173608759  0.37208618707328595  0.12789582265810398  1.0000
  C   C54       1.0  0.7092760843618464  0.40922831175262075  0.13345125742360875  1.0000
  C   C55       1.0  0.6397747051530089  0.3734922855346881  0.16848513035935048  1.0000
  C   C56       1.0  0.6019636342329518  0.30104142624782776  0.19888955984058757  1.0000
  C   C57       1.0  0.6397489591637324  0.266363486321957  0.19155182310082364  1.0000
  C   C58       1.0  0.709251721552661  0.3000860000263897  0.15718319204249553  1.0000
  C   C59       1.0  0.5313417759592555  0.2657307531500733  0.23419385511314772  1.0000
  C   C60       1.0  0.47001653031685453  0.23503959578378184  0.2649041364203768  1.0000
  C   C61       1.0  0.3993893155964799  0.19970966160779827  0.30026335256345493  1.0000
  C   C62       1.0  0.36160109365018667  0.23413853819961616  0.30876202626779997  1.0000
  C   C63       1.0  0.2920945823595389  0.20035576276763573  0.34340382211432535  1.0000
  C   C64       1.0  0.2571716628488688  0.1285963399619305  0.37140230176670747  1.0000
  C   C65       1.0  0.2920902269957608  0.09175867803894988  0.3644680479967305  1.0000
  C   C66       1.0  0.3615982850004258  0.12748462085711754  0.3295858712450794  1.0000
  C   C67       1.0  0.2558743117669239  0.6278952108388721  0.8720848292845602  1.0000
  C   C68       1.0  0.29075831201955543  0.6334594067282211  0.9092180805361351  1.0000
  C   C69       1.0  0.36025828621473716  0.6684887664485187  0.8734715851163132  1.0000
  C   C70       1.0  0.39804754648210405  0.6988940377287631  0.8010190437782896  1.0000
  C   C71       1.0  0.3602443363098973  0.6915418861238932  0.7663517252290717  1.0000
  C   C72       1.0  0.2907412358108558  0.6571722845616603  0.8000829898187123  1.0000
  C   C73       1.0  0.4686724448521816  0.7341983525186747  0.7657045800091922  1.0000
  C   C74       1.0  0.5299911707441964  0.7649121835283168  0.7350091769728095  1.0000
  C   C75       1.0  0.6006219829130188  0.800280656531463  0.6996727327046487  1.0000
  C   C76       1.0  0.6384206435458281  0.8087848523466827  0.7341020854511059  1.0000
  C   C77       1.0  0.7079276359849092  0.8434367089510814  0.7003174150055498  1.0000
  C   C78       1.0  0.7428371951569874  0.8714337720452222  0.6285583130676855  1.0000
  C   C79       1.0  0.7079103162745426  0.8645041929787068  0.5917189091212977  1.0000
  C   C80       1.0  0.6384028443162609  0.8296083563977562  0.6274449750415059  1.0000
  N   N1        1.0  0.9120942145486169  0.800002494067975  0.7891042353937933  1.0000
  N   N2        1.0  0.08911046134997487  0.7011957831265645  0.7108981199124714  1.0000
  N   N3        1.0  0.910898324006894  0.7000046733326142  0.8879091533279179  1.0000
  N   N4        1.0  0.08793060693816547  0.7988194322816823  0.612090154485898  1.0000
  N   N5        1.0  0.9120792164930052  0.11209713389447266  0.29879283780218907  1.0000
  N   N6        1.0  0.08910608335968817  0.38790913182322834  0.20003546860104396  1.0000
  N   N7        1.0  0.9108936536628744  0.21090371157675478  0.20117732831845114  1.0000
  N   N8        1.0  0.08791382895535803  0.28910148960849813  0.3000284164085442  1.0000
  O   O1        1.0  3.9965310989001094e-06  3.5320269091994296e-06  0.49999988285377117  1.0000
  O   O2        1.0  0.15307398782604756  0.026314532474806567  0.43096092860794494  1.0000
  O   O3        1.0  0.043693686525429605  0.15558707351064527  0.38063553329293137  1.0000
  O   O4        1.0  0.9624292952846077  0.9380280694430565  0.4100890492249791  1.0000
  O   O5        1.0  0.1530795892839905  0.12678295233736483  0.4159484261317985  1.0000
  O   O6        1.0  0.03756623521570661  0.9101036407531495  0.4380254534788506  1.0000
  O   O7        1.0  0.9563085675399277  0.07568760371539424  0.3880915607657797  1.0000
  O   O8        1.0  0.8469281871558321  0.9309955761781405  0.5262757928450913  1.0000
  O   O9        1.0  0.9563211749952032  0.8806357959248526  0.6555867419578976  1.0000
  O   O10       1.0  0.8469395650178623  0.9159583315560408  0.6267539788445406  1.0000
  O   O11       1.0  0.04370135703765517  0.8881096481947636  0.5756801615705458  1.0000
  O   O12       1.0  0.03756963678617351  0.12747701942446096  0.524412738759203  1.0000
  O   O13       1.0  0.9624462871024874  0.024416289687188477  0.6274701332620722  1.0000
  O   O14       1.0  9.670593506413468e-06  0.5000068555306568  4.005234920687452e-06  1.0000
  O   O15       1.0  0.9573036078752821  0.5840279581167421  0.06903821568129605  1.0000
  O   O16       1.0  0.0362330231679166  0.42431593324851474  0.11937992292609327  1.0000
  O   O17       1.0  0.8481191093137995  0.37253450877080485  0.08990836283543763  1.0000
  O   O18       1.0  0.042748889489111236  0.5690005998081772  0.08408711321368406  1.0000
  O   O19       1.0  0.8481256379464882  0.47559312025633443  0.06198228574484702  1.0000
  O   O20       1.0  0.9637887744829002  0.3444161049358172  0.11189047183101046  1.0000
  O   O21       1.0  0.9572772629917522  0.3732163897175194  0.9737159914784429  1.0000
  O   O22       1.0  0.03621459837683718  0.6118978154021447  0.8444152501192264  1.0000
  O   O23       1.0  0.042724458295801154  0.4736924171687633  0.8732459161446826  1.0000
  O   O24       1.0  0.9637801456673074  0.6193685256490867  0.9243219173103012  1.0000
  O   O25       1.0  0.15189574904735537  0.5619846653726839  0.9755985583424193  1.0000
  O   O26       1.0  0.1518836738122432  0.5899114609817318  0.872535849804791  1.0000
  F   F1        1.0  0.08486491617809121  0.6772628703566211  0.218634481046422  1.0000
  F   F2        1.0  0.9151700112875574  0.7185836760589408  0.1772411152895971  1.0000
  F   F3        1.0  0.08315830741504718  0.7799594305972233  0.3256126116267098  1.0000
  F   F4        1.0  0.916662636048308  0.8253402663510058  0.28016402290810305  1.0000
  F   F5        1.0  0.9151570888042997  0.19654964251041201  0.9075913087390004  1.0000
  F   F6        1.0  0.08483913482486122  0.40758928329188376  0.69656772716651  1.0000
  F   F7        1.0  0.9166893024195417  0.09130718147451944  0.803166969699511  1.0000
  F   F8        1.0  0.08318316769772592  0.3031949769189382  0.5912899874561575  1.0000
  F   F9        1.0  0.6055065322768344  0.1968647680711442  0.21983406981866685  1.0000
  F   F10       1.0  0.6055617463557822  0.4087843917105186  0.1744105420897882  1.0000
  F   F11       1.0  0.39585499923889245  0.09242368069492807  0.3227143968359627  1.0000
  F   F12       1.0  0.3958658596314564  0.3034569279902967  0.2813677707956613  1.0000
  F   F13       1.0  0.39446895283558103  0.7198154860872207  0.696852067579556  1.0000
  F   F14       1.0  0.39448779938187084  0.6744241397626923  0.9087538083185294  1.0000
  F   F15       1.0  0.6041318287561098  0.8227356630741622  0.592388169072784  1.0000
  F   F16       1.0  0.6041667177021707  0.7813898605460066  0.8034221439346039  1.0000
