data_image0
_chemical_formula_structural       Zn2H33C40N5O8
_chemical_formula_sum              "Zn2 H33 C40 N5 O8"
_cell_length_a       9.592565697539673
_cell_length_b       11.005255937006762
_cell_length_c       14.114348152016126
_cell_angle_alpha    90.57618217130063
_cell_angle_beta     80.2075046544478
_cell_angle_gamma    88.29175544955595

_space_group_name_H-M_alt    "P 1"
_space_group_IT_number       1

loop_
  _space_group_symop_operation_xyz
  'x, y, z'

loop_
  _atom_site_type_symbol
  _atom_site_label
  _atom_site_symmetry_multiplicity
  _atom_site_fract_x
  _atom_site_fract_y
  _atom_site_fract_z
  _atom_site_occupancy
  Zn  Zn1       1.0  0.8700695847646852  0.5027916797043589  0.4802045453284763  1.0000
  Zn  Zn2       1.0  0.13934228115866892  0.4965303805681955  0.5202733581565583  1.0000
  H   H1        1.0  0.006383501927217599  0.4927407067733541  0.009837228829646001  1.0000
  H   H2        1.0  0.18023151605516574  0.8922857899953341  0.5878047382317533  1.0000
  H   H3        1.0  0.6677052982943864  0.8971593646099334  0.49247010515349393  1.0000
  H   H4        1.0  0.7821243020788913  0.0960489254861301  0.3526576617118025  1.0000
  H   H5        1.0  0.6759109547762064  0.11960586463000311  0.4692564894669857  1.0000
  H   H6        1.0  0.3542373219320254  0.6336071660303304  0.6142731661666403  1.0000
  H   H7        1.0  0.62065622613688  0.6487850673278004  0.5875150279775596  1.0000
  H   H8        1.0  0.6617123183865345  0.3865085020468443  0.2760605752213863  1.0000
  H   H9        1.0  0.6730988695947316  0.2695752923351549  0.3621751706858448  1.0000
  H   H10       1.0  0.3965709619908467  0.3715294442881715  0.30200213774251955  1.0000
  H   H11       1.0  0.40548135461870777  0.253060505002118  0.3864386535887335  1.0000
  H   H12       1.0  0.8181967425185093  0.5442020665823009  0.14346389076455074  1.0000
  H   H13       1.0  0.946319894409598  0.6884246379476836  0.1912718479948268  1.0000
  H   H14       1.0  0.3445775723564353  0.5407813461695667  0.23803859892496604  1.0000
  H   H15       1.0  0.5133374922604617  0.6660538878095678  0.8330858539812811  1.0000
  H   H16       1.0  0.35188591652181606  0.7979403140745234  0.8055142905628969  1.0000
  H   H17       1.0  0.18714449978144637  0.7291128972985279  0.8369864639541262  1.0000
  H   H18       1.0  0.2233502452438145  0.8652832201781351  0.8976110662945801  1.0000
  H   H19       1.0  0.18537876363871664  0.2103367591980217  0.6260420639623732  1.0000
  H   H20       1.0  0.27452191288644917  0.06562745889322488  0.6281020531464067  1.0000
  H   H21       1.0  0.3064018764672483  0.1590891968690613  0.5247920978482767  1.0000
  H   H22       1.0  0.8594427292173777  0.8776054783747679  0.29369681444831747  1.0000
  H   H23       1.0  0.7872863602086468  0.7526176027764817  0.36158083290577997  1.0000
  H   H24       1.0  0.6724976063799275  0.8612730930215803  0.31663421034964045  1.0000
  H   H25       1.0  0.5259705816680977  0.4550247059322886  0.8207941826106833  1.0000
  H   H26       1.0  0.6049389080920091  0.542373033773849  0.7219644578653899  1.0000
  H   H27       1.0  0.6609905702520534  0.3908277036108885  0.729747584542537  1.0000
  H   H28       1.0  0.15808764345439394  0.4533816571280057  0.7602194303786691  1.0000
  H   H29       1.0  0.1899016280390171  0.46685320184143814  0.879183326133358  1.0000
  H   H30       1.0  0.9230160919622251  0.7556658647839284  0.045433511389610715  1.0000
  H   H31       1.0  0.049833484229985535  0.7622156683558501  0.9484888833044709  1.0000
  H   H32       1.0  0.48261003581608014  0.6676812988291304  0.2512098685174849  1.0000
  H   H33       1.0  0.6522592140182509  0.6325732068872654  0.2612231633392384  1.0000
  C   C1        1.0  0.006454505572861512  0.2642826225200423  0.48356457452466384  1.0000
  C   C2        1.0  0.35049632241808126  0.6271694258773195  0.1000478826119107  1.0000
  C   C3        1.0  0.26485845620512544  0.682033203341973  0.0359746994271219  1.0000
  C   C4        1.0  0.5001064172408006  0.5994255566394813  0.06804560751756841  1.0000
  C   C5        1.0  0.5509644748799332  0.5923264079476241  0.9678652114998344  1.0000
  C   C6        1.0  0.4656573115493075  0.6516267476893773  0.9075935083419397  1.0000
  C   C7        1.0  0.3328192887252612  0.703069181342954  0.9385902539622892  1.0000
  C   C8        1.0  0.6024149504401065  0.5854214726177247  0.13211791139164575  1.0000
  C   C9        1.0  0.7413988943658438  0.552460640244675  0.0947559088437657  1.0000
  C   C10       1.0  0.7894615607879699  0.5306210486798763  0.9950679380089371  1.0000
  C   C11       1.0  0.6914311307411224  0.5437483397085074  0.929608643560009  1.0000
  C   C12       1.0  0.07679857587977779  0.5622707097893738  0.3193404335412424  1.0000
  C   C13       1.0  0.9320055674332224  0.5007710036000504  0.9595042593268703  1.0000
  C   C14       1.0  0.983031534411019  0.48971249470322675  0.8610655584352928  1.0000
  C   C15       1.0  0.7367283753137317  0.5070503938956463  0.8319475430193038  1.0000
  C   C16       1.0  0.8979799191659552  0.06059169958406592  0.4734425648497052  1.0000
  C   C17       1.0  0.004293598756944997  0.13045664444920393  0.5004135942782  1.0000
  C   C18       1.0  0.1074639252063321  0.066607256969462  0.5445160041624179  1.0000
  C   C19       1.0  0.09999025966340722  0.940078139440203  0.5547190057843566  1.0000
  C   C20       1.0  0.9949518527032525  0.870287829139336  0.5243221587886993  1.0000
  C   C21       1.0  0.8929089587780935  0.9349885078556995  0.48428691579456995  1.0000
  C   C22       1.0  0.759643397865709  0.9242344924693173  0.4398614027024835  1.0000
  C   C23       1.0  0.9959535424775937  0.7352142522156624  0.5303522621616708  1.0000
  C   C24       1.0  0.7656918113089545  0.0670721603027573  0.427988418470605  1.0000
  C   C25       1.0  0.44244027317347445  0.4360992049497981  0.4412336105640407  1.0000
  C   C26       1.0  0.42230023633799624  0.577541942191246  0.5601206901853502  1.0000
  C   C27       1.0  0.5689297723656351  0.5862992930395522  0.5453247388498924  1.0000
  C   C28       1.0  0.5893441051812474  0.44490458099079433  0.4265932624574873  1.0000
  C   C29       1.0  0.6141662699992595  0.3514153423451134  0.346245576690187  1.0000
  C   C30       1.0  0.44671382246902885  0.341487956184011  0.362375338938243  1.0000
  C   C31       1.0  0.9331555798254882  0.47441240897656184  0.6895925062805759  1.0000
  C   C32       1.0  0.14060137219092184  0.6098946859693085  0.22333530792528225  1.0000
  C   C33       1.0  0.8828160481907618  0.4886244887292505  0.7951856708661184  1.0000
  C   C34       1.0  0.11727560465977398  0.7081323588755666  0.07273083578382261  1.0000
  C   C35       1.0  0.05863166034771439  0.6708231814619692  0.16494465835987882  1.0000
  C   C36       1.0  0.2849020049769564  0.5915710148967577  0.19211797406965306  1.0000
  C   C37       1.0  0.269129699539512  0.7780791101031992  0.8667196268221391  1.0000
  C   C38       1.0  0.22454915322317254  0.12875084158249447  0.5831841703974092  1.0000
  C   C39       1.0  0.7698814098811155  0.8493661609626666  0.3475137675750731  1.0000
  C   C40       1.0  0.6257637992286647  0.47262990423966755  0.773066690244498  1.0000
  N   N1        1.0  0.3558808475663753  0.4992030675927738  0.5087625764041164  1.0000
  N   N2        1.0  0.6563163833433165  0.5168586976434996  0.47864650137094605  1.0000
  N   N3        1.0  0.12634841121128912  0.48130958222758824  0.8298041053634864  1.0000
  N   N4        1.0  0.027131688943228503  0.769643271433729  0.020963935317389805  1.0000
  N   N5        1.0  0.5675864514865908  0.6102796659748365  0.23068420850835036  1.0000
  O   O1        1.0  0.8895921881719815  0.31743613661591036  0.4729247500990825  1.0000
  O   O2        1.0  0.1232861645413337  0.3171552278088329  0.4807548884079225  1.0000
  O   O3        1.0  0.9449451541454222  0.5403180804565011  0.3363613326783935  1.0000
  O   O4        1.0  0.1618879839461869  0.5470459605882212  0.3787296797949225  1.0000
  O   O5        1.0  0.8891264791302049  0.684779045037807  0.5057942047686268  1.0000
  O   O6        1.0  0.1019113207491031  0.6798862543861192  0.555928295200232  1.0000
  O   O7        1.0  0.8460644974386042  0.4909621287254708  0.6319247677718565  1.0000
  O   O8        1.0  0.06652277774778531  0.45054215712394097  0.659048500749222  1.0000
