data_image0
_chemical_formula_structural       Zn2H48C52S2N8O12
_chemical_formula_sum              "Zn2 H48 C52 S2 N8 O12"
_cell_length_a       9.764745785649666
_cell_length_b       11.63513910666561
_cell_length_c       12.0667
_cell_angle_alpha    92.14257257718336
_cell_angle_beta     96.63548876743049
_cell_angle_gamma    103.79380844398307

_space_group_name_H-M_alt    "P 1"
_space_group_IT_number       1

loop_
  _space_group_symop_operation_xyz
  'x, y, z'

loop_
  _atom_site_type_symbol
  _atom_site_label
  _atom_site_symmetry_multiplicity
  _atom_site_fract_x
  _atom_site_fract_y
  _atom_site_fract_z
  _atom_site_occupancy
  Zn  Zn1       1.0  0.9914370187546381  0.6776426420269814  0.8149443119632951  1.0000
  Zn  Zn2       1.0  0.008566840648022418  0.3223546006433295  0.18505462356145594  1.0000
  H   H1        1.0  0.5438374794328027  0.6500888591845353  0.9217788073587061  1.0000
  H   H2        1.0  0.4561676801367868  0.3499128184881712  0.0782320117986686  1.0000
  H   H3        1.0  0.6256298853244857  0.4130122584780551  0.923235108121645  1.0000
  H   H4        1.0  0.3743832713345157  0.5869920801960831  0.07677158239704342  1.0000
  H   H5        1.0  0.5576275058711957  0.47746614819755  0.8056028847691367  1.0000
  H   H6        1.0  0.44238177769225473  0.5225355294751566  0.19440749129006465  1.0000
  H   H7        1.0  0.3304062405494578  0.4638400468575555  0.8795178644371974  1.0000
  H   H8        1.0  0.6696066560761551  0.5361634048161079  0.12049042724452622  1.0000
  H   H9        1.0  0.3655874122556996  0.3224468486930263  0.8778008357914758  1.0000
  H   H10       1.0  0.6344203293775976  0.677556602980637  0.1222078025812294  1.0000
  H   H11       1.0  0.1401460043675939  0.0424704698776424  0.6385023860825285  1.0000
  H   H12       1.0  0.8598431610231786  0.9575258857921938  0.3615009445393653  1.0000
  H   H13       1.0  0.9834138563190393  0.8247277222575634  0.4843401096782643  1.0000
  H   H14       1.0  0.016580213165760003  0.1752712944137045  0.5156604605373191  1.0000
  H   H15       1.0  0.16816282788415296  0.8677445844295378  0.5211241294615904  1.0000
  H   H16       1.0  0.8318325234974041  0.1322517712402984  0.47887729342255625  1.0000
  H   H17       1.0  0.17855006456373704  0.0588427246969161  0.42884395999210073  1.0000
  H   H18       1.0  0.8214409119256629  0.9411562919743517  0.5711530060939013  1.0000
  H   H19       1.0  0.0986917140120696  0.9366733915595447  0.3325271295280744  1.0000
  H   H20       1.0  0.9013020954393339  0.0633247381112483  0.667471726942573  1.0000
  H   H21       1.0  0.07304277583462244  0.8441672247290768  0.04173922973464529  1.0000
  H   H22       1.0  0.9269567178109597  0.1558362269445794  0.9582562064755324  1.0000
  H   H23       1.0  0.32228428711373885  0.6795709810657229  0.8555276547738517  1.0000
  H   H24       1.0  0.6777170084953853  0.3204315836074585  0.14447206159475462  1.0000
  H   H25       1.0  0.5038018883010907  0.8421510726430341  0.013649173870149417  1.0000
  H   H26       1.0  0.49619658348111534  0.1578559270325357  0.9863504383243724  1.0000
  H   H27       1.0  0.18097727119695864  0.0484231300841742  0.09506639472517263  1.0000
  H   H28       1.0  0.8190160455929317  0.9515838695913956  0.9049335641603239  1.0000
  H   H29       1.0  0.2776429139038186  0.216704860732797  0.23354280123512447  1.0000
  H   H30       1.0  0.7223661187613359  0.7832994779413411  0.7664568738388128  1.0000
  H   H31       1.0  0.6324895158982146  0.0694956004353173  0.34480872065969953  1.0000
  H   H32       1.0  0.36751538363798636  0.9305051902369074  0.6551854676668826  1.0000
  H   H33       1.0  0.5330816799149788  0.8958899965906754  0.20575916828065746  1.0000
  H   H34       1.0  0.4669136806016709  0.10410990708107451  0.7942349248171325  1.0000
  H   H35       1.0  0.34529220899825924  0.4312649543102722  0.3396988968513597  1.0000
  H   H36       1.0  0.6547067645805527  0.5687367233624343  0.6602989129579058  1.0000
  H   H37       1.0  0.1726418059568218  0.4810514041288272  0.45694043357512026  1.0000
  H   H38       1.0  0.8273581803502807  0.5189431775400521  0.5430580438551829  1.0000
  H   H39       1.0  0.2933900116110166  0.2561027609553364  0.7076986127193197  1.0000
  H   H40       1.0  0.7066089436976244  0.743891820713543  0.292297282122803  1.0000
  H   H41       1.0  0.46608590077845957  0.2045618241916856  0.5888458759591941  1.0000
  H   H42       1.0  0.5339081595712472  0.7954336444776757  0.4111471069568752  1.0000
  H   H43       1.0  0.1471726679200742  0.5880183397488992  0.616702599534392  1.0000
  H   H44       1.0  0.85282834938549  0.4119762419199873  0.38329183066814926  1.0000
  H   H45       1.0  0.9398031253846852  0.3978622903171996  0.8658104674526401  1.0000
  H   H46       1.0  0.060195829923955606  0.6021322913516869  0.13418376993549694  1.0000
  H   H47       1.0  0.0729665836020601  0.2508659101343937  0.7552857268892553  1.0000
  H   H48       1.0  0.927029538744577  0.7491295585349677  0.24470662011423633  1.0000
  C   C1        1.0  0.7611751397124706  0.6529272607135042  0.9381093254982675  1.0000
  C   C2        1.0  0.23883132002406177  0.3470788519615908  0.06189680275188182  1.0000
  C   C3        1.0  0.6100683278424555  0.5922351400203709  0.9575752467149885  1.0000
  C   C4        1.0  0.3899404447893033  0.4077683116532924  0.04243514551889402  1.0000
  C   C5        1.0  0.5543004765436165  0.4696587699919377  0.8955562122781802  1.0000
  C   C6        1.0  0.44570958711999253  0.5303455686822005  0.10445433265385873  1.0000
  C   C7        1.0  0.403251950952793  0.4127842993552591  0.9175718298997922  1.0000
  C   C8        1.0  0.596757592644046  0.5872182653179223  0.08243694499636692  1.0000
  C   C9        1.0  0.03278891443884648  0.88898735887242  0.7118086312664859  1.0000
  C   C10       1.0  0.9671994799868527  0.111009883797891  0.28819051560419245  1.0000
  C   C11       1.0  0.048385026891558956  0.9663479925444137  0.612532866476478  1.0000
  C   C12       1.0  0.9516036184324436  0.0336465891244657  0.38746537920157925  1.0000
  C   C13       1.0  0.07307094380988845  0.9027589282907799  0.5060881256674464  1.0000
  C   C14       1.0  0.9269223547098306  0.09724097538097  0.49391157570488536  1.0000
  C   C15       1.0  0.08413515892948455  0.9837677949279708  0.40934855042500135  1.0000
  C   C16       1.0  0.9158573686251544  0.0162329957442537  0.5906552544660358  1.0000
  C   C17       1.0  0.16521256379220972  0.8206696950716222  0.013882199571320092  1.0000
  C   C18       1.0  0.8347848587213633  0.1793302086001276  0.9861195448838062  1.0000
  C   C19       1.0  0.29804511452134363  0.7367780768815707  0.9196226198790073  1.0000
  C   C20       1.0  0.7019579830513223  0.2632236007911288  0.08037889046704551  1.0000
  C   C21       1.0  0.38890379421091137  0.8166169898885444  0.9970190025491236  1.0000
  C   C22       1.0  0.6110951793679007  0.1833846877841623  0.0029821221681132055  1.0000
  C   C23       1.0  0.35303166287145876  0.9626412175476774  0.1413073085657501  1.0000
  C   C24       1.0  0.6469606046497915  0.0373586861240724  0.8586898102184012  1.0000
  C   C25       1.0  0.2786763862154515  0.0509856744645418  0.14982639628899364  1.0000
  C   C26       1.0  0.7213215563648917  0.9490160032081576  0.8501738032940482  1.0000
  C   C27       1.0  0.33350116236121613  0.1464446658856104  0.22797660110310866  1.0000
  C   C28       1.0  0.6664993531477493  0.8535552377861393  0.77202294639266  1.0000
  C   C29       1.0  0.46153761954919054  0.152693584251729  0.2957686982049879  1.0000
  C   C30       1.0  0.538464437889928  0.847304545419064  0.7042292720693127  1.0000
  C   C31       1.0  0.5335473913623545  0.0627739108145349  0.29023420969533487  1.0000
  C   C32       1.0  0.4664492510510598  0.9372233318557761  0.7097615647980151  1.0000
  C   C33       1.0  0.47833518281500886  0.9667808487775816  0.21238603667205075  1.0000
  C   C34       1.0  0.5216601777016407  0.0332190548941682  0.7876113713337107  1.0000
  C   C35       1.0  0.41590031376033204  0.3162085743326415  0.4587928590759348  1.0000
  C   C36       1.0  0.5841007126803248  0.6837895553381514  0.5412016998831889  1.0000
  C   C37       1.0  0.3344484233092615  0.3939240081957536  0.4206084608035213  1.0000
  C   C38       1.0  0.6655523430980068  0.6060732344745574  0.5793868705916482  1.0000
  C   C39       1.0  0.2373634995457508  0.4213837689875533  0.4864408779769463  1.0000
  C   C40       1.0  0.7626398489252183  0.5786152476837145  0.5135572449955035  1.0000
  C   C41       1.0  0.22367290216103441  0.3720425934088567  0.589683623385156  1.0000
  C   C42       1.0  0.7763273533145423  0.6279564232624182  0.4103117241847017  1.0000
  C   C43       1.0  0.3038099124887097  0.2924866335543044  0.626464634683373  1.0000
  C   C44       1.0  0.6961843987592999  0.7075061741136253  0.37352827576706465  1.0000
  C   C45       1.0  0.400337847902108  0.2641292282789678  0.5606430786236345  1.0000
  C   C46       1.0  0.5996600855431495  0.7358689013918251  0.43935201984086814  1.0000
  C   C47       1.0  0.1044828999798071  0.5160453469790767  0.6672237533896637  1.0000
  C   C48       1.0  0.89551864652762  0.4839545566926731  0.3327775479672965  1.0000
  C   C49       1.0  0.0013524962973079317  0.414480244268816  0.7963214876517668  1.0000
  C   C50       1.0  0.9986467190447216  0.5855152244005382  0.20367612093528467  1.0000
  C   C51       1.0  0.06631486150828181  0.340971853671924  0.7421736200742899  1.0000
  C   C52       1.0  0.9336874468291398  0.6590236149974373  0.2578251064613682  1.0000
  S   S1        1.0  0.5453582929910327  0.2859308130228655  0.3783252889682843  1.0000
  S   S2        1.0  0.4546422225179326  0.7140690906488844  0.6216717723465096  1.0000
  N   N1        1.0  0.15971548947976544  0.7396634894358627  0.9318854828016967  1.0000
  N   N2        1.0  0.8402852769275029  0.2603337532344483  0.06811482095542938  1.0000
  N   N3        1.0  0.3034394435222296  0.8693775523091745  0.056421132595744404  1.0000
  N   N4        1.0  0.6965561770278014  0.1306232383630572  0.9435771604279567  1.0000
  N   N5        1.0  0.1312686817556568  0.4059978586995996  0.6598425697928506  1.0000
  N   N6        1.0  0.8687349267487007  0.5940020449721501  0.34015478074355343  1.0000
  N   N7        1.0  0.026846096674717025  0.5231369157991068  0.7492664062480259  1.0000
  N   N8        1.0  0.9731569917628633  0.4768612138716861  0.2507333178874589  1.0000
  O   O1        1.0  0.837753362356942  0.7337294562393667  0.004441855682927107  1.0000
  O   O2        1.0  0.1622518246179112  0.2662828654390736  0.9955610624742591  1.0000
  O   O3        1.0  0.7990985269867821  0.6145520720418673  0.846124565619931  1.0000
  O   O4        1.0  0.20090972557820658  0.3854496056308321  0.1538840565780788  1.0000
  O   O5        1.0  0.011071535648490295  0.7753989646855572  0.6870839876501478  1.0000
  O   O6        1.0  0.9889243357998437  0.2245991649852357  0.3129183765428821  1.0000
  O   O7        1.0  0.036632375670507145  0.9349978476569732  0.8076625944548042  1.0000
  O   O8        1.0  0.9633562787885807  0.0650002820138198  0.1923399236147958  1.0000
  O   O9        1.0  0.574415035008407  0.3792751953048494  0.30113766770598727  1.0000
  O   O10       1.0  0.42558755163256734  0.6207282563688068  0.6988613726337791  1.0000
  O   O11       1.0  0.662392028010828  0.2639855342015665  0.45369285259020137  1.0000
  O   O12       1.0  0.3376056545361338  0.7360152564706652  0.5463072907018898  1.0000
