data_image0
_chemical_formula_structural       Cd2H36C48S4N24
_chemical_formula_sum              "Cd2 H36 C48 S4 N24"
_cell_length_a       9.11777376800114
_cell_length_b       11.230383583251179
_cell_length_c       13.071045046544542
_cell_angle_alpha    94.04930101340837
_cell_angle_beta     90.00005352438629
_cell_angle_gamma    90.00001661107589

_space_group_name_H-M_alt    "P 1"
_space_group_IT_number       1

loop_
  _space_group_symop_operation_xyz
  'x, y, z'

loop_
  _atom_site_type_symbol
  _atom_site_label
  _atom_site_symmetry_multiplicity
  _atom_site_fract_x
  _atom_site_fract_y
  _atom_site_fract_z
  _atom_site_occupancy
  Cd  Cd1       1.0  0.0  0.0  0.0  1.0000
  Cd  Cd2       1.0  0.499999668998143  0.500000193676989  0.4999999353130633  1.0000
  H   H1        1.0  0.823595304983833  0.2008231264032503  0.8747731848276388  1.0000
  H   H2        1.0  0.3235970072117312  0.2991756755520641  0.6252251633223196  1.0000
  H   H3        1.0  0.17640183949313135  0.7991754767495606  0.12522504647363766  1.0000
  H   H4        1.0  0.6764045243010345  0.7008229276013865  0.3747730679804278  1.0000
  H   H5        1.0  0.7482458594234916  0.4331680800905462  0.9441935522215417  1.0000
  H   H6        1.0  0.24824409549265172  0.06683248303549051  0.5558079148499928  1.0000
  H   H7        1.0  0.2517556720917185  0.5668323061250575  0.055807848435456706  1.0000
  H   H8        1.0  0.7517552425046504  0.9331679031798005  0.44419348580627377  1.0000
  H   H9        1.0  0.0224913942879041  0.2781011627456138  0.16255092322209214  1.0000
  H   H10       1.0  0.5224896495979863  0.22189903746549078  0.3374490271440251  1.0000
  H   H11       1.0  0.9775101372262827  0.7218992246086767  0.8374489474047593  1.0000
  H   H12       1.0  0.47750859163934223  0.7781013498883242  0.662550843481732  1.0000
  H   H13       1.0  0.7448848125303018  0.5961066478236816  0.0383300326610652  1.0000
  H   H14       1.0  0.24488590591815307  0.9038935600545842  0.461670531967421  1.0000
  H   H15       1.0  0.2551145254659772  0.4038937395302895  0.9616698379650543  1.0000
  H   H16       1.0  0.7551145288373962  0.09610593406044643  0.5383300490271594  1.0000
  H   H17       1.0  0.927764098650862  0.7824787903332154  0.3093330034339843  1.0000
  H   H18       1.0  0.4277669561320821  0.7175214701070588  0.19066844861159643  1.0000
  H   H19       1.0  0.0722330458285398  0.21752159588175604  0.6906683972215504  1.0000
  H   H20       1.0  0.5722356721418793  0.28247802343894796  0.8093328973987894  1.0000
  H   H21       1.0  0.7747014099860793  0.78278960520624  0.1507624867472757  1.0000
  H   H22       1.0  0.2747044797046456  0.7172097180956883  0.3492388082062661  1.0000
  H   H23       1.0  0.22529573449364199  0.2172098877696271  0.8492396242763435  1.0000
  H   H24       1.0  0.7252992453282661  0.28278977545047473  0.6507625378044892  1.0000
  H   H25       1.0  0.9556416195114182  0.7137596882588468  0.4797220716892383  1.0000
  H   H26       1.0  0.4556398863044891  0.7862387966483837  0.02027699467409861  1.0000
  H   H27       1.0  0.0443588152443226  0.286240698525944  0.5202785639523242  1.0000
  H   H28       1.0  0.544359451691399  0.2137598053660598  0.9797227666580638  1.0000
  H   H29       1.0  0.19115573331683322  0.6542392384037257  0.6005555794366941  1.0000
  H   H30       1.0  0.6911563093704702  0.845762145000748  0.8994448394550646  1.0000
  H   H31       1.0  0.8088447014396183  0.34576204048148185  0.399445875866924  1.0000
  H   H32       1.0  0.30884412538495815  0.15423913502314693  0.10055508581840661  1.0000
  H   H33       1.0  0.2232324151745857  0.45790388862091197  0.31355224701412965  1.0000
  H   H34       1.0  0.7232315008624397  0.04209636991069491  0.18644783770858453  1.0000
  H   H35       1.0  0.7767680195811624  0.542096498163879  0.686448388627433  1.0000
  H   H36       1.0  0.2767678371338392  0.9579040174432762  0.8135520329175421  1.0000
  C   C1        1.0  0.8527976650387145  0.2526043744141547  0.9449163467665471  1.0000
  C   C2        1.0  0.3527948678191494  0.24739443602454259  0.5550820209270952  1.0000
  C   C3        1.0  0.14720496323320023  0.7473951214092198  0.05508193918355182  1.0000
  C   C4        1.0  0.6472022766578078  0.7526041671282684  0.4449162103741813  1.0000
  C   C5        1.0  0.8166858224612386  0.36728583913981083  0.9780770698276201  1.0000
  C   C6        1.0  0.31668513342468435  0.1327138534775401  0.5219213283439927  1.0000
  C   C7        1.0  0.1833146122932874  0.6327136561139  0.02192198113682049  1.0000
  C   C8        1.0  0.6833142045703796  0.8672856423453509  0.4780769576050048  1.0000
  C   C9        1.0  0.9601698019448082  0.28635536529591826  0.0928907412341147  1.0000
  C   C10       1.0  0.4601685608523028  0.21364406997157195  0.4071086824090386  1.0000
  C   C11       1.0  0.039831729568661  0.7136441299579487  0.9071083097306882  1.0000
  C   C12       1.0  0.5398307771437842  0.7863554247126386  0.5928911335700988  1.0000
  C   C13       1.0  0.8861583805332175  0.49594874876503076  0.135857575128199  1.0000
  C   C14       1.0  0.386157007101133  0.0040506650002357  0.36414179897894167  1.0000
  C   C15       1.0  0.1138431509804576  0.5040516391585966  0.864141530483586  1.0000
  C   C16       1.0  0.6138412341359967  0.9959488296838187  0.6358580169998334  1.0000
  C   C17       1.0  0.810516011652318  0.5969065652869503  0.10784938141256362  1.0000
  C   C18       1.0  0.3105159148994403  0.9030936616586728  0.39215122714260525  1.0000
  C   C19       1.0  0.1894844231034298  0.4030938214978407  0.8921512542289989  1.0000
  C   C20       1.0  0.6894834230971584  0.0969058324561942  0.6078493538516057  1.0000
  C   C21       1.0  0.9093779845170505  0.7008881556814756  0.2607831680307342  1.0000
  C   C22       1.0  0.4093754523358229  0.7991129937941609  0.2392160313089562  1.0000
  C   C23       1.0  0.09062464375557511  0.2991122322423153  0.7392159375814202  1.0000
  C   C24       1.0  0.5906227889011859  0.20088828679875093  0.7607831289487166  1.0000
  C   C25       1.0  0.9736656024394891  0.5927273126006797  0.28245034197172464  1.0000
  C   C26       1.0  0.47366417660283133  0.9072738555523115  0.2175489003961459  1.0000
  C   C27       1.0  0.0263359290748895  0.4072739674233717  0.717549583302116  1.0000
  C   C28       1.0  0.5263340646339857  0.0927265323708397  0.7824502052145379  1.0000
  C   C29       1.0  0.8255219289136239  0.7006098260645858  0.17173877239454072  1.0000
  C   C30       1.0  0.3255228063525238  0.799390405240786  0.3282618462044411  1.0000
  C   C31       1.0  0.1744774090831669  0.2993905607200418  0.8282618632466594  1.0000
  C   C32       1.0  0.6744787251619755  0.20060908887440126  0.6717387347905017  1.0000
  C   C33       1.0  0.04670481041203091  0.6532553521237717  0.4639423052707201  1.0000
  C   C34       1.0  0.5467070937070347  0.8467412274992656  0.036057908128015  1.0000
  C   C35       1.0  0.9532945275845677  0.3467441419910955  0.5360582757234909  1.0000
  C   C36       1.0  0.4532955345656334  0.15325469593702928  0.9639424542793692  1.0000
  C   C37       1.0  0.9849318846442614  0.9663489812514785  0.7418225182884228  1.0000
  C   C38       1.0  0.4849325733928326  0.5336524875024794  0.7581780972282672  1.0000
  C   C39       1.0  0.015067453352209305  0.0336522987722603  0.2581774069846858  1.0000
  C   C40       1.0  0.5150678613624038  0.4663478998516553  0.2418217733982218  1.0000
  C   C41       1.0  0.16347786661165742  0.6223354381354298  0.5227355596511813  1.0000
  C   C42       1.0  0.6634796550219447  0.877664151888567  0.9772647314221743  1.0000
  C   C43       1.0  0.8365214713856519  0.37766494807986106  0.4772658410050852  1.0000
  C   C44       1.0  0.33652187649204285  0.12233534279595662  0.0227350845577021  1.0000
  C   C45       1.0  0.1844335236230847  0.5166682532103479  0.3772336009464539  1.0000
  C   C46       1.0  0.6844337782615924  0.983331045004732  0.1227661035595489  1.0000
  C   C47       1.0  0.8155658143731942  0.4833321341436303  0.6227662696796658  1.0000
  C   C48       1.0  0.3155644629757361  0.016669342349082704  0.8772337670662083  1.0000
  S   S1        1.0  0.0419669696346219  0.9266605566908978  0.6268927597823365  1.0000
  S   S2        1.0  0.5419674131955645  0.5733398907006517  0.8731075046100898  1.0000
  S   S3        1.0  0.9580334651211191  0.073339830093893  0.37310787585922606  1.0000
  S   S4        1.0  0.4580330215596718  0.42666049665347583  0.1268923660163992  1.0000
  N   N1        1.0  0.9415379952397348  0.20372640611370235  0.0168893198824449  1.0000
  N   N2        1.0  0.4415368854132211  0.2962739164105558  0.4831101459374381  1.0000
  N   N3        1.0  0.058463536274445  0.7962739812405888  0.9831105507444137  1.0000
  N   N4        1.0  0.5584613558233968  0.7037255788428355  0.5168889050262635  1.0000
  N   N5        1.0  0.8859806439818884  0.38847785781531746  0.0724980038198382  1.0000
  N   N6        1.0  0.38597939375159035  0.11152155646767173  0.4275006051533127  1.0000
  N   N7        1.0  0.11402088753158782  0.6115216374385497  0.9275010471449647  1.0000
  N   N8        1.0  0.6140199442439851  0.8884779387858827  0.5724984458107585  1.0000
  N   N9        1.0  0.9646107020529584  0.4926755256125759  0.2217735369683567  1.0000
  N   N10       1.0  0.46460811797659585  0.007324803614672198  0.2782259442936379  1.0000
  N   N11       1.0  0.035391926220178505  0.5073248617418715  0.7782263336588712  1.0000
  N   N12       1.0  0.5353901232602211  0.9926755843084795  0.7217731613170529  1.0000
  N   N13       1.0  0.060660994050429906  0.5851192530447449  0.3715486931369583  1.0000
  N   N14       1.0  0.5606612318719045  0.9148791171108288  0.1284501088658061  1.0000
  N   N15       1.0  0.9393383439463605  0.4148811337398827  0.6284519425042348  1.0000
  N   N16       1.0  0.4393392028824223  0.08511948547311483  0.8715488874516453  1.0000
  N   N17       1.0  0.9412491337517109  0.9961201281466289  0.8255833953920302  1.0000
  N   N18       1.0  0.4412507964663633  0.5038804352467495  0.6744171362410613  1.0000
  N   N19       1.0  0.05875020424507942  0.003880258637998699  0.17441724024916994  1.0000
  N   N20       1.0  0.5587496382893847  0.49611995153804145  0.3255834994005014  1.0000
  N   N21       1.0  0.24863566343627505  0.5384180620065209  0.46746312634869014  1.0000
  N   N22       1.0  0.7486357894828118  0.9615830402004236  0.0325367304218389  1.0000
  N   N23       1.0  0.7513636745601959  0.4615832180172177  0.5325367989244185  1.0000
  N   N24       1.0  0.2513635485141776  0.0384182392539714  0.9674639598663363  1.0000
