data_image0
_chemical_formula_structural       GdH9C5N2O8
_chemical_formula_sum              "Gd1 H9 C5 N2 O8"
_cell_length_a       6.585737285278791
_cell_length_b       6.743520646318249
_cell_length_c       6.743631642052628
_cell_angle_alpha    64.08858704103284
_cell_angle_beta     73.08223491260685
_cell_angle_gamma    73.08334633757401

_space_group_name_H-M_alt    "P 1"
_space_group_IT_number       1

loop_
  _space_group_symop_operation_xyz
  'x, y, z'

loop_
  _atom_site_type_symbol
  _atom_site_label
  _atom_site_symmetry_multiplicity
  _atom_site_fract_x
  _atom_site_fract_y
  _atom_site_fract_z
  _atom_site_occupancy
  Gd  Gd1       1.0  0.9999925840851204  0.9447302153449256  0.05526679920659921  1.0000
  H   H1        1.0  0.49998572377691625  0.0247276772654246  0.9752827681525458  1.0000
  H   H2        1.0  0.8772189800108449  0.4147841630961155  0.20637094980392576  1.0000
  H   H3        1.0  0.12276993678012361  0.7936323304240673  0.5852056011744791  1.0000
  H   H4        1.0  0.60159557496317  0.15312894245180078  0.41270837788711384  1.0000
  H   H5        1.0  0.3983916197664286  0.5872859950997266  0.8468942150044326  1.0000
  H   H6        1.0  0.4719166059002832  0.4427410898458817  0.31344834701356195  1.0000
  H   H7        1.0  0.5281023702077832  0.686575296275123  0.5572150726644907  1.0000
  H   H8        1.0  0.17802496796760883  0.3937275123747028  0.5837929649330178  1.0000
  H   H9        1.0  0.8220178451585838  0.4162271253585388  0.6062584208482419  1.0000
  C   C1        1.0  0.4999906914188161  0.8712004235700592  0.12880102013039604  1.0000
  C   C2        1.0  0.04270165031597628  0.41447480626018063  0.10319428504520536  1.0000
  C   C3        1.0  0.9572811967189095  0.8968060895546799  0.5855260130034948  1.0000
  C   C4        1.0  0.2986071916558473  0.24111723814122143  0.5824952709786898  1.0000
  C   C5        1.0  0.7014242646182112  0.4174853172340677  0.7588966921834411  1.0000
  N   N1        1.0  0.4709616244723663  0.2797418723952489  0.42248800586666846  1.0000
  N   N2        1.0  0.5290489240983263  0.5775093836544797  0.7202606028286097  1.0000
  O   O1        1.0  0.33305553927883835  0.781691591434246  0.2066926021111469  1.0000
  O   O2        1.0  0.6669195668525773  0.7933156652208383  0.2183054646569359  1.0000
  O   O3        1.0  0.2674073573683202  0.049785600153711605  0.7249363010164558  1.0000
  O   O4        1.0  0.7326036785752378  0.2750476861404181  0.9502435424237775  1.0000
  O   O5        1.0  0.12911810970813056  0.5795626551031816  0.05915672609904721  1.0000
  O   O6        1.0  0.8708785782543843  0.9408239491796733  0.42044860226524605  1.0000
  O   O7        1.0  0.13231592633411537  0.2561256162462726  0.03759887242205193  1.0000
  O   O8        1.0  0.8676794897101062  0.9623862008045094  0.7438725710600165  1.0000
