data_image0
_chemical_formula_structural       Cd4H32C36N12Cl4O12
_chemical_formula_sum              "Cd4 H32 C36 N12 Cl4 O12"
_cell_length_a       8.096433256639092
_cell_length_b       10.843636679278683
_cell_length_c       13.224788454023958
_cell_angle_alpha    90.00015387085207
_cell_angle_beta     89.99981048958044
_cell_angle_gamma    105.45543943084027

_space_group_name_H-M_alt    "P 1"
_space_group_IT_number       1

loop_
  _space_group_symop_operation_xyz
  'x, y, z'

loop_
  _atom_site_type_symbol
  _atom_site_label
  _atom_site_symmetry_multiplicity
  _atom_site_fract_x
  _atom_site_fract_y
  _atom_site_fract_z
  _atom_site_occupancy
  Cd  Cd1       1.0  0.5180379949062371  0.9287911844598187  0.37224387874090337  1.0000
  Cd  Cd2       1.0  0.48195970693969054  0.5712080029653634  0.8722432031708678  1.0000
  Cd  Cd3       1.0  0.48196079491843596  0.071207740454291  0.6277563239844994  1.0000
  Cd  Cd4       1.0  0.5180418923369458  0.42879188651240696  0.1277562433969948  1.0000
  H   H1        1.0  0.12204565157048824  0.94358469590496  0.35767014941617964  1.0000
  H   H2        1.0  0.877952116698644  0.5564144568534746  0.8576709086221614  1.0000
  H   H3        1.0  0.8779556112332828  0.056414236781080304  0.6423292971509726  1.0000
  H   H4        1.0  0.1220482460893066  0.4435854287378832  0.1423285379469448  1.0000
  H   H5        1.0  0.7893847698966994  0.5603254227898091  0.3595579307694835  1.0000
  H   H6        1.0  0.21061175327777457  0.9396737305737307  0.8595593691490465  1.0000
  H   H7        1.0  0.21061401993142678  0.4396735021224957  0.6404407596443991  1.0000
  H   H8        1.0  0.7893877094943562  0.0603271079229444  0.14044007742201361  1.0000
  H   H9        1.0  0.3412106106624861  0.6394612789693782  0.3751738436756256  1.0000
  H   H10       1.0  0.6587855048648732  0.8605369547487878  0.8751742015533994  1.0000
  H   H11       1.0  0.6587894156508725  0.3605376498311514  0.6248263590485267  1.0000
  H   H12       1.0  0.3412132849580799  0.13946197016622364  0.12482675732776732  1.0000
  H   H13       1.0  0.7748635486692166  0.36547346948255927  0.3822900423071332  1.0000
  H   H14       1.0  0.22513269600392502  0.1345257906398203  0.8822900253597512  1.0000
  H   H15       1.0  0.2251352411554564  0.6345254554315504  0.6177101604182766  1.0000
  H   H16       1.0  0.7748664302936132  0.8654740910660261  0.11771017736636222  1.0000
  H   H17       1.0  0.871861311213692  0.1428677092767927  0.4015648664189584  1.0000
  H   H18       1.0  0.12813731858483376  0.35713160446900366  0.90156402202809  1.0000
  H   H19       1.0  0.1281415245499104  0.8571321840883  0.5984353363034175  1.0000
  H   H20       1.0  0.8718618077127045  0.6428682772368363  0.0984361806980232  1.0000
  H   H21       1.0  0.22526475316445274  0.22104441429054592  0.3956675914039921  1.0000
  H   H22       1.0  0.7747345764592736  0.2789567990101247  0.8956667794578126  1.0000
  H   H23       1.0  0.7747399920335594  0.7789573965444205  0.6043326113185544  1.0000
  H   H24       1.0  0.2252645498382719  0.721043082695715  0.10433342326830095  1.0000
  H   H25       1.0  0.5645575058586444  0.0783844319701075  0.19099689898576597  1.0000
  H   H26       1.0  0.43544208369787896  0.42161438087106257  0.6909970866692775  1.0000
  H   H27       1.0  0.43544162043889406  0.9216154497357396  0.8090033037403476  1.0000
  H   H28       1.0  0.5645567061285205  0.5783845440421517  0.30900235990036157  1.0000
  H   H29       1.0  0.40395925445166364  0.9587052608784464  0.1703587560522237  1.0000
  H   H30       1.0  0.5960425134988938  0.5412953676536534  0.6703592963127323  1.0000
  H   H31       1.0  0.5960423448249657  0.041294628599324305  0.8296406905156319  1.0000
  H   H32       1.0  0.4039578492890569  0.45870451793770434  0.3296401502563739  1.0000
  C   C1        1.0  0.10202723531124037  0.8401381013313909  0.3587974843791812  1.0000
  C   C2        1.0  0.8979708642919845  0.6598620109007385  0.8587984301442547  1.0000
  C   C3        1.0  0.8979722274608903  0.15986273716528393  0.6412019621918787  1.0000
  C   C4        1.0  0.10203073498292531  0.3401378785779344  0.1412017725793717  1.0000
  C   C5        1.0  0.9367561252572114  0.7575494387314592  0.35700824089812505  1.0000
  C   C6        1.0  0.06324198249705396  0.742450669246594  0.8570110568677196  1.0000
  C   C7        1.0  0.06324423753246577  0.242450446859003  0.6429904495152172  1.0000
  C   C8        1.0  0.9367583802891702  0.2575492163456659  0.1429891458571504  1.0000
  C   C9        1.0  0.9170140301555775  0.6258990447730285  0.3606429571374719  1.0000
  C   C10       1.0  0.08298282454426698  0.8741010679643824  0.8606452659764943  1.0000
  C   C11       1.0  0.08298509614540707  0.37410083693101365  0.6393557332771209  1.0000
  C   C12       1.0  0.9170191112035083  0.12589977830602808  0.1393549367478357  1.0000
  C   C13       1.0  0.06268328255399779  0.5807553101940002  0.3674567353077834  1.0000
  C   C14       1.0  0.9373163505411455  0.9192457833157663  0.8674581708040849  1.0000
  C   C15       1.0  0.9373158437452672  0.4192445715109443  0.6325427112625663  1.0000
  C   C16       1.0  0.0626840122450787  0.0807541022764866  0.132542031920778  1.0000
  C   C17       1.0  0.22386532027332612  0.6693356939349685  0.3683617879097838  1.0000
  C   C18       1.0  0.7761302627591249  0.8306644332760484  0.8683625989452679  1.0000
  C   C19       1.0  0.7761325695372532  0.33066418388355606  0.6316376586618093  1.0000
  C   C20       1.0  0.22387010002709928  0.16933545231621136  0.1316376037796019  1.0000
  C   C21       1.0  0.902117430184113  0.35060081237877233  0.38423094908971234  1.0000
  C   C22       1.0  0.0978846516123539  0.1493975150013824  0.8842312222559485  1.0000
  C   C23       1.0  0.09788540558120926  0.6493990809854183  0.6157684974768998  1.0000
  C   C24       1.0  0.9021141382123189  0.8506014099127198  0.11576898046945423  1.0000
  C   C25       1.0  0.9530327394556368  0.23938724268038675  0.39390427619776613  1.0000
  C   C26       1.0  0.04696446169916159  0.2606149154453661  0.8939041403457539  1.0000
  C   C27       1.0  0.04696919629386533  0.7606136035891212  0.6060951703708072  1.0000
  C   C28       1.0  0.9530346645983839  0.7393849662604738  0.10609606238035951  1.0000
  C   C29       1.0  0.13370992463096343  0.2782994839133154  0.39040112197575644  1.0000
  C   C30       1.0  0.866287856034553  0.22170075618169  0.8904007552678835  1.0000
  C   C31       1.0  0.8662893110710782  0.7217042210721444  0.6095983245986787  1.0000
  C   C32       1.0  0.13371003377430662  0.778299121637737  0.10959944745948041  1.0000
  C   C33       1.0  0.7831373215637781  0.810171007213917  0.35341142109642487  1.0000
  C   C34       1.0  0.2168614755330721  0.689831005789955  0.8534130545886998  1.0000
  C   C35       1.0  0.2168621412049063  0.18982983128455544  0.6465895377861557  1.0000
  C   C36       1.0  0.7831392237242909  0.3101698365949304  0.1465879042926375  1.0000
  N   N1        1.0  0.2412901981231812  0.7955980191347651  0.36292288045154936  1.0000
  N   N2        1.0  0.7587075462063738  0.7044011461179096  0.862922693442272  1.0000
  N   N3        1.0  0.7587101646647695  0.20440186645659247  0.6370765661175569  1.0000
  N   N4        1.0  0.24129371659739723  0.29559778656813057  0.1370767531248731  1.0000
  N   N5        1.0  0.04873007956530976  0.4489816676584439  0.37524878993880867  1.0000
  N   N6        1.0  0.9512646242386184  0.0510166150365592  0.8752493889597732  1.0000
  N   N7        1.0  0.9512671372978118  0.5510162965775153  0.6247514127871342  1.0000
  N   N8        1.0  0.04873540207474035  0.9489823137639632  0.12475081376438621  1.0000
  N   N9        1.0  0.19208539840302313  0.4049906150545298  0.37938779327738104  1.0000
  N   N10       1.0  0.807913668949851  0.095009602727842  0.8793872665974335  1.0000
  N   N11       1.0  0.8079162008718866  0.5950092744241431  0.6206124094462382  1.0000
  N   N12       1.0  0.1920851208748217  0.9049893221862675  0.12061293612796933  1.0000
  Cl  Cl1       1.0  0.48368881250056717  0.14289013136633597  0.4309676198193487  1.0000
  Cl  Cl2       1.0  0.5163096832797294  0.3571092523245412  0.930967502293207  1.0000
  Cl  Cl3       1.0  0.516311550285664  0.8571097542259167  0.5690325829055213  1.0000
  Cl  Cl4       1.0  0.48368910654494346  0.6428896725895683  0.0690327004321958  1.0000
  O   O1        1.0  0.5205992235186442  0.9839018838941769  0.20178903613749816  1.0000
  O   O2        1.0  0.47940082821027363  0.5160978587282515  0.7017905132488876  1.0000
  O   O3        1.0  0.47940113927102596  0.0160980016962853  0.7982096542758443  1.0000
  O   O4        1.0  0.5205995345759574  0.4839020268640013  0.298209689475975  1.0000
  O   O5        1.0  0.6347389510211343  0.7340276179863211  0.3410188508641383  1.0000
  O   O6        1.0  0.36525900254331833  0.7659753184437721  0.8410211073887909  1.0000
  O   O7        1.0  0.36526051175099633  0.2659732205103538  0.6589805957069218  1.0000
  O   O8        1.0  0.6347416967123323  0.234025523942023  0.15898060764831004  1.0000
  O   O9        1.0  0.807511102105707  0.9304665632143813  0.3646253184218011  1.0000
  O   O10       1.0  0.19248978038709197  0.5695345274445245  0.8646252248704089  1.0000
  O   O11       1.0  0.19248892420248612  0.0695323655888416  0.6353771527696497  1.0000
  O   O12       1.0  0.8075137283256808  0.4304672795022314  0.13537346554186064  1.0000
