data_image0
_chemical_formula_structural       Zn4H12C8N16O14
_chemical_formula_sum              "Zn4 H12 C8 N16 O14"
_cell_length_a       8.060112682797484
_cell_length_b       9.051566470781365
_cell_length_c       9.80627753489282
_cell_angle_alpha    77.45500837634721
_cell_angle_beta     68.46299795649938
_cell_angle_gamma    66.68985859142806

_space_group_name_H-M_alt    "P 1"
_space_group_IT_number       1

loop_
  _space_group_symop_operation_xyz
  'x, y, z'

loop_
  _atom_site_type_symbol
  _atom_site_label
  _atom_site_symmetry_multiplicity
  _atom_site_fract_x
  _atom_site_fract_y
  _atom_site_fract_z
  _atom_site_occupancy
  Zn  Zn1       1.0  0.17200126927233567  0.9880307588395784  0.08234617333219056  1.0000
  Zn  Zn2       1.0  0.8279982548858912  0.011968561011954598  0.9176538240667894  1.0000
  Zn  Zn3       1.0  0.6045089103442719  0.6292377171903711  0.5233727859635238  1.0000
  Zn  Zn4       1.0  0.395491947939462  0.37076160185974766  0.47662681197103035  1.0000
  H   H1        1.0  0.1372139927856183  0.8255384105534133  0.6341904407011822  1.0000
  H   H2        1.0  0.8627855372671577  0.174460904245926  0.3658085361902932  1.0000
  H   H3        1.0  0.5374682603737712  0.7610666316877329  0.8426707997131897  1.0000
  H   H4        1.0  0.46252993555349786  0.2389326839130135  0.1573285766427048  1.0000
  H   H5        1.0  0.2194045314133534  0.617368578065708  0.21264451693449618  1.0000
  H   H6        1.0  0.7805949868503249  0.38263074683802506  0.7873565009719812  1.0000
  H   H7        1.0  0.4258984380264153  0.9365007789461117  0.2988485091133483  1.0000
  H   H8        1.0  0.5741019201644165  0.0634997524061305  0.701152012138415  1.0000
  H   H9        1.0  0.8528232285619244  0.5722339378594441  0.2463024850257154  1.0000
  H   H10       1.0  0.14718029207828212  0.42776538464005404  0.7536973344874979  1.0000
  H   H11       1.0  0.9582287084972589  0.44468296372225075  0.35700268523390116  1.0000
  H   H12       1.0  0.04177480624839804  0.5553163638294407  0.6429981547868167  1.0000
  C   C1        1.0  0.20393520926999995  0.830452355020185  0.7103740357210596  1.0000
  C   C2        1.0  0.7960641664186596  0.16955058577969598  0.28962527064261673  1.0000
  C   C3        1.0  0.4065554189104859  0.7983509142207341  0.8158235720981039  1.0000
  C   C4        1.0  0.5934449451748948  0.2016496120793079  0.18417592864615526  1.0000
  C   C5        1.0  0.2855582193664219  0.6696022785122295  0.25858603573664146  1.0000
  C   C6        1.0  0.7144426330227632  0.3303970455900895  0.7414145827054167  1.0000
  C   C7        1.0  0.39008811470867505  0.8320907508749824  0.3020312364674495  1.0000
  C   C8        1.0  0.6099132377734194  0.16790736092522  0.6979684586573995  1.0000
  N   N1        1.0  0.391085332101234  0.7609252643624912  0.6961516182061159  1.0000
  N   N2        1.0  0.6089136978586395  0.2390752627389645  0.30384828200256214  1.0000
  N   N3        1.0  0.1077684788557178  0.9079741992872599  0.8320457985220671  1.0000
  N   N4        1.0  0.8922318970187675  0.09202631690839522  0.1679516612071978  1.0000
  N   N5        1.0  0.23798502358456367  0.8877320996293748  0.8999263759619892  1.0000
  N   N6        1.0  0.762014500573663  0.11226722022215799  0.10007362143699074  1.0000
  N   N7        1.0  0.29523159459580484  0.8198676666883457  0.21848414339824268  1.0000
  N   N8        1.0  0.7047674294695129  0.1801328654653034  0.7815167773179466  1.0000
  N   N9        1.0  0.3692080646198762  0.5936936946884259  0.3608220084991131  1.0000
  N   N10       1.0  0.6307941277893717  0.4063056235602859  0.6391771899710221  1.0000
  N   N11       1.0  0.4364497447453316  0.6975750956868226  0.38847378373085206  1.0000
  N   N12       1.0  0.5635506193400415  0.3024254306132192  0.6115257170134141  1.0000
  N   N13       1.0  0.22903337678681618  0.2860181340008197  0.9892099202438656  1.0000
  N   N14       1.0  0.7709648191404526  0.7139811815999266  0.01078945611202894  1.0000
  N   N15       1.0  0.8266458458852595  0.7908574991832609  0.5168448944214533  1.0000
  N   N16       1.0  0.17335367237841126  0.2091418257204722  0.48315612348502407  1.0000
  O   O1        1.0  0.2809026937090806  0.1566763867071188  0.07718900543407864  1.0000
  O   O2        1.0  0.7190976703763001  0.843324139592923  0.9228104953101874  1.0000
  O   O3        1.0  0.14080296672526774  0.2814055922160748  0.9079539839446937  1.0000
  O   O4        1.0  0.8591970575258685  0.7185925153333415  0.09204509013707005  1.0000
  O   O5        1.0  0.2706900812664088  0.40361054128773327  0.9893852204845004  1.0000
  O   O6        1.0  0.729309448786374  0.5963887735116058  0.010613756406975476  1.0000
  O   O7        1.0  0.8312847147159346  0.6557752159581298  0.5978024522801206  1.0000
  O   O8        1.0  0.16871564936943878  0.34422531034191906  0.4021970484641457  1.0000
  O   O9        1.0  0.7120171115181151  0.8423169586894944  0.4419423662210917  1.0000
  O   O10       1.0  0.2879842350694304  0.15768115816290873  0.5580583494112545  1.0000
  O   O11       1.0  0.9290306775665303  0.8643958100879844  0.5143525141597037  1.0000
  O   O12       1.0  0.07096968651885051  0.13560471621205752  0.48564698658456246  1.0000
  O   O13       1.0  0.8327188934683675  0.5065198350276391  0.34190966048485183  1.0000
  O   O14       1.0  0.16728579514413167  0.4934831227753804  0.6580921300511378  1.0000
