data_image0
_chemical_formula_structural       H12Pb2C22I4N4O2
_chemical_formula_sum              "H12 Pb2 C22 I4 N4 O2"
_cell_length_a       8.124339706941898
_cell_length_b       9.584615441037876
_cell_length_c       9.58429640240282
_cell_angle_alpha    112.73758676972248
_cell_angle_beta     94.46232397164412
_cell_angle_gamma    94.44817299741649

_space_group_name_H-M_alt    "P 1"
_space_group_IT_number       1

loop_
  _space_group_symop_operation_xyz
  'x, y, z'

loop_
  _atom_site_type_symbol
  _atom_site_label
  _atom_site_symmetry_multiplicity
  _atom_site_fract_x
  _atom_site_fract_y
  _atom_site_fract_z
  _atom_site_occupancy
  H   H1        1.0  0.12618225703337055  0.5907709290637655  0.8965260787732204  1.0000
  H   H2        1.0  0.6261375509939028  0.8965185990999843  0.5906758958923177  1.0000
  H   H3        1.0  0.0035647760320643086  0.4204638384174047  0.011847290334031944  1.0000
  H   H4        1.0  0.5035316792487022  0.0119490423684923  0.4203896085273726  1.0000
  H   H5        1.0  0.1806329970228688  0.36020535113448204  0.20493058739738507  1.0000
  H   H6        1.0  0.6806083910499012  0.20500546866578168  0.3601556539599499  1.0000
  H   H7        1.0  0.8989108125330317  0.5735253089467989  0.41748621288219573  1.0000
  H   H8        1.0  0.39885929055353125  0.4175074994607614  0.5736663350882409  1.0000
  H   H9        1.0  0.07526206527085579  0.7665039940637683  0.3567313948468111  1.0000
  H   H10       1.0  0.5751602288397136  0.3567129040453949  0.7667102665347585  1.0000
  H   H11       1.0  0.9518875635356493  0.8818579380510698  0.18668449924626182  1.0000
  H   H12       1.0  0.4518496606202547  0.18656882765704813  0.8818999489971802  1.0000
  Pb  Pb1       1.0  0.538669849234047  0.8367606411732283  0.940274725758954  1.0000
  Pb  Pb2       1.0  0.0385554411853732  0.9401779308930217  0.8366312610304122  1.0000
  C   C1        1.0  0.20165417461828383  0.5642066510011291  0.9803629035849893  1.0000
  C   C2        1.0  0.7016084776546306  0.9804470338789743  0.5641952352918339  1.0000
  C   C3        1.0  0.1336098836199113  0.46846189779980574  0.04510068269355123  1.0000
  C   C4        1.0  0.6335865441093843  0.045212800955859216  0.4684198944965914  1.0000
  C   C5        1.0  0.2315543672985355  0.4337635039922248  0.15213529107715126  1.0000
  C   C6        1.0  0.731537631859723  0.1522550189849312  0.43376449833716885  1.0000
  C   C7        1.0  0.39583463715824496  0.4996867385109027  0.18879127462594877  1.0000
  C   C8        1.0  0.8958022827196925  0.18883812606156175  0.49967825336949545  1.0000
  C   C9        1.0  0.45202646567587834  0.5977139180401072  0.12036984762661983  1.0000
  C   C10       1.0  0.9520220511861764  0.12037574257958994  0.5976598376806734  1.0000
  C   C11       1.0  0.6266636254708686  0.6572403965805195  0.1798275586539121  1.0000
  C   C12       1.0  0.12665900109574577  0.17983250478467033  0.6572511936973129  1.0000
  C   C13       1.0  0.6832010175361772  0.5890253546326322  0.278015960172553  1.0000
  C   C14       1.0  0.18317329900851576  0.27800114205399507  0.5890716404953906  1.0000
  C   C15       1.0  0.8475690521203416  0.6260255365778563  0.34381793806273464  1.0000
  C   C16       1.0  0.34752484998178085  0.34375529505597774  0.6260916189343249  1.0000
  C   C17       1.0  0.9451218165731062  0.7331400357781562  0.30892846519768813  1.0000
  C   C18       1.0  0.44508979671403637  0.30882085457254504  0.7331992801562777  1.0000
  C   C19       1.0  0.8766692189944649  0.7977484642112743  0.2131689775446688  1.0000
  C   C20       1.0  0.3766745970581481  0.21306302418961565  0.7977748669711318  1.0000
  C   C21       1.0  0.5395260806358094  0.4871184762389903  0.29078728209209004  1.0000
  C   C22       1.0  0.0394962838110189  0.29077271926711756  0.4871355125669368  1.0000
  I   I1        1.0  0.27878499816939945  0.0318908729888037  0.1510429405834799  1.0000
  I   I2        1.0  0.7788978729073148  0.15126167953902578  0.03192111342454498  1.0000
  I   I3        1.0  0.7998620158501524  0.6256595238741056  0.7458852591918514  1.0000
  I   I4        1.0  0.29998562363454784  0.7458768077683189  0.6257419500863861  1.0000
  N   N1        1.0  0.3611240017813984  0.6299813977491908  0.01754077545214735  1.0000
  N   N2        1.0  0.8611580832396227  0.0175497292142737  0.629923414476302  1.0000
  N   N3        1.0  0.7171331229071354  0.760219332338437  0.1474689271778402  1.0000
  N   N4        1.0  0.21712427692039424  0.1474142615189962  0.7601919869199776  1.0000
  O   O1        1.0  0.5394165503641872  0.4105445393310845  0.3674409388154061  1.0000
  O   O2        1.0  0.0393851919115917  0.3674919589174621  0.4105976137403218  1.0000
