data_image0
_chemical_formula_structural       Zn2H65C78N4O20F11
_chemical_formula_sum              "Zn2 H65 C78 N4 O20 F11"
_cell_length_a       9.772679867972055
_cell_length_b       10.877112968238977
_cell_length_c       27.742526090486784
_cell_angle_alpha    90.13830867774526
_cell_angle_beta     90.10517468957755
_cell_angle_gamma    94.0224875639119

_space_group_name_H-M_alt    "P 1"
_space_group_IT_number       1

loop_
  _space_group_symop_operation_xyz
  'x, y, z'

loop_
  _atom_site_type_symbol
  _atom_site_label
  _atom_site_symmetry_multiplicity
  _atom_site_fract_x
  _atom_site_fract_y
  _atom_site_fract_z
  _atom_site_occupancy
  Zn  Zn1       1.0  0.3583133741383193  0.5002731145648838  0.5037377620105445  1.0000
  Zn  Zn2       1.0  0.6514014280048173  0.5210505790687705  0.5031504019887976  1.0000
  H   H1        1.0  0.13351582777567472  0.5298024559658431  0.12816051243227383  1.0000
  H   H2        1.0  0.5330820146040695  0.8973425921442414  0.6480041655788541  1.0000
  H   H3        1.0  0.46563162857771806  0.8372369853565687  0.7034641098794481  1.0000
  H   H4        1.0  0.3429873917999799  0.7769817596600818  0.6032765060212242  1.0000
  H   H5        1.0  0.27247244283579164  0.7248659457543597  0.6588867365811879  1.0000
  H   H6        1.0  0.24466343330864493  0.9490137368871315  0.6832599273499298  1.0000
  H   H7        1.0  0.1527671854081305  0.9079245707260098  0.6296226697841264  1.0000
  H   H8        1.0  0.3094480255723083  0.9966821683059379  0.6259107163390496  1.0000
  H   H9        1.0  0.4505982181764878  0.9006855005927293  0.42185222722802973  1.0000
  H   H10       1.0  0.3572137091813659  0.028849728852428296  0.40485457061929253  1.0000
  H   H11       1.0  0.31667055181418396  0.7682588051276653  0.3623961958041377  1.0000
  H   H12       1.0  0.2613904694507383  0.6703262577168873  0.889599360637668  1.0000
  H   H13       1.0  0.2283460943169686  0.8965728217468792  0.3436484824491473  1.0000
  H   H14       1.0  0.45218885516852225  0.0074910746880192  0.3178148862243618  1.0000
  H   H15       1.0  0.4277943270552599  0.8628219567579407  0.28827618250524983  1.0000
  H   H16       1.0  0.5426632942506942  0.8806093576341354  0.3376732575732433  1.0000
  H   H17       1.0  0.16037142101611582  0.2759007165671079  0.5301696801098714  1.0000
  H   H18       1.0  0.2619518053877812  0.2145370916128044  0.5761867736343262  1.0000
  H   H19       1.0  0.9482922547440181  0.2165151335991737  0.5730749828909651  1.0000
  H   H20       1.0  0.034549039927462395  0.12200067535127354  0.6129665129843503  1.0000
  H   H21       1.0  0.1592290074864167  0.3054777126724418  0.6510140074265679  1.0000
  H   H22       1.0  0.9802813997168018  0.32770462213583335  0.6512971456458417  1.0000
  H   H23       1.0  0.7302929695468022  0.13645538249259911  0.5354677899969857  1.0000
  H   H24       1.0  0.0908086962381489  0.4049272883392448  0.6087276818093273  1.0000
  H   H25       1.0  0.8330651932422056  0.780036366245092  0.6119463985127  1.0000
  H   H26       1.0  0.010347135050721998  0.7751324976020089  0.5969395467625207  1.0000
  H   H27       1.0  0.8421735105712428  0.5695827094361832  0.6508963180422215  1.0000
  H   H28       1.0  0.023604735862690504  0.5849323920016191  0.646043833533028  1.0000
  H   H29       1.0  0.02414894225857719  0.7858264387159152  0.6948270015009329  1.0000
  H   H30       1.0  0.9561911174707449  0.6556187477842315  0.7273806220712019  1.0000
  H   H31       1.0  0.8434884996796512  0.7590302889253734  0.7016520442945622  1.0000
  H   H32       1.0  0.13566860380493753  0.13340078524634444  0.3758786199332534  1.0000
  H   H33       1.0  0.9977621637850191  0.22372599298250154  0.3602441587370038  1.0000
  H   H34       1.0  0.22277129132199044  0.1261208524317254  0.46552082126993355  1.0000
  H   H35       1.0  0.9893310062050773  0.03318789594239751  0.44192560328561836  1.0000
  H   H36       1.0  0.8510266449665452  0.11769108526576133  0.4235179162479028  1.0000
  H   H37       1.0  0.8549144214887792  0.014666673934009104  0.3408327361057673  1.0000
  H   H38       1.0  0.8290007707944512  0.9050559329743777  0.38790227960137713  1.0000
  H   H39       1.0  0.9926788494588266  0.9288642385034791  0.36080341057211746  1.0000
  H   H40       1.0  0.5119447916996266  0.11694062488706441  0.6230684544496868  1.0000
  H   H41       1.0  0.4883096160037328  0.12986260883138814  0.6865503140357065  1.0000
  H   H42       1.0  0.7223586473752731  0.26114902050483835  0.6282998495978945  1.0000
  H   H43       1.0  0.7009920222935053  0.2733745102598845  0.6915491548604606  1.0000
  H   H44       1.0  0.7186695094606109  0.041410146537344886  0.699141773474466  1.0000
  H   H45       1.0  0.12143886951053423  0.4231385587400567  0.3877999157865944  1.0000
  H   H46       1.0  0.8696625587048173  0.11838492853027559  0.675637520139496  1.0000
  H   H47       1.0  0.7541546656758414  0.0343098588189292  0.6364287508303192  1.0000
  H   H48       1.0  0.6137519056954446  0.13698445008880358  0.8166289652032008  1.0000
  H   H49       1.0  0.6150319994992159  0.033315225800898005  0.8669488899975947  1.0000
  H   H50       1.0  0.8570715243053685  0.1164768550247786  0.8016861830081085  1.0000
  H   H51       1.0  0.87490072606721  0.033817332441479706  0.8559143519309842  1.0000
  H   H52       1.0  0.7229544918063908  0.8560484837291328  0.8236775638380536  1.0000
  H   H53       1.0  0.8611108559038387  0.890865089356588  0.7834869875846024  1.0000
  H   H54       1.0  0.6956228742719334  0.9378129003108455  0.7698089148451076  1.0000
  H   H55       1.0  0.4962189532620584  0.03857317410863461  0.9900260997757685  1.0000
  H   H56       1.0  0.868403069593768  0.4627353612648193  0.3861979373968155  1.0000
  H   H57       1.0  0.5175274320815362  0.9675031550977736  0.04735914110224121  1.0000
  H   H58       1.0  0.7285499299793372  0.9751775923574827  0.9650693227497628  1.0000
  H   H59       1.0  0.7466058027803513  0.9024392458518665  0.021363774133213602  1.0000
  H   H60       1.0  0.5371817506148986  0.757379299297895  0.0023842613303628004  1.0000
  H   H61       1.0  0.6676486595526256  0.7470798185128089  0.9584626084031316  1.0000
  H   H62       1.0  0.5220381574244328  0.8299714172072612  0.9455662971251685  1.0000
  H   H63       1.0  0.8327830514954969  0.3227696589784514  0.4192547647970244  1.0000
  H   H64       1.0  0.6434921123865821  0.1490477153101182  0.12471363790087514  1.0000
  H   H65       1.0  0.6726062346617995  0.1866611609557083  0.9649105220408389  1.0000
  C   C1        1.0  0.5213628604064341  0.2779561291358235  0.5111340647509763  1.0000
  C   C2        1.0  0.5137134302127747  0.31116290781054806  0.9762081829987537  1.0000
  C   C3        1.0  0.3466945945559203  0.47398583248327947  0.9799058518867271  1.0000
  C   C4        1.0  0.4912612773534946  0.4825812492434522  0.41012041844690134  1.0000
  C   C5        1.0  0.4358532874117602  0.400926502646854  0.9527612997728172  1.0000
  C   C6        1.0  0.6061445183423543  0.2500666145555571  0.9482386016126227  1.0000
  C   C7        1.0  0.6237104389153459  0.26866685779540234  0.8985316722511956  1.0000
  C   C8        1.0  0.5487749641414794  0.3558838671325689  0.8745324929414267  1.0000
  C   C9        1.0  0.4558003095412246  0.42265760612848896  0.9022413720428943  1.0000
  C   C10       1.0  0.3841863304275392  0.5162716615953968  0.8797803901506073  1.0000
  C   C11       1.0  0.3883131220351004  0.5360514195092209  0.8272252275855223  1.0000
  C   C12       1.0  0.3983097822885782  0.3122429809418108  0.29287896429046617  1.0000
  C   C13       1.0  0.5732614873373763  0.3868219885656643  0.8233885609371967  1.0000
  C   C14       1.0  0.4605201358061351  0.3784412601670014  0.7223933401025704  1.0000
  C   C15       1.0  0.4698365558574268  0.38361324656396084  0.6722835763526404  1.0000
  C   C16       1.0  0.5151432221198036  0.7431733680631823  0.5061941036360196  1.0000
  C   C17       1.0  0.5211264728939113  0.6070397476689209  0.6785827468788171  1.0000
  C   C18       1.0  0.5224335294286464  0.5953178655360675  0.728892349311522  1.0000
  C   C19       1.0  0.4894679039604598  0.48241837577774777  0.7512304975360067  1.0000
  C   C20       1.0  0.50340431266239  0.29422161710504474  0.0284778235638186  1.0000
  C   C21       1.0  0.4144503969747149  0.3689604025291828  0.055135196723625816  1.0000
  C   C22       1.0  0.32435998892504614  0.44710137142750755  0.030665419266917106  1.0000
  C   C23       1.0  0.4472331026413059  0.39642175668169705  0.2580706225651781  1.0000
  C   C24       1.0  0.5758312154893801  0.20829411568161768  0.055156318856134604  1.0000
  C   C25       1.0  0.21384791145210616  0.4869285223288032  0.10835250540406353  1.0000
  C   C26       1.0  0.2969823419168875  0.5758562318625877  0.9562865942905605  1.0000
  C   C27       1.0  0.30892759117526947  0.5942684068636269  0.9069682257353051  1.0000
  C   C28       1.0  0.4924488577999711  0.5066939038005032  0.5966632165976051  1.0000
  C   C29       1.0  0.2166457074295494  0.4896196199172068  0.05819333817589011  1.0000
  C   C30       1.0  0.39381331029469646  0.0673634806801573  0.5117944784310212  1.0000
  C   C31       1.0  0.514303545269634  0.14225077428056926  0.5187737665578284  1.0000
  C   C32       1.0  0.6339877847022707  0.08249539177289479  0.5286273179592912  1.0000
  C   C33       1.0  0.6327577920980048  0.9543885065017577  0.5276341412351614  1.0000
  C   C34       1.0  0.4105951944231876  0.3631912777352255  0.1065538117756333  1.0000
  C   C35       1.0  0.5158645600615943  0.8777637871938001  0.5153385914119823  1.0000
  C   C36       1.0  0.3969355173576403  0.9398988717529448  0.5090064353585646  1.0000
  C   C37       1.0  0.2527928623564791  0.9249023458627618  0.486939760638272  1.0000
  C   C38       1.0  0.24303730573722498  0.068564004849982  0.4969428874622537  1.0000
  C   C39       1.0  0.9266805284155452  0.477135693803632  0.46267402730155993  1.0000
  C   C40       1.0  0.5129679963116587  0.29449811973360346  0.1845095139107045  1.0000
  C   C41       1.0  0.9382291752050306  0.5907512286851074  0.5319757983473324  1.0000
  C   C42       1.0  0.08215117237975278  0.5750681338252619  0.532235854645613  1.0000
  C   C43       1.0  0.0652375554101425  0.46228182973598575  0.46402475091229434  1.0000
  C   C44       1.0  0.0612153813889336  0.3833926736980189  0.41836122182115804  1.0000
  C   C45       1.0  0.5007572871828785  0.2891983400095413  0.13143251664606484  1.0000
  C   C46       1.0  0.9010998987732391  0.4067927749755782  0.4164547320138539  1.0000
  C   C47       1.0  0.3211760893221722  0.4376169249219828  0.1857150748057563  1.0000
  C   C48       1.0  0.5162468463251386  0.5067025346773663  0.2731143652639432  1.0000
  C   C49       1.0  0.5338094274283238  0.5329646491404247  0.3219589208726603  1.0000
  C   C50       1.0  0.416700671531558  0.3394540898976501  0.3416272306759183  1.0000
  C   C51       1.0  0.47306039033684727  0.8193683249024274  0.6644967602866529  1.0000
  C   C52       1.0  0.331717390619673  0.8022209087922505  0.6413879657675353  1.0000
  C   C53       1.0  0.25573210541111285  0.9201137598332921  0.6454829727953069  1.0000
  C   C54       1.0  0.3517153328461903  0.9273057356961446  0.4073804015716079  1.0000
  C   C55       1.0  0.32659529128527964  0.8691022337044814  0.3581315784022224  1.0000
  C   C56       1.0  0.578852386267222  0.21068809419166  0.10564861912376951  1.0000
  C   C57       1.0  0.44377365454491974  0.9072679946523011  0.32360554022523763  1.0000
  C   C58       1.0  0.1621104964210076  0.20252476784479972  0.5574242425823499  1.0000
  C   C59       1.0  0.045073305173851  0.20950654060199986  0.5930248846841337  1.0000
  C   C60       1.0  0.0695638225798021  0.31761012462508376  0.6279882407338917  1.0000
  C   C61       1.0  0.9163381409201394  0.7191932287244498  0.6060347412867415  1.0000
  C   C62       1.0  0.9316294573325835  0.6368347334734781  0.6496277653359854  1.0000
  C   C63       1.0  0.93937435996704  0.7138581398030652  0.6959515079038425  1.0000
  C   C64       1.0  0.04403165953960551  0.1743939688791869  0.3902130152552203  1.0000
  C   C65       1.0  0.9427721026819498  0.074801606975889  0.4103329537346952  1.0000
  C   C66       1.0  0.9025266755913891  0.9756349336279798  0.3728117123061594  1.0000
  C   C67       1.0  0.31542738376475654  0.42965235382709477  0.13267248430723552  1.0000
  C   C68       1.0  0.53080119973405  0.1776227008554798  0.654393628428423  1.0000
  C   C69       1.0  0.6836342363798168  0.21096415019116674  0.6604836074108036  1.0000
  C   C70       1.0  0.7605987953973141  0.0948892832235728  0.6682877238484579  1.0000
  C   C71       1.0  0.677250061985042  0.10262999516309182  0.8457405604300661  1.0000
  C   C72       1.0  0.8043347498815054  0.0484487340007291  0.8257864545475471  1.0000
  C   C73       1.0  0.7690519233239428  0.9269329899523272  0.7992912717794101  1.0000
  C   C74       1.0  0.5728151938997926  0.0116143296776485  0.0165974486203169  1.0000
  C   C75       1.0  0.6709025906539452  0.9258735520338279  0.9940619853142609  1.0000
  C   C76       1.0  0.59514175536399  0.8087462453552376  0.9740597573934053  1.0000
  C   C77       1.0  0.4823450907083284  0.4506593935377057  0.3569397497508718  1.0000
  C   C78       1.0  0.4949319755887559  0.4998725800347684  0.6508122527300415  1.0000
  N   N1        1.0  0.4258016937752913  0.37415721035303307  0.20790248740265585  1.0000
  N   N2        1.0  0.48426364255769977  0.4700234467672715  0.8022552742179629  1.0000
  N   N3        1.0  0.8603667407153496  0.5371532476638308  0.4962723605365441  1.0000
  N   N4        1.0  0.1461771163132326  0.5102851514993674  0.499669124434064  1.0000
  O   O1        1.0  0.410137370765746  0.3230057469664942  0.49854027735018763  1.0000
  O   O2        1.0  0.37654271576712267  0.4804923405143526  0.5772482465761117  1.0000
  O   O3        1.0  0.6049241644222293  0.5368037024190002  0.5758989202860222  1.0000
  O   O4        1.0  0.5951058595692161  0.23797174804936114  0.2077210851809426  1.0000
  O   O5        1.0  0.5570215077262546  0.7162884788954857  0.6559155695745318  1.0000
  O   O6        1.0  0.24194316678789116  0.8845778443414788  0.4391975065813868  1.0000
  O   O7        1.0  0.14777928397369783  0.08423414417953978  0.5342770360380555  1.0000
  O   O8        1.0  0.8669317455040115  0.6504288691816384  0.5634190253483028  1.0000
  O   O9        1.0  0.08900049403296609  0.26062103779356244  0.4277856134147698  1.0000
  O   O10       1.0  0.4512315343040285  0.2821408984367011  0.6431723956062074  1.0000
  O   O11       1.0  0.7219688183608356  0.20283650834995368  0.8780752119875785  1.0000
  O   O12       1.0  0.6631380476992064  0.3451838837010045  0.7985275633291524  1.0000
  O   O13       1.0  0.652263556652912  0.12110576517869728  0.0340003631694685  1.0000
  O   O14       1.0  0.2443680604304248  0.4975822690174283  0.20990983671786986  1.0000
  O   O15       1.0  0.3134092522711285  0.6049099718676203  0.8062818742948537  1.0000
  O   O16       1.0  0.6382806555645644  0.33604845532475036  0.5158362510042666  1.0000
  O   O17       1.0  0.37917916094166054  0.5092133576038619  0.4289003208247379  1.0000
  O   O18       1.0  0.6073305282144474  0.4785892351575571  0.4297456602683171  1.0000
  O   O19       1.0  0.40015542642613877  0.6834855078913692  0.512503042559338  1.0000
  O   O20       1.0  0.6255899044335251  0.700267644582354  0.49206451032532783  1.0000
  F   F1        1.0  0.3689312833433505  0.2555940732997328  0.3746547951281869  1.0000
  F   F2        1.0  0.4229764012989178  0.26930360393490094  0.7443986922169402  1.0000
  F   F3        1.0  0.5998505115848616  0.641348293603194  0.33527708998818184  1.0000
  F   F4        1.0  0.5648007520598882  0.5890011005868204  0.2397728827167143  1.0000
  F   F5        1.0  0.24023831126825707  0.6662669349496396  0.9816403459247526  1.0000
  F   F6        1.0  0.5595022168997802  0.6951878923605153  0.7568035147266272  1.0000
  F   F7        1.0  0.10604941969931048  0.5335335496045914  0.0362313739934592  1.0000
  F   F8        1.0  0.7525868055929621  0.9040999210999204  0.5380164150295101  1.0000
  F   F9        1.0  0.33106808078010636  0.20499690885586833  0.2792066611494164  1.0000
  F   F10       1.0  0.15481555136738484  0.8507749090614072  0.511348827366767  1.0000
  F   F11       1.0  0.1571175426557119  0.6249188018965273  0.5685129937293993  1.0000
