data_image0
_chemical_formula_structural       Cu2H16C24N4O12
_chemical_formula_sum              "Cu2 H16 C24 N4 O12"
_cell_length_a       3.740366182745973
_cell_length_b       12.079421304712923
_cell_length_c       12.492751550330889
_cell_angle_alpha    90.000081509707
_cell_angle_beta     89.99916170857908
_cell_angle_gamma    92.7711141229343

_space_group_name_H-M_alt    "P 1"
_space_group_IT_number       1

loop_
  _space_group_symop_operation_xyz
  'x, y, z'

loop_
  _atom_site_type_symbol
  _atom_site_label
  _atom_site_symmetry_multiplicity
  _atom_site_fract_x
  _atom_site_fract_y
  _atom_site_fract_z
  _atom_site_occupancy
  Cu  Cu1       1.0  0.9999971678084948  0.9999972035491214  0.49999883877089957  1.0000
  Cu  Cu2       1.0  3.2744215872073397e-06  0.5000037840991284  1.1526638558999997e-06  1.0000
  H   H1        1.0  0.7878065822545539  0.29054307918661243  0.8048451797545154  1.0000
  H   H2        1.0  0.212208241138768  0.20946779471584884  0.3048396492604013  1.0000
  H   H3        1.0  0.21216744052343026  0.7094526995254286  0.1951571991191798  1.0000
  H   H4        1.0  0.7877947506596997  0.7905386197259574  0.6951539244510768  1.0000
  H   H5        1.0  0.226256085924966  0.0021548224460304  0.9390208188107181  1.0000
  H   H6        1.0  0.7737398143385833  0.4978479146739899  0.4390308297179786  1.0000
  H   H7        1.0  0.7737120738094492  0.9978384976325503  0.0609727549682972  1.0000
  H   H8        1.0  0.2262673030589681  0.5021526713083375  0.5609739504786758  1.0000
  H   H9        1.0  0.3428102792252616  0.9041155221325354  0.7698919232860247  1.0000
  H   H10       1.0  0.6572040782461173  0.5958996215539472  0.2699034825337563  1.0000
  H   H11       1.0  0.6571927774366773  0.09587844792083187  0.23010485227322158  1.0000
  H   H12       1.0  0.342825449766586  0.4041058266931542  0.7301004971527687  1.0000
  H   H13       1.0  0.469726277169734  0.20206886008026703  0.9604576539987375  1.0000
  H   H14       1.0  0.5302628951760654  0.2979322623419591  0.46045564898838615  1.0000
  H   H15       1.0  0.5302156934786311  0.7979270836168907  0.039539922160692194  1.0000
  H   H16       1.0  0.4697465459392518  0.7020666524701511  0.5395419270244446  1.0000
  C   C1        1.0  0.7387349444378516  0.14760771219003743  0.7051713887720226  1.0000
  C   C2        1.0  0.26129237387495863  0.35240139224787725  0.2051746484328874  1.0000
  C   C3        1.0  0.2612709568862499  0.8523870728252306  0.2948293891023752  1.0000
  C   C4        1.0  0.7387104439715628  0.6476041934876733  0.7948277303842629  1.0000
  C   C5        1.0  0.9295218267150033  0.20768777789519532  0.6136115174769117  1.0000
  C   C6        1.0  0.07050475956082639  0.29232211771330435  0.1136203362098911  1.0000
  C   C7        1.0  0.07048133851181146  0.7923194652605331  0.3863948636614864  1.0000
  C   C8        1.0  0.9295013593778451  0.7076992134995806  0.8863796412185607  1.0000
  C   C9        1.0  0.6848112996840926  0.2049404664894823  0.800472410679724  1.0000
  C   C10       1.0  0.3152174381344111  0.2950719929815193  0.3004681477129836  1.0000
  C   C11       1.0  0.3151764256542435  0.7950569008970874  0.1995307686290602  1.0000
  C   C12       1.0  0.6847907219858129  0.7049335652528157  0.6995246255223293  1.0000
  C   C13       1.0  0.375147351213478  0.0464060144402083  0.8763201634163663  1.0000
  C   C14       1.0  0.624866506106784  0.45360406777749057  0.37632036217762993  1.0000
  C   C15       1.0  0.624833989787831  0.9535864081859058  0.12367741265381939  1.0000
  C   C16       1.0  0.3751391566540008  0.5464023329162656  0.6236756129204578  1.0000
  C   C17       1.0  0.4347915609591766  0.9895906586310301  0.7828352864118671  1.0000
  C   C18       1.0  0.5652314636040288  0.5104178095779587  0.2828439287839757  1.0000
  C   C19       1.0  0.5652089983821114  0.0104041538811828  0.2171630900818187  1.0000
  C   C20       1.0  0.4347833192807897  0.4895810777403327  0.7171648537154454  1.0000
  C   C21       1.0  0.5054148256731139  0.15592841286650838  0.8869044911958639  1.0000
  C   C22       1.0  0.4945942841788095  0.34407423223344574  0.3869027084496395  1.0000
  C   C23       1.0  0.4945561787040731  0.8440657221742569  0.11309388536248119  1.0000
  C   C24       1.0  0.5054208463190193  0.6559263125016129  0.613100470800994  1.0000
  N   N1        1.0  0.6152536883897426  0.0389397184542801  0.6995835439875506  1.0000
  N   N2        1.0  0.3847804589142143  0.46107515548178674  0.1995856120012078  1.0000
  N   N3        1.0  0.384752039176341  0.9610542378518899  0.3004180343508196  1.0000
  N   N4        1.0  0.6152283960053921  0.5389337175923358  0.8004135649482719  1.0000
  O   O1        1.0  0.0716257999978893  0.15306082920660202  0.5369136933595513  1.0000
  O   O2        1.0  0.9283845893156412  0.3469433071960638  0.0369196082200602  1.0000
  O   O3        1.0  0.9283662250272259  0.846931538424755  0.4630862840795587  1.0000
  O   O4        1.0  0.0716184022888982  0.6530631072485847  0.9630819701331105  1.0000
  O   O5        1.0  0.6461208605544257  0.9743555842739509  0.6134758027209485  1.0000
  O   O6        1.0  0.3539028784590528  0.5256552910038437  0.1134749919934563  1.0000
  O   O7        1.0  0.3538930538311647  0.0256391594946095  0.3865249751357638  1.0000
  O   O8        1.0  0.6461083000231795  0.4743519109023423  0.8865233844855495  1.0000
  O   O9        1.0  0.9495471689595122  0.3107442592428383  0.6192187974487382  1.0000
  O   O10       1.0  0.05046492165494949  0.1892615655488967  0.1192347634658262  1.0000
  O   O11       1.0  0.05046750526346235  0.6892413549745128  0.3807843817923811  1.0000
  O   O12       1.0  0.9495415008074772  0.81073570559564  0.8807692162658609  1.0000
