data_image0
_chemical_formula_structural       Zn4H8C20N40
_chemical_formula_sum              "Zn4 H8 C20 N40"
_cell_length_a       8.757083164953123
_cell_length_b       8.757079732345975
_cell_length_c       16.901698951700702
_cell_angle_alpha    92.04776549570667
_cell_angle_beta     92.04785711031109
_cell_angle_gamma    119.32973367216962

_space_group_name_H-M_alt    "P 1"
_space_group_IT_number       1

loop_
  _space_group_symop_operation_xyz
  'x, y, z'

loop_
  _atom_site_type_symbol
  _atom_site_label
  _atom_site_symmetry_multiplicity
  _atom_site_fract_x
  _atom_site_fract_y
  _atom_site_fract_z
  _atom_site_occupancy
  Zn  Zn1       1.0  0.3144594953373243  0.6488856942313957  0.3059047147313122  1.0000
  Zn  Zn2       1.0  0.6488854505181294  0.3144607884643306  0.805903659821844  1.0000
  Zn  Zn3       1.0  0.07974645992204904  0.9000937191411607  0.3744331382959699  1.0000
  Zn  Zn4       1.0  0.9000933340825981  0.079747978598121  0.8744328762316086  1.0000
  H   H1        1.0  0.20988345158227867  0.19305003505435528  0.0685230960520826  1.0000
  H   H2        1.0  0.1930493217094025  0.20988387461123634  0.5685224629828128  1.0000
  H   H3        1.0  0.6769834393694224  0.8413444521386069  0.6120122531474053  1.0000
  H   H4        1.0  0.8413446620460973  0.6769812828931947  0.1120123125012285  1.0000
  H   H5        1.0  0.22670696925398195  0.48779883554623626  0.0987467523243097  1.0000
  H   H6        1.0  0.4877968169438062  0.22670423603466358  0.5987461483377743  1.0000
  H   H7        1.0  0.962447007309066  0.8496823160278096  0.5849690449808946  1.0000
  H   H8        1.0  0.8496826053486186  0.9624444268619142  0.0849707589149418  1.0000
  C   C1        1.0  0.20040798062845508  0.28384064181626195  0.3397014866771713  1.0000
  C   C2        1.0  0.2838407378304025  0.20040886902163624  0.8397009190958826  1.0000
  C   C3        1.0  0.20122095889713879  0.2776476441372323  0.2546451241253322  1.0000
  C   C4        1.0  0.2776454210226759  0.2012177035360736  0.7546444304361017  1.0000
  C   C5        1.0  0.21855462319609836  0.3975009889758282  0.1426887394512093  1.0000
  C   C6        1.0  0.39750157724017743  0.21855535728874995  0.6426882175441263  1.0000
  C   C7        1.0  0.20029888687373185  0.16149044863808365  0.1960614771216811  1.0000
  C   C8        1.0  0.16149148416916148  0.20030127394890931  0.6960597225069378  1.0000
  C   C9        1.0  0.21063826829400506  0.002580325475498999  0.1993014210801149  1.0000
  C   C10       1.0  0.002580338516970881  0.2106394808972779  0.6993001467170927  1.0000
  C   C11       1.0  0.7073442709982984  0.7795136367401198  0.3417434569354895  1.0000
  C   C12       1.0  0.7795138780176029  0.7073442033342726  0.8417440525841399  1.0000
  C   C13       1.0  0.7233950291807004  0.8045437553570306  0.42689421085959367  1.0000
  C   C14       1.0  0.8045436560203426  0.723395485256546  0.9268948136878874  1.0000
  C   C15       1.0  0.8652891694597569  0.8371334929393937  0.5398849758860607  1.0000
  C   C16       1.0  0.837136141101986  0.8652901137355613  0.03988624509804589  1.0000
  C   C17       1.0  0.6195526736559386  0.8139604281181502  0.485214448023207  1.0000
  C   C18       1.0  0.8139608837778737  0.6195522874239144  0.985214500234413  1.0000
  C   C19       1.0  0.4607115355937807  0.825068152025885  0.48196678520347547  1.0000
  C   C20       1.0  0.8250675810781375  0.460709878690153  0.9819668634143567  1.0000
  N   N1        1.0  0.16586564310674135  0.16259016447099134  0.3927769020956973  1.0000
  N   N2        1.0  0.16258986223026284  0.1658679018184728  0.8927763174352987  1.0000
  N   N3        1.0  0.18353586786943774  0.24627917892843237  0.46477781324072237  1.0000
  N   N4        1.0  0.24627857736317788  0.1835363054597465  0.9647778069227612  1.0000
  N   N5        1.0  0.22704371889172847  0.4098059363501889  0.4557077572861488  1.0000
  N   N6        1.0  0.4098049632791144  0.22704371803896345  0.9557071931619345  1.0000
  N   N7        1.0  0.237633969907364  0.43688322644484145  0.3779632755793116  1.0000
  N   N8        1.0  0.43688379896853036  0.23763482022680188  0.877963355585031  1.0000
  N   N9        1.0  0.2147837885118662  0.4245168269891123  0.22015160553822  1.0000
  N   N10       1.0  0.4245168881477213  0.21478346103549475  0.7201516576420557  1.0000
  N   N11       1.0  0.2091715170711552  0.2409217191384272  0.125933908376588  1.0000
  N   N12       1.0  0.24092274792111817  0.2091744461610361  0.6259327846061992  1.0000
  N   N13       1.0  0.21135248486337593  0.9220747225170101  0.2657998589262008  1.0000
  N   N14       1.0  0.9220745433137053  0.2113505741883728  0.7657983070568901  1.0000
  N   N15       1.0  0.23154850369584073  0.7862445575740793  0.23983524647060514  1.0000
  N   N16       1.0  0.7862455638086985  0.2315501032419433  0.7398343117084849  1.0000
  N   N17       1.0  0.24339015810813433  0.7848800276317076  0.16180424853781963  1.0000
  N   N18       1.0  0.7848790426188327  0.24339275010510153  0.6618038809642355  1.0000
  N   N19       1.0  0.23054844915711925  0.9192140917212722  0.1348141818579691  1.0000
  N   N20       1.0  0.9192126890672511  0.2305502935189381  0.6348126691992775  1.0000
  N   N21       1.0  0.5711414946895842  0.7295352556511431  0.28876160929370087  1.0000
  N   N22       1.0  0.7295347699914672  0.5711412419449572  0.7887616313093915  1.0000
  N   N23       1.0  0.629469471046292  0.7159773822226185  0.2168815962860648  1.0000
  N   N24       1.0  0.7159777146482252  0.6294705609106752  0.7168822216328434  1.0000
  N   N25       1.0  0.7943414824514788  0.7569437853376967  0.22624436462839265  1.0000
  N   N26       1.0  0.7569438531564573  0.7943421153192674  0.7262449253244511  1.0000
  N   N27       1.0  0.8470349527600829  0.7972501431637224  0.303778239084842  1.0000
  N   N28       1.0  0.7972497750706394  0.8470346062432625  0.8037787677071577  1.0000
  N   N29       1.0  0.8768024139657765  0.8221017598580856  0.4622497766611602  1.0000
  N   N30       1.0  0.8221040417633674  0.8768035412172424  0.9622509735522229  1.0000
  N   N31       1.0  0.7127089609177445  0.8321828938165154  0.5557557094600156  1.0000
  N   N32       1.0  0.8321840748035497  0.7127088332711792  0.0557563992356833  1.0000
  N   N33       1.0  0.36237800431762685  0.8079221376839385  0.4154824273306517  1.0000
  N   N34       1.0  0.8079206905233534  0.3623771452489634  0.9154819457349532  1.0000
  N   N35       1.0  0.23473177006632534  0.8367642548099706  0.4412773880471547  1.0000
  N   N36       1.0  0.8367635366219728  0.23473037060060153  0.94127697432166  1.0000
  N   N37       1.0  0.2552386570670749  0.8710659717110472  0.5192592632312055  1.0000
  N   N38       1.0  0.8710660310976478  0.25523742932780635  0.0192589311958287  1.0000
  N   N39       1.0  0.3963526519550483  0.8646977741978005  0.5463143128230001  1.0000
  N   N40       1.0  0.8646981819422521  0.3963523660689745  0.046313944813356  1.0000
