data_image0
_chemical_formula_structural       Cd2H28C44N24
_chemical_formula_sum              "Cd2 H28 C44 N24"
_cell_length_a       6.903040979401682
_cell_length_b       6.90304284300016
_cell_length_c       22.79023773625566
_cell_angle_alpha    93.51827967576006
_cell_angle_beta     93.51825327230245
_cell_angle_gamma    108.68693399700686

_space_group_name_H-M_alt    "P 1"
_space_group_IT_number       1

loop_
  _space_group_symop_operation_xyz
  'x, y, z'

loop_
  _atom_site_type_symbol
  _atom_site_label
  _atom_site_symmetry_multiplicity
  _atom_site_fract_x
  _atom_site_fract_y
  _atom_site_fract_z
  _atom_site_occupancy
  Cd  Cd1       1.0  0.5704233801072648  0.4295755790304129  0.7500000532115647  1.0000
  Cd  Cd2       1.0  0.4295771823437207  0.5704276067241025  0.2499997690976414  1.0000
  H   H1        1.0  0.2027900261090707  0.0585223820442664  0.898996313201131  1.0000
  H   H2        1.0  0.9414817733044885  0.7972131907916377  0.601003998203083  1.0000
  H   H3        1.0  0.7972149416982859  0.9414809186239878  0.10100316837835517  1.0000
  H   H4        1.0  0.058517827260146815  0.20278690390697562  0.3989961749801694  1.0000
  H   H5        1.0  0.0006001980451913555  0.9284806622778347  0.8020758183928931  1.0000
  H   H6        1.0  0.07152375738191807  0.9994041411950289  0.6979241600116167  1.0000
  H   H7        1.0  0.999402816667086  0.07152105085814499  0.19792402518183388  1.0000
  H   H8        1.0  0.9284816580705738  0.0006006717035447094  0.3020758029656462  1.0000
  H   H9        1.0  0.5251835218246299  0.1404560581389447  0.8686183031127754  1.0000
  H   H10       1.0  0.8595389732718246  0.4748129555821449  0.6313820857988972  1.0000
  H   H11       1.0  0.474815653293561  0.8595425465277771  0.13138095078281956  1.0000
  H   H12       1.0  0.1404567655000264  0.5251840084487823  0.3686179355951039  1.0000
  H   H13       1.0  0.7400327402431232  0.25116865402328875  0.9636330369754162  1.0000
  H   H14       1.0  0.7488256150421576  0.2599637670081663  0.5363682063849067  1.0000
  H   H15       1.0  0.25996691184257503  0.7488268682942162  0.03636703807081429  1.0000
  H   H16       1.0  0.2511661953408364  0.7400299997598053  0.46363297688945676  1.0000
  H   H17       1.0  0.3371825808420256  0.8243416446613667  0.5750851867219565  1.0000
  H   H18       1.0  0.1756567388899342  0.6628145677211136  0.9249144734218646  1.0000
  H   H19       1.0  0.6628117412746591  0.17565533286128954  0.42491392650558163  1.0000
  H   H20       1.0  0.824343830684725  0.3371840012554513  0.07508612653007418  1.0000
  H   H21       1.0  0.2704609416865082  0.2252522429763175  0.5118016666519836  1.0000
  H   H22       1.0  0.7747472183735482  0.7295393076742297  0.9881989242916301  1.0000
  H   H23       1.0  0.7295396500868562  0.7747463481986615  0.48819849541007426  1.0000
  H   H24       1.0  0.22525282983621514  0.270462299254703  0.011801730289413098  1.0000
  H   H25       1.0  0.41686786210320287  0.16735959954801416  0.6119275593857479  1.0000
  H   H26       1.0  0.832641991444831  0.5831361400232352  0.8880727059621805  1.0000
  H   H27       1.0  0.5831346827652408  0.8326405791592318  0.38807224068106183  1.0000
  H   H28       1.0  0.1673585044100676  0.4168669791360172  0.11192843001665406  1.0000
  C   C1        1.0  0.051126618688563504  0.0744689839065273  0.8907036841303082  1.0000
  C   C2        1.0  0.925532286499944  0.9488741371525007  0.6092965230677975  1.0000
  C   C3        1.0  0.948874487326016  0.925531186094034  0.10929564565991257  1.0000
  C   C4        1.0  0.07446684422085778  0.051124423117371996  0.3907036066075449  1.0000
  C   C5        1.0  0.9391429673398833  0.002431518811278003  0.8363958562899896  1.0000
  C   C6        1.0  0.9975728657161511  0.06086226003203171  0.6636053254484293  1.0000
  C   C7        1.0  0.06085953313117189  0.9975686154991266  0.16360481955657488  1.0000
  C   C8        1.0  0.0024296054325318723  0.9391424688579091  0.33639501064528327  1.0000
  C   C9        1.0  0.7462168499948375  0.02770870731341552  0.8269176666262296  1.0000
  C   C10       1.0  0.97229185229466  0.2537828649217886  0.6730824501304652  1.0000
  C   C11       1.0  0.2537861869161304  0.9722930280209922  0.17308173905862387  1.0000
  C   C12       1.0  0.02770636093717371  0.7462126486890313  0.326917154639183  1.0000
  C   C13       1.0  0.6751918487778352  0.1200703081484988  0.873543412281961  1.0000
  C   C14       1.0  0.8799300890453453  0.3248114992358779  0.6264572302127148  1.0000
  C   C15       1.0  0.3248126491856951  0.879931458091015  0.1264560257896079  1.0000
  C   C16       1.0  0.1200651061629117  0.6751884805489965  0.3735432837002647  1.0000
  C   C17       1.0  0.7975870203893153  0.18393350862471894  0.9266579218741454  1.0000
  C   C18       1.0  0.816062609397683  0.202409545854735  0.5733420375251227  1.0000
  C   C19       1.0  0.20241121504121654  0.8160620271845146  0.07334124500562209  1.0000
  C   C20       1.0  0.18393119847778655  0.797585852842346  0.42665790797424546  1.0000
  C   C21       1.0  0.6255582736875525  0.9619400425750584  0.7698916430750344  1.0000
  C   C22       1.0  0.0380607704214029  0.37444571394330245  0.730109085319789  1.0000
  C   C23       1.0  0.37444673851720006  0.0380633024900305  0.2301069627246903  1.0000
  C   C24       1.0  0.9619397920295896  0.6255574718112057  0.2698907369894172  1.0000
  C   C25       1.0  0.4919311198468179  0.8006661281676841  0.6873972277186127  1.0000
  C   C26       1.0  0.19933064250200522  0.5080677568899574  0.8126028611750229  1.0000
  C   C27       1.0  0.5080680108739841  0.1993324321021888  0.3126029019567298  1.0000
  C   C28       1.0  0.8006675414074563  0.4919323513003845  0.18739640384176676  1.0000
  C   C29       1.0  0.43210955155216624  0.6430220715265946  0.6382676601090863  1.0000
  C   C30       1.0  0.35697770086066777  0.5678887876769139  0.8617337919256157  1.0000
  C   C31       1.0  0.5678866570635108  0.35697642693306625  0.36173240479282487  1.0000
  C   C32       1.0  0.6430228687139987  0.4321097812996441  0.13826680802631588  1.0000
  C   C33       1.0  0.3529107335634052  0.6753251766287673  0.5827409797792312  1.0000
  C   C34       1.0  0.3246750632771053  0.6470837352315327  0.9172595285572739  1.0000
  C   C35       1.0  0.6470840583971054  0.32467333532262904  0.41725817695621703  1.0000
  C   C36       1.0  0.6753264531088944  0.352913285824556  0.08274193605321757  1.0000
  C   C37       1.0  0.3188132893947397  0.3477281126610308  0.5478701225572209  1.0000
  C   C38       1.0  0.652274346644667  0.6811850347212313  0.952130058055765  1.0000
  C   C39       1.0  0.6811848945147222  0.6522719955293114  0.4521291424595687  1.0000
  C   C40       1.0  0.34772669277382556  0.3188150686840671  0.04787058540408399  1.0000
  C   C41       1.0  0.3996145103642519  0.314113303692487  0.6024687937796144  1.0000
  C   C42       1.0  0.6858864172036121  0.600386076189899  0.8975318072708802  1.0000
  C   C43       1.0  0.6003850902003763  0.6858867910061264  0.3975313794036381  1.0000
  C   C44       1.0  0.31411172230846063  0.39961398760360817  0.102468333525664  1.0000
  N   N1        1.0  0.9845516629603637  0.16479540693300265  0.9354720322681302  1.0000
  N   N2        1.0  0.8352033550727141  0.015448383340874703  0.564528045506897  1.0000
  N   N3        1.0  0.015449942220421028  0.8352017029167695  0.0645276807828594  1.0000
  N   N4        1.0  0.1647928313442719  0.9845500929203723  0.43547245728489503  1.0000
  N   N5        1.0  0.6042932528610974  0.7855129336658635  0.7370435786050392  1.0000
  N   N6        1.0  0.21448515652628697  0.3957084329519773  0.7629579074617112  1.0000
  N   N7        1.0  0.39570681754736364  0.21448869546149044  0.26295663808613057  1.0000
  N   N8        1.0  0.7855173368210869  0.6042963181363773  0.23704199074212795  1.0000
  N   N9        1.0  0.44456613851266275  0.9746036645400623  0.6886750965744639  1.0000
  N   N10       1.0  0.025393703760322222  0.5554333821609632  0.8113263514676916  1.0000
  N   N11       1.0  0.555434945303226  0.025396483262085212  0.3113246711056305  1.0000
  N   N12       1.0  0.9746063959705111  0.4445636523868614  0.18867420497632983  1.0000
  N   N13       1.0  0.5290586759082032  0.07754365692500902  0.7417017292921243  1.0000
  N   N14       1.0  0.922455061900898  0.4709415963248986  0.7582992561755119  1.0000
  N   N15       1.0  0.47094532288912216  0.9224611694652933  0.2582973255186829  1.0000
  N   N16       1.0  0.07754404662121318  0.5290569417465533  0.24170131138970413  1.0000
  N   N17       1.0  0.4581726961378719  0.46125422869631894  0.6472809095223367  1.0000
  N   N18       1.0  0.5387464591599241  0.5418240185724629  0.8527191958752592  1.0000
  N   N19       1.0  0.5418254877715895  0.5387458794940301  0.3527183554944529  1.0000
  N   N20       1.0  0.46125557146730506  0.45817458130920835  0.14728143646339478  1.0000
  N   N21       1.0  0.29770441224836464  0.5302040855041881  0.537878706096201  1.0000
  N   N22       1.0  0.4697935018414085  0.702291248392214  0.9621213253252918  1.0000
  N   N23       1.0  0.7022913487221843  0.4697929007251532  0.4621208774079264  1.0000
  N   N24       1.0  0.5302041678268311  0.2977072809725527  0.037878771963335084  1.0000
