data_image0
_chemical_formula_structural       K4H28Ru2C32N12O6
_chemical_formula_sum              "K4 H28 Ru2 C32 N12 O6"
_cell_length_a       6.895211773771464
_cell_length_b       10.20472542142777
_cell_length_c       15.48701026146732
_cell_angle_alpha    70.74097480539994
_cell_angle_beta     85.27677164263021
_cell_angle_gamma    75.53640719866848

_space_group_name_H-M_alt    "P 1"
_space_group_IT_number       1

loop_
  _space_group_symop_operation_xyz
  'x, y, z'

loop_
  _atom_site_type_symbol
  _atom_site_label
  _atom_site_symmetry_multiplicity
  _atom_site_fract_x
  _atom_site_fract_y
  _atom_site_fract_z
  _atom_site_occupancy
  K   K1        1.0  0.8408642793998528  0.12372007024585947  0.9258714604510415  1.0000
  K   K2        1.0  0.3414042966863349  0.048865713472409304  0.0743898117071637  1.0000
  K   K3        1.0  0.39717487601606677  0.4853361754044128  0.9332942326928446  1.0000
  K   K4        1.0  0.897169651111682  0.41902686752704443  0.06655208038489487  1.0000
  H   H1        1.0  0.5750955296952897  0.292473123951666  0.6921514234196593  1.0000
  H   H2        1.0  0.07516687168485739  0.9846276161150979  0.307829562017872  1.0000
  H   H3        1.0  0.7705271510053824  0.30570602751230797  0.5505790806004284  1.0000
  H   H4        1.0  0.270613333096293  0.8561343358542997  0.44940625316486665  1.0000
  H   H5        1.0  0.6043862962819662  0.450072568187757  0.3966597180934883  1.0000
  H   H6        1.0  0.10459727247877053  0.8466680231991928  0.6033212403495226  1.0000
  H   H7        1.0  0.2886551765897211  0.6087321520681713  0.31219478819390634  1.0000
  H   H8        1.0  0.7889860351703395  0.9208613178531805  0.6877747453344654  1.0000
  H   H9        1.0  0.9224143922770058  0.7159916089975767  0.3157493077039604  1.0000
  H   H10       1.0  0.42270644945681113  0.031608634928893736  0.6842192920193924  1.0000
  H   H11       1.0  0.6093046193578859  0.7645856076320497  0.4082398377235421  1.0000
  H   H12       1.0  0.10956030370520158  0.17254433547826395  0.5917926885929674  1.0000
  H   H13       1.0  0.45474138665262165  0.7360903020076036  0.5663324372391045  1.0000
  H   H14       1.0  0.9547370232799113  0.30209977799889737  0.43374118924609917  1.0000
  H   H15       1.0  0.6634274559348514  0.5945832079394363  0.703297428518596  1.0000
  H   H16       1.0  0.16326587452118  0.2975645094572812  0.2967198376069291  1.0000
  H   H17       1.0  0.6128610651313411  0.7751193304020275  0.8017079584498105  1.0000
  H   H18       1.0  0.11274811887463453  0.5764727900949252  0.19834607037909538  1.0000
  H   H19       1.0  0.3888174471652522  0.7662609864237454  0.8007143926120719  1.0000
  H   H20       1.0  0.8886683783611179  0.5665985066868727  0.1993381888848731  1.0000
  H   H21       1.0  0.9664980099589331  0.734197626148017  0.9526440119705198  1.0000
  H   H22       1.0  0.46621920935600514  0.6864099149680384  0.04740938581245049  1.0000
  H   H23       1.0  0.04358416352739174  0.6629973399872142  0.054005154142508616  1.0000
  H   H24       1.0  0.5432634422245431  0.7172130664413672  0.9459931519581489  1.0000
  H   H25       1.0  0.794385041766283  0.8448909929790672  0.10047264117219609  1.0000
  H   H26       1.0  0.29374444084988494  0.9460775560875022  0.8995021930911945  1.0000
  H   H27       1.0  0.6755189189193305  0.8075230906987867  0.03413674922298778  1.0000
  H   H28       1.0  0.17539891424129947  0.8419273191914979  0.9658312813809005  1.0000
  Ru  Ru1       1.0  0.11919997928657029  0.4215957563112198  0.7412645841698193  1.0000
  Ru  Ru2       1.0  0.6191695790833551  0.16271944135765895  0.2587066763581021  1.0000
  C   C1        1.0  0.504317712212007  0.3538201229483135  0.6259867788780085  1.0000
  C   C2        1.0  0.004391916527929372  0.9797890593885155  0.3739909870295648  1.0000
  C   C3        1.0  0.6137267940962591  0.3626008600213169  0.5446974597826539  1.0000
  C   C4        1.0  0.11384401787501035  0.9072032134209633  0.4552721321566225  1.0000
  C   C5        1.0  0.5227235289903407  0.4412780402918343  0.4610074434866788  1.0000
  C   C6        1.0  0.022948110269936838  0.9022152276190171  0.5389586441532259  1.0000
  C   C7        1.0  0.3177465943873302  0.5111944449572334  0.4592434184560261  1.0000
  C   C8        1.0  0.8179308494325  0.9703240491151705  0.5407180425910169  1.0000
  C   C9        1.0  0.21712646436073887  0.4963478682190753  0.5442551084973174  1.0000
  C   C10       1.0  0.7172432870230453  0.040503160008931616  0.4557067087359101  1.0000
  C   C11       1.0  0.009065328321952454  0.5629955796417151  0.5466002215778828  1.0000
  C   C12       1.0  0.5091509264385082  0.10937684593643837  0.4533751807127047  1.0000
  C   C13       1.0  0.2067103381194927  0.5936608155123579  0.3767433184013811  1.0000
  C   C14       1.0  0.7069495188788442  0.9702591106071877  0.6232377275423531  1.0000
  C   C15       1.0  0.006100375746712164  0.6541633593005257  0.3788244050338889  1.0000
  C   C16       1.0  0.5063505143676537  0.03280427954652504  0.621161857522722  1.0000
  C   C17       1.0  0.9013075408644372  0.6407902058435369  0.4640731178632293  1.0000
  C   C18       1.0  0.4015094223209985  0.10462982360461123  0.5359115757574955  1.0000
  C   C19       1.0  0.696180477415652  0.7047800962184282  0.47080587485192643  1.0000
  C   C20       1.0  0.19634381210951102  0.17525284367278002  0.5292077155444161  1.0000
  C   C21       1.0  0.611658998452434  0.6892161541112641  0.5567664611393112  1.0000
  C   C22       1.0  0.11166146742969847  0.24563518616020724  0.4432620881842624  1.0000
  C   C23       1.0  0.7280697950688764  0.6100776560769815  0.635124016435654  1.0000
  C   C24       1.0  0.22798333256607628  0.24489605307521603  0.364885233745575  1.0000
  C   C25       1.0  0.20144203418996667  0.5946083651529436  0.7478506144621945  1.0000
  C   C26       1.0  0.7011160287018401  0.3424354974849066  0.2520238395190261  1.0000
  C   C27       1.0  0.030778377966605402  0.24728592570082936  0.7381821895713757  1.0000
  C   C28       1.0  0.5309176450800523  0.9851877433259516  0.26188145177888333  1.0000
  C   C29       1.0  0.3151825549629097  0.2941069240048364  0.8355848052898125  1.0000
  C   C30       1.0  0.8154261253321098  0.12975379361594722  0.1644558993772378  1.0000
  C   C31       1.0  0.9202756096937252  0.4397110973653254  0.8359356039382604  1.0000
  C   C32       1.0  0.4201729943666949  0.27541799025130587  0.1640313626740237  1.0000
  N   N1        1.0  0.3103365506341761  0.41892622019580716  0.6263986509624573  1.0000
  N   N2        1.0  0.8104120736318452  0.04529296786009958  0.3735782665685718  1.0000
  N   N3        1.0  0.9721505281561351  0.14764156567903805  0.7387867485851061  1.0000
  N   N4        1.0  0.47229385328238765  0.8861257418228234  0.2613279244194898  1.0000
  N   N5        1.0  0.2504364724637613  0.6935945847699188  0.7552472401815038  1.0000
  N   N6        1.0  0.7501235785553819  0.44878198222208  0.24469237832997948  1.0000
  N   N7        1.0  0.9223771668068896  0.5482818104132505  0.6308103724052287  1.0000
  N   N8        1.0  0.42231723782356323  0.17884137935460132  0.3691755225113198  1.0000
  N   N9        1.0  0.43025534406496063  0.2190711160025955  0.8946103815835613  1.0000
  N   N10       1.0  0.9306802542343464  0.11380867103783025  0.10549392742349542  1.0000
  N   N11       1.0  0.7961310949718979  0.4491251918425477  0.8927616097657421  1.0000
  N   N12       1.0  0.2959805043764022  0.3417251135702201  0.10721195821358978  1.0000
  O   O1        1.0  0.4867665812156052  0.7935299934763121  0.8338324585217904  1.0000
  O   O2        1.0  0.98668318163778  0.6269813684737926  0.1661748675710228  1.0000
  O   O3        1.0  0.08767562559658197  0.6816869618376628  0.9883269108592856  1.0000
  O   O4        1.0  0.5874321415286445  0.670121838133106  0.011670127768816494  1.0000
  O   O5        1.0  0.7185328300069289  0.8876367401415096  0.04329785927976808  1.0000
  O   O6        1.0  0.21781022631109456  0.9314211190946581  0.9566487805279635  1.0000
