data_image0
_chemical_formula_structural       H32Pb2C28N4O14
_chemical_formula_sum              "H32 Pb2 C28 N4 O14"
_cell_length_a       7.552510428690419
_cell_length_b       7.700910598104089
_cell_length_c       15.175063530824225
_cell_angle_alpha    87.49150419990207
_cell_angle_beta     92.86529791413726
_cell_angle_gamma    115.62701737055889

_space_group_name_H-M_alt    "P 1"
_space_group_IT_number       1

loop_
  _space_group_symop_operation_xyz
  'x, y, z'

loop_
  _atom_site_type_symbol
  _atom_site_label
  _atom_site_symmetry_multiplicity
  _atom_site_fract_x
  _atom_site_fract_y
  _atom_site_fract_z
  _atom_site_occupancy
  H   H1        1.0  0.24736107453754394  0.8775494401158567  0.486409627655938  1.0000
  H   H2        1.0  0.7526740667363612  0.12242048964260019  0.5135928777094421  1.0000
  H   H3        1.0  0.29025269237443035  0.6692651525055877  0.20297656970605968  1.0000
  H   H4        1.0  0.7097464977280553  0.3306585131955797  0.797027061913326  1.0000
  H   H5        1.0  0.35740252558241553  0.8423710313300389  0.3445942151151726  1.0000
  H   H6        1.0  0.6425883376114285  0.1576351667558171  0.655390553228372  1.0000
  H   H7        1.0  0.6951094185982641  0.32082252603704825  0.2758267264535021  1.0000
  H   H8        1.0  0.30485654087630115  0.6791956580494442  0.7241752229872134  1.0000
  H   H9        1.0  0.7607755731642314  0.4956414097429445  0.4180189717893299  1.0000
  H   H10       1.0  0.23924579932963042  0.5043697219230266  0.5819907238972561  1.0000
  H   H11       1.0  0.6396272712637128  0.5295067793082707  0.5852917477063571  1.0000
  H   H12       1.0  0.36034018687499986  0.47055212015136755  0.4146979201144774  1.0000
  H   H13       1.0  0.5945750711096098  0.7306199770014601  0.5539758165948712  1.0000
  H   H14       1.0  0.40551994349538495  0.2695120520487961  0.44597202697961086  1.0000
  H   H15       1.0  0.5266532076618092  0.6189519539308178  0.6613350605372901  1.0000
  H   H16       1.0  0.47333925077550293  0.381233409518309  0.3386214095173372  1.0000
  H   H17       1.0  0.2349060242396916  0.9875663232603669  0.7656090346411945  1.0000
  H   H18       1.0  0.7650862330344383  0.012439075464691004  0.2343948845981245  1.0000
  H   H19       1.0  0.1348696792913557  0.1407862480016817  0.7218887095106866  1.0000
  H   H20       1.0  0.865172647147631  0.8592347125649906  0.278096238640643  1.0000
  H   H21       1.0  0.393510583780163  0.2068811783603124  0.7103836869828442  1.0000
  H   H22       1.0  0.606529098288114  0.7931172211304159  0.2896251860255177  1.0000
  H   H23       1.0  0.41860715031717183  0.5049829192179018  0.10711044388244059  1.0000
  H   H24       1.0  0.5813513903562182  0.4949927632973895  0.8929109421599648  1.0000
  H   H25       1.0  0.6412679254333966  0.5805504699186483  0.1744357813874231  1.0000
  H   H26       1.0  0.3587077310981926  0.41938282273756755  0.8255732193311971  1.0000
  H   H27       1.0  0.6302872024390922  0.4837886938186314  0.0701923638398867  1.0000
  H   H28       1.0  0.3696382071104481  0.5161573484584423  0.9298109060631033  1.0000
  H   H29       1.0  0.4768413435958793  0.8573335612376595  0.8439029827709774  1.0000
  H   H30       1.0  0.5231400924670809  0.14263122136461698  0.1561090808817482  1.0000
  H   H31       1.0  0.6752854790221863  0.8840401576941658  0.797366081678831  1.0000
  H   H32       1.0  0.32469623280201915  0.11593791187921448  0.2026372728989472  1.0000
  Pb  Pb1       1.0  0.8125008082928176  0.15632942332030808  0.9726567840920168  1.0000
  Pb  Pb2       1.0  0.1874676137722561  0.8436242244089129  0.027344602315103803  1.0000
  C   C1        1.0  0.9481264555980574  0.38416777894315157  0.1438072763117972  1.0000
  C   C2        1.0  0.0518603358727674  0.6157947296199423  0.8561917336308582  1.0000
  C   C3        1.0  0.9877405116950727  0.48535467753455913  0.2298783418761872  1.0000
  C   C4        1.0  0.012253427169291281  0.5146146435231598  0.7701306194673522  1.0000
  C   C5        1.0  0.17441238329683265  0.6311739142204755  0.2500712966432985  1.0000
  C   C6        1.0  0.8255614451543352  0.368799164078183  0.7499128443169809  1.0000
  C   C7        1.0  0.2125481712946354  0.7280263861027976  0.3289850796738563  1.0000
  C   C8        1.0  0.7874555726136236  0.27197214112624835  0.6710138651393436  1.0000
  C   C9        1.0  0.8391621850388375  0.4366561196985543  0.2911627096986464  1.0000
  C   C10       1.0  0.16081352178862574  0.5633473033445425  0.7088507964379644  1.0000
  C   C11       1.0  0.8744449708664136  0.5320287517406683  0.37010973855541357  1.0000
  C   C12       1.0  0.12555155849478442  0.46798987946252163  0.6298875273350008  1.0000
  C   C13       1.0  0.062136386005512516  0.6782322129613972  0.3888128349856999  1.0000
  C   C14       1.0  0.9378829073338723  0.3217808975881695  0.6111836158040944  1.0000
  C   C15       1.0  0.007685531321108514  0.8472695506554118  0.5971894962578901  1.0000
  C   C16       1.0  0.9923466782180057  0.15275778894508824  0.40281232285134655  1.0000
  C   C17       1.0  0.8320481164556244  0.7935270714318038  0.6502159377062924  1.0000
  C   C18       1.0  0.1679740408556185  0.2065263178284907  0.3497788090201439  1.0000
  C   C19       1.0  0.6355662188487516  0.6590077900275232  0.6103335927591402  1.0000
  C   C20       1.0  0.36446416898152023  0.3411058107106584  0.38963033367968347  1.0000
  C   C21       1.0  0.20666907817356883  0.9868005629349669  0.6250362736188038  1.0000
  C   C22       1.0  0.7933701192575102  0.013190905339648394  0.3749667336863851  1.0000
  C   C23       1.0  0.24541571125163136  0.08886613158573908  0.7102395506130605  1.0000
  C   C24       1.0  0.7546111879003946  0.9111368445839148  0.2897604548518089  1.0000
  C   C25       1.0  0.6586732813446974  0.7721769139532526  0.0657484108260888  1.0000
  C   C26       1.0  0.3413079188688998  0.22779642578591813  0.9342648727266436  1.0000
  C   C27       1.0  0.5795186336000597  0.5725853463514097  0.1068679363371388  1.0000
  C   C28       1.0  0.4204456806472479  0.42737348403129966  0.8931458370217129  1.0000
  N   N1        1.0  0.10531597291019786  0.7795468765940043  0.46743237994845543  1.0000
  N   N2        1.0  0.8947234601020071  0.22048259373858062  0.5325543960817498  1.0000
  N   N3        1.0  0.9673442844880216  0.7544324588076209  0.5211503705301155  1.0000
  N   N4        1.0  0.03267677877725114  0.24561236358022848  0.4788431305419323  1.0000
  O   O1        1.0  0.7777876230683206  0.24377395605105792  0.1303240730393611  1.0000
  O   O2        1.0  0.22217741616504583  0.7562055389168519  0.8696763051455747  1.0000
  O   O3        1.0  0.08156931333199678  0.4412281993980611  0.0876855193481276  1.0000
  O   O4        1.0  0.9184045460320575  0.5587221419966255  0.9123272143913823  1.0000
  O   O5        1.0  0.34692062769318005  0.019428394324947394  0.5752632574494428  1.0000
  O   O6        1.0  0.6531430196599289  0.9804990735232336  0.42476465578698713  1.0000
  O   O7        1.0  0.8436028542298929  0.8563913845336442  0.7252796787296277  1.0000
  O   O8        1.0  0.15642552802042084  0.14363015600256548  0.2747227886542731  1.0000
  O   O9        1.0  0.8443164029383967  0.8702827657567341  0.05992128630536089  1.0000
  O   O10       1.0  0.15565179392955747  0.1296811661934214  0.9401083259696748  1.0000
  O   O11       1.0  0.540960377168723  0.8425572285122768  0.03655178936202219  1.0000
  O   O12       1.0  0.45901846148934317  0.15740488683901077  0.9634549799059543  1.0000
  O   O13       1.0  0.6147597873142631  0.9469977037336149  0.8328056464839051  1.0000
  O   O14       1.0  0.38524033409579067  0.0529645115867581  0.167202853829437  1.0000
