data_image0
_chemical_formula_structural       Cu2H44C34Br2N2O6
_chemical_formula_sum              "Cu2 H44 C34 Br2 N2 O6"
_cell_length_a       7.276667595232868
_cell_length_b       11.465655267407955
_cell_length_c       11.681032170263778
_cell_angle_alpha    112.94804685458868
_cell_angle_beta     90.00054654289758
_cell_angle_gamma    90.00047198963938

_space_group_name_H-M_alt    "P 1"
_space_group_IT_number       1

loop_
  _space_group_symop_operation_xyz
  'x, y, z'

loop_
  _atom_site_type_symbol
  _atom_site_label
  _atom_site_symmetry_multiplicity
  _atom_site_fract_x
  _atom_site_fract_y
  _atom_site_fract_z
  _atom_site_occupancy
  Cu  Cu1       1.0  0.12446839421041742  0.6409011907953757  0.08267299567712888  1.0000
  Cu  Cu2       1.0  0.6244600926420532  0.3591039186880778  0.917327159172089  1.0000
  H   H1        1.0  0.8422885226255091  0.21736775516904325  0.5931162839752062  1.0000
  H   H2        1.0  0.342285808909594  0.7826506657882959  0.4068885981977743  1.0000
  H   H3        1.0  0.8292089933729798  0.0018193534538469007  0.5016139270727179  1.0000
  H   H4        1.0  0.3291953919072057  0.9981960718442907  0.4983957091567888  1.0000
  H   H5        1.0  0.4330171670779777  0.7893594197198868  0.6140372598030126  1.0000
  H   H6        1.0  0.9329959868057999  0.21064846910107352  0.38595978790969093  1.0000
  H   H7        1.0  0.05681949688811731  0.8577430149110582  0.8164697399490349  1.0000
  H   H8        1.0  0.5568135420153056  0.1422406951786002  0.18351572511144806  1.0000
  H   H9        1.0  0.26619048374972465  0.7787570380604903  0.7599989588914439  1.0000
  H   H10       1.0  0.7661919290747436  0.22122668696012948  0.23998003358145334  1.0000
  H   H11       1.0  0.12443010111840641  0.8276388748964507  0.6617549432200603  1.0000
  H   H12       1.0  0.62441730455366  0.17236441614764433  0.3382325205830981  1.0000
  H   H13       1.0  0.07210893885304162  0.059983485850665395  0.7120606309555342  1.0000
  H   H14       1.0  0.5720916639643719  0.9400135216861331  0.287945491541926  1.0000
  H   H15       1.0  0.17665034431210816  0.17890919014504192  0.8440179851794055  1.0000
  H   H16       1.0  0.676628106333922  0.8210801514709232  0.15599690546451236  1.0000
  H   H17       1.0  0.004855534175149499  0.07729205751287081  0.8637656819137332  1.0000
  H   H18       1.0  0.5048315721511045  0.9226872772827478  0.13623747188007954  1.0000
  H   H19       1.0  0.4017677008081435  0.1049171832849396  0.9812377402573204  1.0000
  H   H20       1.0  0.9017429414254965  0.8950600061120256  0.01876519430019399  1.0000
  H   H21       1.0  0.43401561626729557  0.9391314234794876  0.9396433822220799  1.0000
  H   H22       1.0  0.9339957048081686  0.0608451488470863  0.0603526530794056  1.0000
  H   H23       1.0  0.21876311468348322  0.009635470702186  0.9989320941083406  1.0000
  H   H24       1.0  0.7187503227501895  0.9903477132300511  0.001065244862246701  1.0000
  H   H25       1.0  0.5878870346565037  0.3642214011215188  0.5565325389607452  1.0000
  H   H26       1.0  0.08792556599843243  0.6357795352892097  0.44347520013224795  1.0000
  H   H27       1.0  0.7917414879386797  0.4296828831210178  0.5204967009000256  1.0000
  H   H28       1.0  0.29179620951592256  0.5703237563022371  0.4794981786806858  1.0000
  H   H29       1.0  0.5782803939375469  0.5086403449280182  0.5350775700521596  1.0000
  H   H30       1.0  0.0783379810556113  0.4913595373502276  0.46493312833524675  1.0000
  H   H31       1.0  0.9470336704706526  0.4204023169789862  0.6994543270681675  1.0000
  H   H32       1.0  0.44705277342431776  0.5796047766343689  0.3005382138996211  1.0000
  H   H33       1.0  0.4287046392753809  0.6166450774795467  0.7457817194707843  1.0000
  H   H34       1.0  0.9287125470048069  0.3833626480635318  0.2542349300940359  1.0000
  H   H35       1.0  0.5387217414427924  0.6208573322397085  0.8827880848657799  1.0000
  H   H36       1.0  0.038703789860569805  0.3791564484182857  0.1172209238891426  1.0000
  H   H37       1.0  0.4388830917596707  0.47814589056176254  0.7779818300336102  1.0000
  H   H38       1.0  0.9388826947896618  0.5218609510705435  0.22203881678082385  1.0000
  H   H39       1.0  0.7180212340949979  0.7044814224476711  0.6835510875560687  1.0000
  H   H40       1.0  0.21804923526700296  0.29552646154512263  0.316442986745777  1.0000
  H   H41       1.0  0.9342900632615782  0.6317964217639159  0.6806885923033335  1.0000
  H   H42       1.0  0.43431768474921023  0.3682068191704815  0.3192946746640573  1.0000
  H   H43       1.0  0.8211190177062735  0.7129014604369885  0.8244574392085724  1.0000
  H   H44       1.0  0.3211200006128294  0.287100747709033  0.17552904460674065  1.0000
  C   C1        1.0  0.5293380719899616  0.10628187132721931  0.7515408718336403  1.0000
  C   C2        1.0  0.0293343695327266  0.8937223603519161  0.2484635218609059  1.0000
  C   C3        1.0  0.6657625046226272  0.10991142150188442  0.6637098616334569  1.0000
  C   C4        1.0  0.16576148241217942  0.8900921878660456  0.3362856727379652  1.0000
  C   C5        1.0  0.7516322879739976  0.2249172880542432  0.6708027909342745  1.0000
  C   C6        1.0  0.2516502663809845  0.7750993913198201  0.32919917246023545  1.0000
  C   C7        1.0  0.7226150000415148  0.9973632360980816  0.5653378068901063  1.0000
  C   C8        1.0  0.22260388786154553  0.0026484225911432013  0.43466631943319806  1.0000
  C   C9        1.0  0.6440026310332811  0.8841013897777683  0.5530511033406568  1.0000
  C   C10       1.0  0.14398769232212774  0.11590677263434658  0.4469443574279808  1.0000
  C   C11       1.0  0.26918531609182145  0.9843014335556788  0.8067135914349918  1.0000
  C   C12       1.0  0.7691668625059478  0.015685050541890202  0.19328361082071407  1.0000
  C   C13       1.0  0.49811499359076816  0.8800329396234331  0.6306286581465486  1.0000
  C   C14       1.0  0.9981074885065624  0.1199641731687606  0.36936287875430196  1.0000
  C   C15       1.0  0.4337092128049278  0.9885859756992164  0.7265257571798927  1.0000
  C   C16       1.0  0.9336988103580096  0.0114161822636092  0.27347763265936453  1.0000
  C   C17       1.0  0.17541726178692585  0.8542441383617216  0.7572420404668562  1.0000
  C   C18       1.0  0.6754095170020664  0.1457472334327363  0.2427505157209922  1.0000
  C   C19       1.0  0.12279510273180701  0.08210240220824261  0.8068322380093634  1.0000
  C   C20       1.0  0.6227802007622574  0.9178817689144125  0.19317348271844284  1.0000
  C   C21       1.0  0.335482314626077  0.011967575358056603  0.9402360303717427  1.0000
  C   C22       1.0  0.8354648997111268  0.9880118882428592  0.05976397364563026  1.0000
  C   C23       1.0  0.6622074753874687  0.4526451371424187  0.5732143936781497  1.0000
  C   C24       1.0  0.1622445932210681  0.5473545816613451  0.42679074017462426  1.0000
  C   C25       1.0  0.825389346632548  0.4473349945983641  0.7602562119025222  1.0000
  C   C26       1.0  0.32539754060849196  0.5526709801374777  0.23974117513350993  1.0000
  C   C27       1.0  0.6981526961950025  0.5293886771320901  0.7118263570548322  1.0000
  C   C28       1.0  0.19817155747234955  0.47061709256415446  0.2881736295192212  1.0000
  C   C29       1.0  0.5165126289364182  0.5624431669224917  0.7838060095253708  1.0000
  C   C30       1.0  0.0165162062446811  0.4375665954355554  0.21620644711565973  1.0000
  C   C31       1.0  0.7994403566269881  0.6515735647096077  0.7264982343039463  1.0000
  C   C32       1.0  0.2994560195125118  0.34842842914088834  0.2734914638443229  1.0000
  C   C33       1.0  0.8908136488742072  0.5192708836080301  0.8936132168567213  1.0000
  C   C34       1.0  0.3908078528891893  0.48073188388804056  0.10638330932165727  1.0000
  Br  Br1       1.0  0.7314376531954638  0.7309055851662833  0.4260967869568759  1.0000
  Br  Br2       1.0  0.23142392597910091  0.269098531497626  0.573911314330438  1.0000
  N   N1        1.0  0.7322745647088313  0.3350122788339931  0.7607609415089202  1.0000
  N   N2        1.0  0.23229109104631365  0.6649881602924735  0.23922947230680336  1.0000
  O   O1        1.0  0.028556935162349403  0.5919205952333116  0.9124461398513475  1.0000
  O   O2        1.0  0.5285584750116926  0.40808930675689953  0.08756130488689717  1.0000
  O   O3        1.0  0.48780261590599144  0.20433700096444343  0.851899555636713  1.0000
  O   O4        1.0  0.9878074089398083  0.7956618981671894  0.14809518211457368  1.0000
  O   O5        1.0  0.8053973582244255  0.501108080481032  0.98118328469495  1.0000
  O   O6        1.0  0.30537945618210927  0.4988815394867956  0.018819626609179407  1.0000
