data_image0
_chemical_formula_structural       Cd4H40C40N20Cl12O4
_chemical_formula_sum              "Cd4 H40 C40 N20 Cl12 O4"
_cell_length_a       7.017884862001033
_cell_length_b       13.792664462910793
_cell_length_c       15.53966334945821
_cell_angle_alpha    104.05518974698774
_cell_angle_beta     90.00005856440183
_cell_angle_gamma    89.99996498086746

_space_group_name_H-M_alt    "P 1"
_space_group_IT_number       1

loop_
  _space_group_symop_operation_xyz
  'x, y, z'

loop_
  _atom_site_type_symbol
  _atom_site_label
  _atom_site_symmetry_multiplicity
  _atom_site_fract_x
  _atom_site_fract_y
  _atom_site_fract_z
  _atom_site_occupancy
  Cd  Cd1       1.0  0.0872384736657992  0.5779753000646366  0.25043883009242063  1.0000
  Cd  Cd2       1.0  0.5872373630122495  0.4220239752764525  0.7495617500957579  1.0000
  Cd  Cd3       1.0  0.5651802992823889  0.4498154727186049  0.2709252151183891  1.0000
  Cd  Cd4       1.0  0.06517683124792478  0.5501838024068632  0.7290747113791057  1.0000
  H   H1        1.0  0.23245626495215527  0.23827555177724238  0.28919298471388544  1.0000
  H   H2        1.0  0.7324575085228633  0.7617206962580666  0.7108057384085954  1.0000
  H   H3        1.0  0.19632948777987025  0.5920086101238482  0.029171158947576714  1.0000
  H   H4        1.0  0.6963274718576641  0.4079921339087491  0.9708291366120038  1.0000
  H   H5        1.0  0.36038696754672367  0.8740385328943673  0.993693313441341  1.0000
  H   H6        1.0  0.8603873729359747  0.1259614222710539  0.006305604425413898  1.0000
  H   H7        1.0  0.35179597682733993  0.8016916691327152  0.8822938294924471  1.0000
  H   H8        1.0  0.8517993984315168  0.19830605013841301  0.11770525776492488  1.0000
  H   H9        1.0  0.2981074502768095  0.15700421790871383  0.5547447682286021  1.0000
  H   H10       1.0  0.7981051430171179  0.8429980145197857  0.44525781759806904  1.0000
  H   H11       1.0  0.20788935117929702  0.05588306492249728  0.4722698654126845  1.0000
  H   H12       1.0  0.7078899598830121  0.9441169614048945  0.5277347892068676  1.0000
  H   H13       1.0  0.37247336884438903  0.10293471780644131  0.7085611157303477  1.0000
  H   H14       1.0  0.8724677973055818  0.8970682427768253  0.2914410138078908  1.0000
  H   H15       1.0  0.6188312363368382  0.1677989422930395  0.8868892160445087  1.0000
  H   H16       1.0  0.11882745510408199  0.8321988092213104  0.11310784054973064  1.0000
  H   H17       1.0  0.224027927660245  0.9542929506464971  0.7800056949149907  1.0000
  H   H18       1.0  0.7240203653573049  0.04570854900601518  0.21999670283111786  1.0000
  H   H19       1.0  0.7080959541651524  0.013677962712414202  0.7443144356027035  1.0000
  H   H20       1.0  0.2080880372271068  0.9863190329464827  0.2556837900378852  1.0000
  H   H21       1.0  0.9449872358504692  0.8666758305441249  0.6603917104519469  1.0000
  H   H22       1.0  0.44498623277033994  0.133324878151285  0.3396106223171742  1.0000
  H   H23       1.0  0.68805047943885  0.6962090638950541  0.24767819412088704  1.0000
  H   H24       1.0  0.18804735985428067  0.30379093895125203  0.7523225853001138  1.0000
  H   H25       1.0  0.9659763410606175  0.3368670022336104  0.27077872456486324  1.0000
  H   H26       1.0  0.4659755877064384  0.6631314464723842  0.7292212119893551  1.0000
  H   H27       1.0  0.9902634070699107  0.6800223837323641  0.9326263754901093  1.0000
  H   H28       1.0  0.49026156139464655  0.3199783023381571  0.06737404270959502  1.0000
  H   H29       1.0  0.41931700029135743  0.7891440139069841  0.2195912065076868  1.0000
  H   H30       1.0  0.9193133632348206  0.2108551913848018  0.7804088677486832  1.0000
  H   H31       1.0  0.7087668191552725  0.7724433922678386  0.9007805796105686  1.0000
  H   H32       1.0  0.2087680065967703  0.22755585454274294  0.099219406797495  1.0000
  H   H33       1.0  0.6175996530581074  0.27875244826869044  0.5554954527357056  1.0000
  H   H34       1.0  0.11759960789562741  0.7212475639042139  0.44450465280453955  1.0000
  H   H35       1.0  0.42657470320356333  0.3910646417518322  0.47636149402331546  1.0000
  H   H36       1.0  0.9265714299599567  0.6089353094933115  0.5236387404320624  1.0000
  H   H37       1.0  0.44838149880298767  0.07637539666932008  0.006821018717658903  1.0000
  H   H38       1.0  0.9483803399446487  0.9236245183162808  0.9931747134297882  1.0000
  H   H39       1.0  0.9037643104237318  0.17610432642977972  0.5786729082522939  1.0000
  H   H40       1.0  0.40376408943522074  0.8238963812632888  0.42132811834383693  1.0000
  C   C1        1.0  0.5286319418615406  0.7694362574381871  0.16825764038994612  1.0000
  C   C2        1.0  0.0286290906133857  0.23056451053228239  0.8317412962264258  1.0000
  C   C3        1.0  0.1154851739274108  0.24476916640053759  0.3366401804759748  1.0000
  C   C4        1.0  0.6154863174651694  0.755230094239053  0.6633591225248241  1.0000
  C   C5        1.0  0.8158880067947648  0.6902844283644569  0.12516551171263054  1.0000
  C   C6        1.0  0.3158894332980609  0.3097177731638964  0.8748332146132684  1.0000
  C   C7        1.0  0.8207176143319329  0.31361457922105973  0.3814790844304881  1.0000
  C   C8        1.0  0.32071800644532544  0.6863838935633949  0.6185201470299547  1.0000
  C   C9        1.0  0.7979622704850373  0.7140899721784777  0.043240889335649506  1.0000
  C   C10       1.0  0.29796106186279303  0.2859099998624899  0.9567586469715936  1.0000
  C   C11       1.0  0.8237770484822846  0.2671643536909514  0.4518395787649042  1.0000
  C   C12       1.0  0.32377580004126827  0.7328348658749275  0.5481598111424546  1.0000
  C   C13       1.0  0.6356526308296608  0.7677930813138331  0.026059547794453426  1.0000
  C   C14       1.0  0.13564867582314122  0.2322054279648  0.9739396064491361  1.0000
  C   C15       1.0  0.9841616027604659  0.20872353230851096  0.4630675204275151  1.0000
  C   C16       1.0  0.48416595841268867  0.791275669326694  0.5369338698595102  1.0000
  C   C17       1.0  0.0626253848037166  0.6302657834490474  0.04933657539922356  1.0000
  C   C18       1.0  0.5626233689553858  0.3697342304334725  0.9506622182298942  1.0000
  C   C19       1.0  0.5619302963785131  0.3559700416983844  0.4538610282648322  1.0000
  C   C20       1.0  0.0619291498924284  0.6440299814522986  0.5461390540478774  1.0000
  C   C21       1.0  0.44272083569596543  0.8510517666852663  0.9322611816324411  1.0000
  C   C22       1.0  0.9427199281787041  0.148947424859962  0.0677376134160212  1.0000
  C   C23       1.0  0.17619038546597215  0.1057803874643071  0.5372870605145936  1.0000
  C   C24       1.0  0.6761923312131158  0.8942211216205534  0.4627153172739115  1.0000
  C   C25       1.0  0.5033130789966548  0.9408575535130054  0.9028025532316093  1.0000
  C   C26       1.0  0.0033116140401646004  0.05914096359958879  0.09719396784871753  1.0000
  C   C27       1.0  0.15876644469969386  0.04864507671810971  0.6061759866706424  1.0000
  C   C28       1.0  0.6587638905530542  0.9513609155448746  0.3938266823847912  1.0000
  C   C29       1.0  0.5027337154937824  0.04127001513362669  0.9412249329384397  1.0000
  C   C30       1.0  0.0027382085556197995  0.9587307259839405  0.05876948146680411  1.0000
  C   C31       1.0  0.25743301034155047  0.0516325023604338  0.6826721719647113  1.0000
  C   C32       1.0  0.757428861015022  0.9483704900391743  0.3173311985481534  1.0000
  C   C33       1.0  0.5902129651793545  0.0890317832194825  0.8789205058423948  1.0000
  C   C34       1.0  0.0902048327545515  0.9109636998258067  0.12107155589112754  1.0000
  C   C35       1.0  0.18183137235837418  0.9735241967387721  0.7190929769989438  1.0000
  C   C36       1.0  0.6818225466200403  0.0264780540537473  0.28090891582498057  1.0000
  C   C37       1.0  0.6393872883738682  0.014943620344723697  0.8069910763542723  1.0000
  C   C38       1.0  0.1393806554544099  0.985053393428586  0.19300776510550582  1.0000
  C   C39       1.0  0.042708220532567495  0.9278151234029294  0.6622096960611544  1.0000
  C   C40       1.0  0.5427008941500944  0.0721879067738769  0.3377929403732267  1.0000
  N   N1        1.0  0.5033849179139053  0.793163251439033  0.09209987122689263  1.0000
  N   N2        1.0  0.0033822682028840996  0.20683604043763637  0.9079006739741616  1.0000
  N   N3        1.0  0.12818425823961377  0.20031624168791495  0.40240505184178244  1.0000
  N   N4        1.0  0.6281837740643182  0.7996815262441215  0.597594586602412  1.0000
  N   N5        1.0  0.6810411642135534  0.7195799582455605  0.18888447049106116  1.0000
  N   N6        1.0  0.18103820627553094  0.28041928946716865  0.8111148598612632  1.0000
  N   N7        1.0  0.9666646630524839  0.30070176171551566  0.3224756414970998  1.0000
  N   N8        1.0  0.46666374882735784  0.6992966868547583  0.6775242953442844  1.0000
  N   N9        1.0  0.6080014587217948  0.7939784898341314  0.9500736189973082  1.0000
  N   N10       1.0  0.10799971012319529  0.20601928664355273  0.0499266555123228  1.0000
  N   N11       1.0  0.0033932631777843997  0.1623957048718764  0.5284642670840967  1.0000
  N   N12       1.0  0.5033924470380526  0.8376058291566579  0.4715367496330743  1.0000
  N   N13       1.0  0.9592042671636776  0.6752624686255757  0.9968583886184561  1.0000
  N   N14       1.0  0.4592008448800656  0.3247382190041818  0.0031413721351824845  1.0000
  N   N15       1.0  0.6542031969660371  0.2947041102297021  0.4957818254330065  1.0000
  N   N16       1.0  0.15420188170976698  0.705295147340763  0.5042181382085716  1.0000
  N   N17       1.0  0.9794230702347165  0.6383257224648272  0.1285985794244127  1.0000
  N   N18       1.0  0.4794230016674987  0.36167270989270145  0.8713994292802952  1.0000
  N   N19       1.0  0.659272928080135  0.368787149607101  0.3830566698511291  1.0000
  N   N20       1.0  0.15927195787214998  0.6312143445517007  0.616943122931339  1.0000
  Cl  Cl1       1.0  0.16484302292233372  0.769979678171694  0.32565681293534965  1.0000
  Cl  Cl2       1.0  0.6648391218407781  0.2300188299163466  0.6743429979742788  1.0000
  Cl  Cl3       1.0  0.39926830615825537  0.5290787164853369  0.1541366706075422  1.0000
  Cl  Cl4       1.0  0.8992716304770597  0.4709220012251548  0.845865643086853  1.0000
  Cl  Cl5       1.0  0.8902525149162345  0.4120616432680179  0.17338444782652127  1.0000
  Cl  Cl6       1.0  0.3902549229688503  0.5879383242702686  0.8266170604485057  1.0000
  Cl  Cl7       1.0  0.7566154583935899  0.618231080925639  0.347951895308249  1.0000
  Cl  Cl8       1.0  0.2566177171045538  0.3817696557840832  0.6520490698924633  1.0000
  Cl  Cl9       1.0  0.47220500338689675  0.2627864803643192  0.18201161709987454  1.0000
  Cl  Cl10      1.0  0.9721993952801923  0.7372157177334838  0.8179910413660352  1.0000
  Cl  Cl11      1.0  0.2516044156824648  0.4963544900043359  0.3648962535454388  1.0000
  Cl  Cl12      1.0  0.7516000971337179  0.5036447300970863  0.6351011727880618  1.0000
  O   O1        1.0  0.5870633005676638  0.9237908186817804  0.8200713473413118  1.0000
  O   O2        1.0  0.08705772834893111  0.07620544432806746  0.17992538165630384  1.0000
  O   O3        1.0  0.0265565243150974  0.9723503898391073  0.5923718848890618  1.0000
  O   O4        1.0  0.5265565347253727  0.02765414742231089  0.4076323481226823  1.0000
