data_image0
_chemical_formula_structural       Ag8H32C22I8N8
_chemical_formula_sum              "Ag8 H32 C22 I8 N8"
_cell_length_a       4.527326090008548
_cell_length_b       12.598952893251337
_cell_length_c       18.547847229416323
_cell_angle_alpha    96.69734575575488
_cell_angle_beta     90.00018150257071
_cell_angle_gamma    89.99984604769091

_space_group_name_H-M_alt    "P 1"
_space_group_IT_number       1

loop_
  _space_group_symop_operation_xyz
  'x, y, z'

loop_
  _atom_site_type_symbol
  _atom_site_label
  _atom_site_symmetry_multiplicity
  _atom_site_fract_x
  _atom_site_fract_y
  _atom_site_fract_z
  _atom_site_occupancy
  Ag  Ag1       1.0  0.0085807423437672  0.24364871048658182  0.3924203575953625  1.0000
  Ag  Ag2       1.0  0.008585416545081197  0.25635368582754126  0.10758104741876197  1.0000
  Ag  Ag3       1.0  0.9914010367393542  0.7563548931777789  0.6075805590725025  1.0000
  Ag  Ag4       1.0  0.9914007801790774  0.7436427255499326  0.8924192592476742  1.0000
  Ag  Ag5       1.0  0.5443911802230018  0.1528131699335447  0.2953073418776952  1.0000
  Ag  Ag6       1.0  0.5443854400242641  0.34718717271054084  0.20469375388828576  1.0000
  Ag  Ag7       1.0  0.45560606053160774  0.8471872437796008  0.7046927650803807  1.0000
  Ag  Ag8       1.0  0.4556007566924193  0.652811636095258  0.7953067561124596  1.0000
  H   H1        1.0  0.3400954433646604  0.10238164385352626  0.4848036130669583  1.0000
  H   H2        1.0  0.34010225781584313  0.3976149454957393  0.01519161865054738  1.0000
  H   H3        1.0  0.6598907533372936  0.8976195756337116  0.5151960230628133  1.0000
  H   H4        1.0  0.6599016093428673  0.6023815387661884  0.9848027633928566  1.0000
  H   H5        1.0  0.38808472848140235  0.08204181301710631  0.5773622632106593  1.0000
  H   H6        1.0  0.38807917356993465  0.41796231059201716  0.9226358218732497  1.0000
  H   H7        1.0  0.6119080946486973  0.9179570222920431  0.4226360923817721  1.0000
  H   H8        1.0  0.6119114407225296  0.5820421385971812  0.07736139235723978  1.0000
  H   H9        1.0  0.6529424812147581  0.15747308410641378  0.5335389222939355  1.0000
  H   H10       1.0  0.6529424863141172  0.3425259831308835  0.9664616295181007  1.0000
  H   H11       1.0  0.3470569683396292  0.8425257578264365  0.4664588946981211  1.0000
  H   H12       1.0  0.3470635896863214  0.657472825666346  0.033538880489416584  1.0000
  H   H13       1.0  0.7852027575576699  0.4252332955921148  0.5291761194217199  1.0000
  H   H14       1.0  0.7851849155794781  0.0747688475527966  0.9708253321752877  1.0000
  H   H15       1.0  0.21480552721877189  0.5747727253688026  0.4708233847815534  1.0000
  H   H16       1.0  0.2148101163791907  0.9252307471388616  0.029176322811856878  1.0000
  H   H17       1.0  0.025026434072167095  0.4442129249292959  0.6683340153834009  1.0000
  H   H18       1.0  0.025022331907685196  0.0557890745473628  0.8316668507213192  1.0000
  H   H19       1.0  0.9749884771201708  0.5557923233921969  0.3316632666334697  1.0000
  H   H20       1.0  0.9749815353029445  0.9442081094590546  0.16833567813980463  1.0000
  H   H21       1.0  0.5531665749106054  0.35123211597944237  0.7042337480263753  1.0000
  H   H22       1.0  0.5531679334839835  0.1487662050159244  0.7957693610687356  1.0000
  H   H23       1.0  0.4468439187082254  0.6487690769911082  0.29576804252223343  1.0000
  H   H24       1.0  0.4468337249150665  0.8512293939590022  0.20423195503014566  1.0000
  H   H25       1.0  0.5779960726939777  0.2143725384940112  0.6695413421186983  1.0000
  H   H26       1.0  0.5779924688859309  0.2856250017101941  0.8304584844909255  1.0000
  H   H27       1.0  0.422010003280846  0.7856287008643081  0.33045667820992003  1.0000
  H   H28       1.0  0.422006980702676  0.7143698047494594  0.1695422252264507  1.0000
  H   H29       1.0  0.08925533136029878  0.31814672319116966  0.7693331173599487  1.0000
  H   H30       1.0  0.08926220150982539  0.1818488277556298  0.7306672502668261  1.0000
  H   H31       1.0  0.9107485358260732  0.6818512997173442  0.2306662476634286  1.0000
  H   H32       1.0  0.9107460832926649  0.8181499942937478  0.2693321825361537  1.0000
  C   C1        1.0  0.4162068113689513  0.13991428018498198  0.5379130249393284  1.0000
  C   C2        1.0  0.4162066284951607  0.36008581020588804  0.9620858176137475  1.0000
  C   C3        1.0  0.5837860117607008  0.8600893234746178  0.46208789173229536  1.0000
  C   C4        1.0  0.5837972386753449  0.6399138308678259  0.03791206715791159  1.0000
  C   C5        1.0  0.24207509978445071  0.2387054393298982  0.5579749432686967  1.0000
  C   C6        1.0  0.24207095913921245  0.2612940153222922  0.942022635707069  1.0000
  C   C7        1.0  0.7579133056878219  0.7612990297399019  0.44202065515311517  1.0000
  C   C8        1.0  0.7579218640164952  0.7387023894257682  0.05797820956426851  1.0000
  C   C9        1.0  0.9411803840356042  0.37415042196885645  0.5531282386269678  1.0000
  C   C10       1.0  0.9411817242803694  0.12585008115848237  0.9468656432121063  1.0000
  C   C11       1.0  0.058832318341309496  0.6258556321229205  0.4468685725646039  1.0000
  C   C12       1.0  0.0588530662355993  0.874142380870019  0.05313055436187139  1.0000
  C   C13       1.0  0.056523964258325086  0.38457583912017407  0.6219420162083791  1.0000
  C   C14       1.0  0.056542131278376886  0.11542763207464189  0.8780670859511657  1.0000
  C   C15       1.0  0.9434622325075636  0.6154268527481079  0.3780679889277819  1.0000
  C   C16       1.0  0.943479406386764  0.8845759450663736  0.12193598514080149  1.0000
  C   C17       1.0  0.42215783033427096  0.279000952144365  0.687305895271656  1.0000
  C   C18       1.0  0.42216330051322615  0.2209983140902239  0.8126944993661167  1.0000
  C   C19       1.0  0.5778305751380016  0.7210035169254353  0.3126897031501556  1.0000
  C   C20       1.0  0.5778339402744662  0.7789972716335001  0.18730789393654126  1.0000
  C   C21       1.0  0.2316507627601325  0.24999772733603007  0.7499991550962191  1.0000
  C   C22       1.0  0.7683531044287335  0.7499994964297018  0.2500001421490552  1.0000
  I   I1        1.0  0.5152764800174124  0.3738884479053723  0.3596045142867297  1.0000
  I   I2        1.0  0.5152803445294936  0.12611272560875617  0.1403960908293911  1.0000
  I   I3        1.0  0.48471192549612135  0.6261143566133568  0.6403963346052846  1.0000
  I   I4        1.0  0.48471026981441406  0.8738844782830383  0.8596048222192961  1.0000
  I   I5        1.0  0.048158589024602294  0.027958678709566698  0.33360063209664037  1.0000
  I   I6        1.0  0.048153624928431796  0.47204288433897557  0.16640073209063638  1.0000
  I   I7        1.0  0.9518386517358977  0.9720433134094647  0.6664012262255667  1.0000
  I   I8        1.0  0.9518369894093582  0.5279551253221441  0.8335997101335122  1.0000
  N   N1        1.0  0.05713766406257289  0.2835546769960899  0.5140798754417943  1.0000
  N   N2        1.0  0.0571366501177195  0.216446495647773  0.9859209447552572  1.0000
  N   N3        1.0  0.9428485326414344  0.7164505116988096  0.4859222539890594  1.0000
  N   N4        1.0  0.9428539642128155  0.7835515272664466  0.014078420263608393  1.0000
  N   N5        1.0  0.24613511466498034  0.2987672621089387  0.6244615222145311  1.0000
  N   N6        1.0  0.24612610968137014  0.20123133688931458  0.8755403005676782  1.0000
  N   N7        1.0  0.7538886318368866  0.7012275244605847  0.37554080331904766  1.0000
  N   N8        1.0  0.7538932191454464  0.7987722932650667  0.12445846170241028  1.0000
