data_image0
_chemical_formula_structural       Zn6H45C66N9O32
_chemical_formula_sum              "Zn6 H45 C66 N9 O32"
_cell_length_a       18.722960204174097
_cell_length_b       18.787842015090686
_cell_length_c       18.741100365285586
_cell_angle_alpha    109.5974776512073
_cell_angle_beta     109.42293190182654
_cell_angle_gamma    109.46123607503627

_space_group_name_H-M_alt    "P 1"
_space_group_IT_number       1

loop_
  _space_group_symop_operation_xyz
  'x, y, z'

loop_
  _atom_site_type_symbol
  _atom_site_label
  _atom_site_symmetry_multiplicity
  _atom_site_fract_x
  _atom_site_fract_y
  _atom_site_fract_z
  _atom_site_occupancy
  Zn  Zn1       1.0  0.007941363386670638  0.569036441962716  0.0675093892029536  1.0000
  Zn  Zn2       1.0  0.0020855554234202795  0.4416779075173807  0.9399296838124086  1.0000
  Zn  Zn3       1.0  0.5575750964874048  0.5604552966753787  0.507811674437967  1.0000
  Zn  Zn4       1.0  0.43055018451969573  0.4355033135834249  0.5035201122892586  1.0000
  Zn  Zn5       1.0  0.4301138761631835  0.997946209943443  0.9418974172235791  1.0000
  Zn  Zn6       1.0  0.5633528756544378  0.9999402602130303  0.05748181546349678  1.0000
  H   H1        1.0  0.9084413608619785  0.5695511668157563  0.7907194800285708  1.0000
  H   H2        1.0  0.7714479654638211  0.4885676568115755  0.9448874005889466  1.0000
  H   H3        1.0  0.4339454855200345  0.7508044981595178  0.07389362556856582  1.0000
  H   H4        1.0  0.12714411311726787  0.7808708564643112  0.01602192241315946  1.0000
  H   H5        1.0  0.3292049625144245  0.21520541178140465  0.2338345430878519  1.0000
  H   H6        1.0  0.3304901240814787  0.11552121970166242  0.10887902524837764  1.0000
  H   H7        1.0  0.679204480655379  0.3016279642341502  0.2702088630206276  1.0000
  H   H8        1.0  0.3621628493152471  0.5712741946792692  0.6972511489542016  1.0000
  H   H9        1.0  0.35865118895363696  0.6901875127184243  0.8023288445458121  1.0000
  H   H10       1.0  0.4982173354286131  0.8984455899244707  0.6908004523451224  1.0000
  H   H11       1.0  0.5160652468997781  0.7836212566241016  0.5940320916239442  1.0000
  H   H12       1.0  0.8446271404938912  0.2425261953178364  0.18347698301601414  1.0000
  H   H13       1.0  0.607582130851924  0.8073027165179029  0.6876245633935483  1.0000
  H   H14       1.0  0.5141942570956743  0.45248814217404754  0.816043742704153  1.0000
  H   H15       1.0  0.54666931541378  0.49336755814569944  0.7158799923152442  1.0000
  H   H16       1.0  0.7889706597598831  0.302418309260112  0.19838878992837292  1.0000
  H   H17       1.0  0.2778131696962945  0.7727137431315897  0.17985539689092178  1.0000
  H   H18       1.0  0.3963836249443703  0.5712556078943295  0.08822230690793029  1.0000
  H   H19       1.0  0.24892073968224787  0.9280470425985143  0.08587866144172548  1.0000
  H   H20       1.0  0.29672948532141424  0.9651327237915055  0.036015531544315096  1.0000
  H   H21       1.0  0.16699443227841465  0.8538962200328157  0.8663530488371549  1.0000
  H   H22       1.0  0.25176489706107225  0.8392840586459657  0.8757942969052338  1.0000
  H   H23       1.0  0.8950615315151965  0.4201767863406687  0.19193200801337426  1.0000
  H   H24       1.0  0.06814306340706369  0.6943472426056871  0.830428740206976  1.0000
  H   H25       1.0  0.015089523966828758  0.7220522796563246  0.8793874108695829  1.0000
  H   H26       1.0  0.7384098560811339  0.25080140404985934  0.3669492293466945  1.0000
  H   H27       1.0  0.6465626392030047  0.16283617118327245  0.280225127515692  1.0000
  H   H28       1.0  0.6773919714989773  0.3709897259105688  0.5629829848536048  1.0000
  H   H29       1.0  0.656603025099294  0.41970039023056666  0.9731317029782645  1.0000
  H   H30       1.0  0.5545774488945767  0.40252552045018314  0.9195782383706472  1.0000
  H   H31       1.0  0.7426512878136722  0.5576058709441868  0.43807471613239835  1.0000
  H   H32       1.0  0.6532969039231773  0.9322958257559151  0.8366782698810765  1.0000
  H   H33       1.0  0.6408085098606334  0.9987038843531408  0.7990119542719397  1.0000
  H   H34       1.0  0.952062239765965  0.3616311106734856  0.17896516155619221  1.0000
  H   H35       1.0  0.855698065564468  0.5665546457681857  0.6565951993168184  1.0000
  H   H36       1.0  0.7660431764290369  0.5777397174247271  0.6133600598100772  1.0000
  H   H37       1.0  0.7678369434929593  0.2576320814671078  0.8198365607554265  1.0000
  H   H38       1.0  0.6758491874360428  0.16114101510299145  0.771871971918351  1.0000
  H   H39       1.0  0.5414328473016568  0.07465519661463561  0.838586766119718  1.0000
  H   H40       1.0  0.5687448909251814  0.1364031581020129  0.7936703062262468  1.0000
  H   H41       1.0  0.13754417938022812  0.391875210649296  0.14400316765147642  1.0000
  H   H42       1.0  0.2599253386506248  0.393101574772416  0.2509093031178437  1.0000
  H   H43       1.0  0.4158042497581675  0.739106823844665  0.45132760554993456  1.0000
  H   H44       1.0  0.4579550164844122  0.7361375301228109  0.3777852448905391  1.0000
  H   H45       1.0  0.286641630135499  0.7364517572484817  0.3500997209156367  1.0000
  C   C1        1.0  0.8803741256109845  0.3692669918873719  0.9789726218384162  1.0000
  C   C2        1.0  0.6675682195494659  0.17160290218519955  0.9089676339523577  1.0000
  C   C3        1.0  0.6848081124861666  0.17149133781876463  0.9886792375501303  1.0000
  C   C4        1.0  0.895495358812056  0.535191376910433  0.9111568478596226  1.0000
  C   C5        1.0  0.7653279427196154  0.2392572047493573  0.06266865631307887  1.0000
  C   C6        1.0  0.8194210255875732  0.28063703398843387  0.16103832659410955  1.0000
  C   C7        1.0  0.8869507347319188  0.35535012062227633  0.1574711450189242  1.0000
  C   C8        1.0  0.2728907096927458  0.6086271525309286  0.27458765107274263  1.0000
  C   C9        1.0  0.19660569408370068  0.5317021486333359  0.20647812239272403  1.0000
  C   C10       1.0  0.19527816513932097  0.4537070336374428  0.19779240547950389  1.0000
  C   C11       1.0  0.2646180676720249  0.454384366550677  0.2567830966548854  1.0000
  C   C12       1.0  0.742429393458572  0.513613310409994  0.8368882887078044  1.0000
  C   C13       1.0  0.34206346433227014  0.5328807798456057  0.3251531900702887  1.0000
  C   C14       1.0  0.3447424414946595  0.6095689889883714  0.33077097294020763  1.0000
  C   C15       1.0  0.39925848713230044  0.7083773742823568  0.3825683838817611  1.0000
  C   C16       1.0  0.13463997576226924  0.5881790443364354  0.9877311573857314  1.0000
  C   C17       1.0  0.318733198186166  0.7083920635455172  0.3194861195843117  1.0000
  C   C18       1.0  0.20342406616954645  0.7232591847685516  0.9838139234938409  1.0000
  C   C19       1.0  0.21294720671836842  0.6586962100247788  0.999436568431271  1.0000
  C   C20       1.0  0.2985861088959041  0.6703469921395993  0.03216189108478318  1.0000
  C   C21       1.0  0.3688600373757397  0.7431219863222511  0.04673280693666737  1.0000
  C   C22       1.0  0.3569982163383116  0.8060770216482993  0.028073396206842415  1.0000
  C   C23       1.0  0.8258726763212962  0.5355449024326617  0.8428587934213426  1.0000
  C   C24       1.0  0.2720193973209035  0.7927590141993477  0.9947610394307774  1.0000
  C   C25       1.0  0.21647929627740575  0.8330706657093429  0.9665381398199314  1.0000
  C   C26       1.0  0.1388056738074185  0.7554678801383548  0.9614468000335279  1.0000
  C   C27       1.0  0.47109283665543  0.35900990505113833  0.3880364937904446  1.0000
  C   C28       1.0  0.1206558246339924  0.5275351873672633  0.14225342808656896  1.0000
  C   C29       1.0  0.6323885338362916  0.5281794714131821  0.6322190454857052  1.0000
  C   C30       1.0  0.4518345221073262  0.5843044993715766  0.6077057925912897  1.0000
  C   C31       1.0  0.410788545943042  0.5289971997933945  0.38942726380292203  1.0000
  C   C32       1.0  0.4450731345051723  0.8667210282653814  0.8538310575178514  1.0000
  C   C33       1.0  0.6211070495427294  0.10687638806877689  0.9964155437990598  1.0000
  C   C34       1.0  0.8442162541897458  0.5542178499334866  0.7841367526394051  1.0000
  C   C35       1.0  0.4742379587049896  0.11055571552088853  0.102331648835019  1.0000
  C   C36       1.0  0.42596596810681586  0.8823669515291358  0.03765135234930035  1.0000
  C   C37       1.0  0.5464417288768715  0.2961506549451514  0.3203313205542244  1.0000
  C   C38       1.0  0.4694391539270342  0.29153005740476357  0.31654686219446393  1.0000
  C   C39       1.0  0.3913915559159022  0.22246485863978901  0.23945470834919996  1.0000
  C   C40       1.0  0.7217800793557744  0.48857799303142013  0.8938238395835113  1.0000
  C   C41       1.0  0.3921353689141328  0.165410297254958  0.1692048824706802  1.0000
  C   C42       1.0  0.47079229574664794  0.1702858688037594  0.17494871292785766  1.0000
  C   C43       1.0  0.5471113686939546  0.2357107065042712  0.25380041627060723  1.0000
  C   C44       1.0  0.6459134070263204  0.2755420411952798  0.3018382414742078  1.0000
  C   C45       1.0  0.7833349879611974  0.5574081826397118  0.7171574758695699  1.0000
  C   C46       1.0  0.6459857689356739  0.3518492973583136  0.3759134634734949  1.0000
  C   C47       1.0  0.48147499561465423  0.7373524646557356  0.679535958335961  1.0000
  C   C48       1.0  0.4408788193983071  0.6521718680655725  0.6637256227204061  1.0000
  C   C49       1.0  0.394396417266293  0.6369661075340146  0.7077469496175439  1.0000
  C   C50       1.0  0.39198273184408805  0.704253978952174  0.7667287511041109  1.0000
  C   C51       1.0  0.43425944993748544  0.7901068119190954  0.7827898293937068  1.0000
  C   C52       1.0  0.6397208719032861  0.4639467612746344  0.8859515388960375  1.0000
  C   C53       1.0  0.47633900993162115  0.8033586283108038  0.7359833231703802  1.0000
  C   C54       1.0  0.5342702063224821  0.8742179758849603  0.7262301546243249  1.0000
  C   C55       1.0  0.5412629313176041  0.7980982822000937  0.6622219283055414  1.0000
  C   C56       1.0  0.6992826168022647  0.5347650514067439  0.7074450049297597  1.0000
  C   C57       1.0  0.5780175208392038  0.4682621527234829  0.8212026226680037  1.0000
  C   C58       1.0  0.5966417419851667  0.4918817424663331  0.7646377490661607  1.0000
  C   C59       1.0  0.6783775962475502  0.5130320950582927  0.7678086627102374  1.0000
  C   C60       1.0  0.33459507385864384  0.7449681096686332  0.26210947000259904  1.0000
  C   C61       1.0  0.31571442327606997  0.6100306308293212  0.060925861678782674  1.0000
  C   C62       1.0  0.693616176933034  0.3676449763123486  0.46753031139699175  1.0000
  C   C63       1.0  0.6785565848529416  0.4352519612875767  0.3710896463361806  1.0000
  C   C64       1.0  0.8246288039297768  0.3043349456602514  0.05949044745099744  1.0000
  C   C65       1.0  0.8126379146727202  0.301676450433277  0.9807010597445611  1.0000
  C   C66       1.0  0.7337613647980776  0.2321894709895744  0.9040227458898755  1.0000
  N   N1        1.0  0.23978613994891873  0.9204857878259887  0.026351545421277843  1.0000
  N   N2        1.0  0.19625553638393006  0.8192657020327587  0.879891861626902  1.0000
  N   N3        1.0  0.0565635231057301  0.6978096538427183  0.8809509465676938  1.0000
  N   N4        1.0  0.6720014069653786  0.22243677697733233  0.33260480030887857  1.0000
  N   N5        1.0  0.619130385579048  0.4400296727719991  0.9422659506695084  1.0000
  N   N6        1.0  0.6099198895026774  0.9484391298899127  0.8069658508652394  1.0000
  N   N7        1.0  0.8111995178157797  0.5819711027796615  0.6655800311861242  1.0000
  N   N8        1.0  0.7140326280398952  0.22403995906181257  0.8220739926835279  1.0000
  N   N9        1.0  0.5892566193820273  0.11013150697017693  0.8302152741213078  1.0000
  O   O1        1.0  0.912955981711548  0.44818866021829973  0.03560626025443272  1.0000
  O   O2        1.0  0.5095794012566585  0.9004089763792749  0.9287950408471629  1.0000
  O   O3        1.0  0.5392107822363174  0.076484435367469  0.9476228930720865  1.0000
  O   O4        1.0  0.9022408922316104  0.34314977209381675  0.9204664733716043  1.0000
  O   O5        1.0  0.652392144909797  0.08625153535091808  0.05380930815905328  1.0000
  O   O6        1.0  0.4135746829287542  0.07836209477208202  0.02333415173263381  1.0000
  O   O7        1.0  0.5374635553595298  0.09568198376411632  0.12297531265537744  1.0000
  O   O8        1.0  0.3972995261249395  0.9178198804205666  0.9967400245475346  1.0000
  O   O9        1.0  0.5079881605718343  0.9100765465144893  0.08361383174443665  1.0000
  O   O10       1.0  0.9241291366002572  0.5871635737340313  0.992291073568026  1.0000
  O   O11       1.0  0.9216010168618924  0.4831056291393026  0.8839352184002253  1.0000
  O   O12       1.0  0.41514742999291343  0.3335164828365579  0.41207313440055765  1.0000
  O   O13       1.0  0.10377597716136215  0.616870724590072  0.03408735087617731  1.0000
  O   O14       1.0  0.1018147055060439  0.5081547322617226  0.9312724639902967  1.0000
  O   O15       1.0  0.09971494229048977  0.5858105557346607  0.17021216417330728  1.0000
  O   O16       1.0  0.08127669428768063  0.46622245249743344  0.06374108417647759  1.0000
  O   O17       1.0  0.5284572364442113  0.43718405503003777  0.4190925180905793  1.0000
  O   O18       1.0  0.3971859324891085  0.7601248820919508  0.2505348480941477  1.0000
  O   O19       1.0  0.2683301869192648  0.7575088403648353  0.22240470814627147  1.0000
  O   O20       1.0  0.2703029097458512  0.5667742260819397  0.08132646964050858  1.0000
  O   O21       1.0  0.38896916208141624  0.6087876015117147  0.0640393272890094  1.0000
  O   O22       1.0  0.7706848704606915  0.38893646903693485  0.5051272315380969  1.0000
  O   O23       1.0  0.6586256827129733  0.5790104534822547  0.6020585727044292  1.0000
  O   O24       1.0  0.6413708159580767  0.3566204421674471  0.502966138689402  1.0000
  O   O25       1.0  0.6637143420475057  0.4357344825290639  0.30293737631964046  1.0000
  O   O26       1.0  0.7262076193950905  0.5096389003159061  0.45036635111378603  1.0000
  O   O27       1.0  0.5520692221412702  0.47260650504750157  0.5976525586132694  1.0000
  O   O28       1.0  0.5108440352141982  0.6107978611318927  0.5885158420403441  1.0000
  O   O29       1.0  0.401989572388473  0.5033355530132866  0.5816442753065516  1.0000
  O   O30       1.0  0.4919976963471485  0.5844405330425602  0.42231500452516  1.0000
  O   O31       1.0  0.3839564877575371  0.4702577176180825  0.408501963336164  1.0000
  O   O32       1.0  0.3909060987379078  0.8944604904482105  0.8343831785226427  1.0000
