data_image0
_chemical_formula_structural       Co4H20C24N16
_chemical_formula_sum              "Co4 H20 C24 N16"
_cell_length_a       8.965991761085315
_cell_length_b       10.31268304337647
_cell_length_c       12.415408140872165
_cell_angle_alpha    80.98862482325518
_cell_angle_beta     68.83141062305485
_cell_angle_gamma    64.22275022117954

_space_group_name_H-M_alt    "P 1"
_space_group_IT_number       1

loop_
  _space_group_symop_operation_xyz
  'x, y, z'

loop_
  _atom_site_type_symbol
  _atom_site_label
  _atom_site_symmetry_multiplicity
  _atom_site_fract_x
  _atom_site_fract_y
  _atom_site_fract_z
  _atom_site_occupancy
  Co  Co1       1.0  0.8831042229169909  0.0985769661779798  0.36926140780724387  1.0000
  Co  Co2       1.0  0.3510388758450063  0.9014141585691675  0.630848711987021  1.0000
  Co  Co3       1.0  0.0020850930441797225  0.5985284691601649  0.13070890375583133  1.0000
  Co  Co4       1.0  0.7315995269193606  0.4014722729963367  0.8692090599970116  1.0000
  H   H1        1.0  0.7297298269630301  0.11176194187154918  0.6609463305485053  1.0000
  H   H2        1.0  0.502283148568182  0.8884232052576946  0.3391633846245839  1.0000
  H   H3        1.0  0.1411151314047387  0.6111816431061142  0.8388736707339252  1.0000
  H   H4        1.0  0.5910321203723824  0.38863939723132995  0.16095106398869768  1.0000
  H   H5        1.0  0.6130595135027549  0.9902810128395455  0.401726401928528  1.0000
  H   H6        1.0  0.004931903090699891  0.0095800048864945  0.5984872027247549  1.0000
  H   H7        1.0  0.7643284285786154  0.4907371666953679  0.09811766014723843  1.0000
  H   H8        1.0  0.3533558391260101  0.5094242204829982  0.9015318643192176  1.0000
  H   H9        1.0  0.10964820864771238  0.7697381389370007  0.2679524926181146  1.0000
  H   H10       1.0  0.14733170930472264  0.23007091723011536  0.732339806437132  1.0000
  H   H11       1.0  0.12727774369020045  0.2701493567284459  0.23237424263540876  1.0000
  H   H12       1.0  0.6299456672167097  0.7300107730197635  0.7679140599300853  1.0000
  H   H13       1.0  0.7531693944633632  0.8987855036854524  0.08323299264537816  1.0000
  H   H14       1.0  0.7351050281532778  0.10109759038398637  0.9168973341936992  1.0000
  H   H15       1.0  0.5858887684965377  0.3987955832180461  0.4166899891079866  1.0000
  H   H16       1.0  0.402515328360536  0.6011766870018178  0.5829915974886078  1.0000
  H   H17       1.0  0.7081729610849193  0.13821858342155477  0.18719823299285576  1.0000
  H   H18       1.0  0.033625827031798304  0.8616500456056215  0.8128040031308007  1.0000
  H   H19       1.0  0.6444936686642391  0.6382520719339765  0.3125582144080923  1.0000
  H   H20       1.0  0.5966217219002555  0.36171996467012235  0.6870843161733264  1.0000
  C   C1        1.0  0.6682516753905144  0.07220260094774739  0.6206252751290224  1.0000
  C   C2        1.0  0.3609039614184299  0.9279263790813983  0.37953203079300135  1.0000
  C   C3        1.0  0.039091586429073136  0.5718864232828054  0.8792354273154505  1.0000
  C   C4        1.0  0.49006289478881376  0.4280442651672729  0.12055266265608117  1.0000
  C   C5        1.0  0.6074903956930414  0.008165929990362  0.4868577413575893  1.0000
  C   C6        1.0  0.10231724302917648  0.9919168179328326  0.5133052245304557  1.0000
  C   C7        1.0  0.8440959416371714  0.5083621465542478  0.01300366435965841  1.0000
  C   C8        1.0  0.36547371427482733  0.4917496465721172  0.9867152443105953  1.0000
  C   C9        1.0  0.5032656355859686  0.9879683861283084  0.5965716084626893  1.0000
  C   C10       1.0  0.08760503603120633  0.0121848365212429  0.4035813693626765  1.0000
  C   C11       1.0  0.849684452232317  0.4880875583394514  0.9032588287368528  1.0000
  C   C12       1.0  0.24092513650523983  0.5119870246848492  0.09641696199335573  1.0000
  C   C13       1.0  0.006576483357527331  0.8377491966871702  0.23231129890443475  1.0000
  C   C14       1.0  0.07665604737918832  0.1620881309027382  0.7679283243768042  1.0000
  C   C15       1.0  0.9884443109769381  0.33804805198925447  0.2678422317399623  1.0000
  C   C16       1.0  0.5948648652126778  0.6620672284667465  0.7322105242621789  1.0000
  C   C17       1.0  0.8189315181699045  0.9080733863977457  0.1378988112099152  1.0000
  C   C18       1.0  0.8648476067041883  0.09179553187999549  0.8622942651719401  1.0000
  C   C19       1.0  0.7062939460322113  0.40818521240579747  0.3621097616253906  1.0000
  C   C20       1.0  0.4774461110046317  0.591854762670181  0.6377454171884481  1.0000
  C   C21       1.0  0.7974408860363909  0.0262909584264719  0.18933729796966506  1.0000
  C   C22       1.0  0.01304965434453467  0.9735765833385557  0.8107740152006218  1.0000
  C   C23       1.0  0.736039535359339  0.5264071361138248  0.3105780075827624  1.0000
  C   C24       1.0  0.574017282497124  0.4736359472269454  0.6892236219037432  1.0000
  N   N1        1.0  0.7145406825325222  0.0625235981763979  0.5030325744842942  1.0000
  N   N2        1.0  0.2799320864930269  0.9375139122124517  0.49714534119290493  1.0000
  N   N3        1.0  0.9675791575451171  0.5624507435190723  0.9968358242678338  1.0000
  N   N4        1.0  0.526841966566856  0.4375501266431525  0.0029586681315762514  1.0000
  N   N5        1.0  0.5414247241940017  0.02746705906074  0.6791295708555511  1.0000
  N   N6        1.0  0.24783754536186128  0.972734155951805  0.32104024475653165  1.0000
  N   N7        1.0  0.9706509057965248  0.5272848163837764  0.8207165933118931  1.0000
  N   N8        1.0  0.3184636546215955  0.4726999269501206  0.17900220852147442  1.0000
  N   N9        1.0  0.9163127123148911  0.9807956399059066  0.24897007799011556  1.0000
  N   N10       1.0  0.14608484345878733  0.0190340850472026  0.7512089361634511  1.0000
  N   N11       1.0  0.9146142732033123  0.48102477657859316  0.2510419648219582  1.0000
  N   N12       1.0  0.6474392246793953  0.5190537144867379  0.7488721219363441  1.0000
  N   N13       1.0  0.9515014288064662  0.7892397466668513  0.16557364338201094  1.0000
  N   N14       1.0  0.9062889353623759  0.21059657021780953  0.8346801934533378  1.0000
  N   N15       1.0  0.8667526739918258  0.2894453074083997  0.3345684092102986  1.0000
  N   N16       1.0  0.49130543973075896  0.7106299038667243  0.665458835713281  1.0000
