data_image0
_chemical_formula_structural       NiH34C36N2O6
_chemical_formula_sum              "Ni1 H34 C36 N2 O6"
_cell_length_a       6.0792711089200315
_cell_length_b       7.354090591518942
_cell_length_c       17.654647907445753
_cell_angle_alpha    93.48363683079431
_cell_angle_beta     99.6293066244657
_cell_angle_gamma    96.82647637884223

_space_group_name_H-M_alt    "P 1"
_space_group_IT_number       1

loop_
  _space_group_symop_operation_xyz
  'x, y, z'

loop_
  _atom_site_type_symbol
  _atom_site_label
  _atom_site_symmetry_multiplicity
  _atom_site_fract_x
  _atom_site_fract_y
  _atom_site_fract_z
  _atom_site_occupancy
  Ni  Ni1       1.0  0.4999991249750977  0.49999047255678153  0.99999727783036  1.0000
  H   H1        1.0  0.7074702240564861  0.0688659722733362  0.3607851437459146  1.0000
  H   H2        1.0  0.2924847959897008  0.9310872044692784  0.6392162375591608  1.0000
  H   H3        1.0  0.2763253449319408  0.7987442757283745  0.3250321237315532  1.0000
  H   H4        1.0  0.7236803812051845  0.2012763631358894  0.6749706951285716  1.0000
  H   H5        1.0  0.05395148490845264  0.6311608279899944  0.20573483586870367  1.0000
  H   H6        1.0  0.9460780742407238  0.36883383715983353  0.7942652988411467  1.0000
  H   H7        1.0  0.4806056550311269  0.8919481213280206  0.24306159683606407  1.0000
  H   H8        1.0  0.5193593579211608  0.10797030440821233  0.7569457714792518  1.0000
  H   H9        1.0  0.5345199292143902  0.19998066794428845  0.5169746079442561  1.0000
  H   H10       1.0  0.4654104981911117  0.8000387187424209  0.4830241012563192  1.0000
  H   H11       1.0  0.8417994314240715  0.423456278109164  0.491491230908764  1.0000
  H   H12       1.0  0.15815824306695697  0.5765707387134711  0.508519228500411  1.0000
  H   H13       1.0  0.8279176907960988  0.5442898136076195  0.3614281840542048  1.0000
  H   H14       1.0  0.1720794170136273  0.45569779363899  0.6385741520117065  1.0000
  H   H15       1.0  0.4949925371778078  0.4403986956753769  0.2585748023001456  1.0000
  H   H16       1.0  0.5050483885658038  0.5595609739942303  0.7414115331783862  1.0000
  H   H17       1.0  0.1848660656400298  0.21637923571695689  0.2843702273924151  1.0000
  H   H18       1.0  0.815156744999129  0.7835818295481757  0.7156153182626638  1.0000
  H   H19       1.0  0.18701944648080365  0.15980629376344527  0.5349950310786511  1.0000
  H   H20       1.0  0.8129166358549114  0.8402248219740115  0.4649913342409632  1.0000
  H   H21       1.0  0.812861935397727  0.3113211896311725  0.12097386474778198  1.0000
  H   H22       1.0  0.18716717308780773  0.6886742036994634  0.8790376135800598  1.0000
  H   H23       1.0  0.8846249247672304  0.14058760605234258  0.1859946106246824  1.0000
  H   H24       1.0  0.11541020762361856  0.8594082002781108  0.814009793119638  1.0000
  H   H25       1.0  0.7241436209494196  0.07289556147340899  0.09264983271675219  1.0000
  H   H26       1.0  0.27589651517948255  0.927109792623277  0.9073562887472235  1.0000
  H   H27       1.0  0.2739537552497211  0.9791441058220086  0.055991280272330385  1.0000
  H   H28       1.0  0.7260777450398095  0.020864928214280095  0.9440225120891981  1.0000
  H   H29       1.0  0.019508612121882225  0.8730261802964208  0.0827135025923269  1.0000
  H   H30       1.0  0.9805457031019882  0.1269820832386941  0.9173143592487846  1.0000
  H   H31       1.0  0.24940728325559997  0.9707769179279921  0.15467246893315686  1.0000
  H   H32       1.0  0.7506558787460162  0.029271828974337718  0.8453459567560555  1.0000
  H   H33       1.0  0.09580052453186035  0.43245025836378664  0.0703238983007282  1.0000
  H   H34       1.0  0.9042056697935191  0.5675459702266679  0.9296723745513374  1.0000
  C   C1        1.0  0.7815552106499695  0.9702444774127844  0.3276754530545886  1.0000
  C   C2        1.0  0.21842719194333432  0.029739477653876606  0.6723181292425479  1.0000
  C   C3        1.0  0.10173997218888793  0.820816487390573  0.30683245711256996  1.0000
  C   C4        1.0  0.8982696382805528  0.1792098693007134  0.6931667844724885  1.0000
  C   C5        1.0  0.9750386260894217  0.7237814270467311  0.24015248077355977  1.0000
  C   C6        1.0  0.024981356658422306  0.2762270869645036  0.759846018545751  1.0000
  C   C7        1.0  0.749785631388292  0.7504447043714391  0.21677074972185295  1.0000
  C   C8        1.0  0.2502207355311512  0.24953686193583743  0.7832170548093698  1.0000
  C   C9        1.0  0.6551762678914484  0.8725270798226036  0.2619018489374625  1.0000
  C   C10       1.0  0.344805979619764  0.12743482596995653  0.7380920479887436  1.0000
  C   C11       1.0  0.6011190821013486  0.6610166055349963  0.1444965114375805  1.0000
  C   C12       1.0  0.3988656864383913  0.33896645747143606  0.8554886445800063  1.0000
  C   C13       1.0  0.5225733457278708  0.25461680371542167  0.4606518512239078  1.0000
  C   C14       1.0  0.47736046572708096  0.745402546626309  0.5393475806706646  1.0000
  C   C15       1.0  0.6972528082258336  0.38027828383945206  0.4459291506286078  1.0000
  C   C16       1.0  0.3026953849168805  0.6197368949243722  0.5540713623837445  1.0000
  C   C17       1.0  0.689741177162098  0.44777155568883137  0.37332057805358687  1.0000
  C   C18       1.0  0.3102424244612153  0.5522368076688127  0.6266796275995503  1.0000
  C   C19       1.0  0.5041623083817157  0.38784901299888475  0.31530178683382803  1.0000
  C   C20       1.0  0.4958406724113757  0.6121295506707797  0.6846902849784298  1.0000
  C   C21       1.0  0.3296519694774247  0.261297799158541  0.32976772090342615  1.0000
  C   C22       1.0  0.670338868433042  0.7386860812353148  0.6702273841296317  1.0000
  C   C23       1.0  0.3345088333050441  0.19256348530991121  0.4028700037515094  1.0000
  C   C24       1.0  0.6654309720501672  0.8074421820326664  0.5971280688471977  1.0000
  C   C25       1.0  0.14513361212733858  0.06354992529350768  0.41787809398078923  1.0000
  C   C26       1.0  0.8548361618641352  0.9364809241320559  0.5821137942844175  1.0000
  C   C27       1.0  0.008331945327093073  0.9474455021771815  0.3508137692612649  1.0000
  C   C28       1.0  0.991653403132453  0.0525769228172805  0.6491813664502502  1.0000
  C   C29       1.0  0.08900735779477031  0.0608417034805981  0.4896796200403912  1.0000
  C   C30       1.0  0.9109522723749777  0.9392209551066985  0.5103095671952929  1.0000
  C   C31       1.0  0.8608879514792493  0.1729148282783228  0.1253884739581252  1.0000
  C   C32       1.0  0.13912650349232797  0.8270929489398927  0.8746227799257225  1.0000
  C   C33       1.0  0.1579860796723835  0.9861448742832692  0.09688087739881719  1.0000
  C   C34       1.0  0.8420660484361664  0.013865250708825305  0.9031384481267821  1.0000
  C   C35       1.0  0.1747611798975512  0.30601380222664426  0.0692128340678408  1.0000
  C   C36       1.0  0.8252641993251117  0.6939848930868138  0.930788955604292  1.0000
  N   N1        1.0  0.06726402002257001  0.1608017849461802  0.0947281196037792  1.0000
  N   N2        1.0  0.932773154805034  0.8392048497625739  0.9052796121625448  1.0000
  O   O1        1.0  0.360810446153188  0.29943387964907225  0.04574148206902609  1.0000
  O   O2        1.0  0.6392239916569907  0.7005623799918584  0.9542549697018924  1.0000
  O   O3        1.0  0.3943138558753247  0.6692504950671817  0.1348487575800448  1.0000
  O   O4        1.0  0.6057135399265263  0.3307444958586814  0.8651456198008558  1.0000
  O   O5        1.0  0.7013672847109974  0.5819620559162503  0.09380194666491092  1.0000
  O   O6        1.0  0.2986598867943258  0.4180315612252485  0.9061923697120519  1.0000
