data_image0
_chemical_formula_structural       Cu2H32C20N4Cl2O4
_chemical_formula_sum              "Cu2 H32 C20 N4 Cl2 O4"
_cell_length_a       7.49079817490254
_cell_length_b       8.744375817156682
_cell_length_c       10.538457511649101
_cell_angle_alpha    65.84830544222328
_cell_angle_beta     70.0946728473927
_cell_angle_gamma    83.28734510201001

_space_group_name_H-M_alt    "P 1"
_space_group_IT_number       1

loop_
  _space_group_symop_operation_xyz
  'x, y, z'

loop_
  _atom_site_type_symbol
  _atom_site_label
  _atom_site_symmetry_multiplicity
  _atom_site_fract_x
  _atom_site_fract_y
  _atom_site_fract_z
  _atom_site_occupancy
  Cu  Cu1       1.0  0.22011482510941244  0.4512747361358294  0.4188133850542854  1.0000
  Cu  Cu2       1.0  0.7798857960212259  0.5487273720989235  0.5811786656136279  1.0000
  H   H1        1.0  0.3659497697375044  0.08545969577241408  0.4543948374236636  1.0000
  H   H2        1.0  0.6340549729878827  0.9145398857251263  0.5455999521911252  1.0000
  H   H3        1.0  0.21804670372375057  0.898941291196749  0.35138413080989755  1.0000
  H   H4        1.0  0.7819593361665867  0.1010545227971278  0.6486125658699539  1.0000
  H   H5        1.0  0.8776476470194365  0.9557262660238378  0.29442100424242335  1.0000
  H   H6        1.0  0.12234972222199048  0.044268222733912  0.7055828820218935  1.0000
  H   H7        1.0  0.053369611816400195  0.0515217754588733  0.1224306208368873  1.0000
  H   H8        1.0  0.9466264991438537  0.9484752572025812  0.877568910588515  1.0000
  H   H9        1.0  0.887076041998135  0.32486194723791323  0.08148205827045271  1.0000
  H   H10       1.0  0.1129227080571198  0.6751337686893778  0.9185239467899252  1.0000
  H   H11       1.0  0.7090979682043183  0.23165281513255556  0.25410126526684  1.0000
  H   H12       1.0  0.2909050738151108  0.7683441651854392  0.7459033268246742  1.0000
  H   H13       1.0  0.8069583417861137  0.11681324887404539  0.9995427218787257  1.0000
  H   H14       1.0  0.19303778106782937  0.8831887483786004  0.0004598950869976021  1.0000
  H   H15       1.0  0.6218643926469267  0.0310064329354134  0.16899869030147133  1.0000
  H   H16       1.0  0.37813036729923505  0.9689968244569583  0.8310028716701369  1.0000
  H   H17       1.0  0.6545987655373935  0.3953605851391018  0.9447750308362404  1.0000
  H   H18       1.0  0.34540168215214345  0.6046439301862209  0.055225747125149424  1.0000
  H   H19       1.0  0.4675597104197918  0.3123816238930884  0.11222151982068605  1.0000
  H   H20       1.0  0.5324393414905514  0.6876228978899944  0.8877786291820656  1.0000
  H   H21       1.0  0.5709286023720991  0.1955115577768112  0.8590723522811743  1.0000
  H   H22       1.0  0.4290746189697785  0.8044904573237305  0.14092861979555946  1.0000
  H   H23       1.0  0.38662858019485913  0.1064103123654476  0.026647707790452613  1.0000
  H   H24       1.0  0.6133746919244771  0.8935954437263334  0.9733539020527575  1.0000
  H   H25       1.0  0.9617451744530923  0.374636226393676  0.2649556577612132  1.0000
  H   H26       1.0  0.03825508202029939  0.6253582895579015  0.7350456546746217  1.0000
  H   H27       1.0  0.22219090922820325  0.3844499288487952  0.9742685191265112  1.0000
  H   H28       1.0  0.7778080440678891  0.6155508318883776  0.025732907982650433  1.0000
  H   H29       1.0  0.25715603437389933  0.3145559472070474  0.8316945017797792  1.0000
  H   H30       1.0  0.7428443386197826  0.6854448170997074  0.16830659635158457  1.0000
  H   H31       1.0  0.408154756203487  0.4741334610638006  0.8068788264659261  1.0000
  H   H32       1.0  0.5918456825330338  0.5258698106068848  0.19312141959449033  1.0000
  C   C1        1.0  0.26048239422952685  0.117084179146083  0.39913893444045107  1.0000
  C   C2        1.0  0.7395237263690077  0.8829129085844374  0.6008554203310368  1.0000
  C   C3        1.0  0.18980464421003523  0.0252042153268803  0.3471898887802994  1.0000
  C   C4        1.0  0.8102001224337484  0.9747953761979958  0.6528039428980463  1.0000
  C   C5        1.0  0.9505930690307949  0.07587301419417258  0.2149330430015155  1.0000
  C   C6        1.0  0.049405785651060775  0.9241239854970897  0.7850696622140562  1.0000
  C   C7        1.0  0.8107443973414232  0.20589148471844249  0.1616145054054101  1.0000
  C   C8        1.0  0.18925165081666503  0.7941067615156355  0.8383884317302874  1.0000
  C   C9        1.0  0.7035211005010706  0.14741633373431276  0.08864041936772796  1.0000
  C   C10       1.0  0.29647787671341763  0.8525844370301955  0.9113600498049905  1.0000
  C   C11       1.0  0.5710486911455915  0.2797626591851667  0.024469168766003663  1.0000
  C   C12       1.0  0.42895038468314783  0.7202418726252517  0.9755300223002977  1.0000
  C   C13       1.0  0.46598545794913787  0.22443378031789504  0.9485120067363226  1.0000
  C   C14       1.0  0.5340164094379886  0.7755707385770092  0.051488442247276056  1.0000
  C   C15       1.0  0.0527638801412493  0.2718961309582895  0.3006984578898368  1.0000
  C   C16       1.0  0.9472335369369631  0.7280983778541312  0.6993035125015864  1.0000
  C   C17       1.0  0.33117450119161157  0.3556117832051556  0.8867369548704077  1.0000
  C   C18       1.0  0.6688259614632983  0.6443914984928725  0.11326233325356563  1.0000
  C   C19       1.0  0.5322386153136945  0.410273659240417  0.5130685543425172  1.0000
  C   C20       1.0  0.46775769888738944  0.5897284182309194  0.48692639913166863  1.0000
  N   N1        1.0  0.17389836067005854  0.2708353372531604  0.36943183522964074  1.0000
  N   N2        1.0  0.8261005568139481  0.7291604488654855  0.6305674642756358  1.0000
  N   N3        1.0  0.05947409730252669  0.12511046486125824  0.2850967700998055  1.0000
  N   N4        1.0  0.9405290971802811  0.8748878192753864  0.7149026062740165  1.0000
  Cl  Cl1       1.0  0.025217219556068888  0.6393362521771309  0.3099479595249974  1.0000
  Cl  Cl2       1.0  0.9747705554817754  0.36066951478595394  0.690052479391767  1.0000
  O   O1        1.0  0.43992737181368813  0.3200714408354556  0.4874303616637264  1.0000
  O   O2        1.0  0.560077200542274  0.6799243495341682  0.5125685798668018  1.0000
  O   O3        1.0  0.6740389745798298  0.36438185482830227  0.5582469751157788  1.0000
  O   O4        1.0  0.3259588459083958  0.6356289418223824  0.4417504147509703  1.0000
