data_image0
_chemical_formula_structural       Pr4Cd4H28C20S4N8O44
_chemical_formula_sum              "Pr4 Cd4 H28 C20 S4 N8 O44"
_cell_length_a       8.736904710741095
_cell_length_b       10.614410065003215
_cell_length_c       13.903198477969474
_cell_angle_alpha    89.99999220818432
_cell_angle_beta     101.62991264794988
_cell_angle_gamma    89.99991423193889

_space_group_name_H-M_alt    "P 1"
_space_group_IT_number       1

loop_
  _space_group_symop_operation_xyz
  'x, y, z'

loop_
  _atom_site_type_symbol
  _atom_site_label
  _atom_site_symmetry_multiplicity
  _atom_site_fract_x
  _atom_site_fract_y
  _atom_site_fract_z
  _atom_site_occupancy
  Pr  Pr1       1.0  0.9349812764360763  0.8915072719759393  0.11127138360004102  1.0000
  Pr  Pr2       1.0  0.06502055918809191  0.3915063740570872  0.38873135265725967  1.0000
  Pr  Pr3       1.0  0.06501843323400183  0.10849201286436738  0.888728804258697  1.0000
  Pr  Pr4       1.0  0.9349803375681061  0.6084938528977445  0.6112711395245468  1.0000
  Cd  Cd1       1.0  0.6169315205180511  0.48698098080181745  0.1343767475761908  1.0000
  Cd  Cd2       1.0  0.38306775722917047  0.9869806300836715  0.36562134708787397  1.0000
  Cd  Cd3       1.0  0.3830670082450495  0.5130192461548333  0.8656218559910582  1.0000
  Cd  Cd4       1.0  0.6169319462590366  0.0130195968721765  0.6343781207388018  1.0000
  H   H1        1.0  0.6239963333634292  0.26426768567397824  0.33590896545778987  1.0000
  H   H2        1.0  0.3760033790906122  0.7642673804435134  0.16408992609350287  1.0000
  H   H3        1.0  0.3760045263070069  0.7357325412812727  0.6640892065326084  1.0000
  H   H4        1.0  0.6239974929426496  0.2357319043961255  0.8359096859608569  1.0000
  H   H5        1.0  0.0147017089053492  0.8967026441437723  0.3432587043897469  1.0000
  H   H6        1.0  0.9853000981786835  0.3967025355992604  0.1567418699788661  1.0000
  H   H7        1.0  0.9852991693079716  0.10329758281127253  0.6567416276963554  1.0000
  H   H8        1.0  0.0147019485787823  0.6032976913550455  0.843258606334764  1.0000
  H   H9        1.0  0.8295230578122529  0.9058764634021088  0.3194275507789186  1.0000
  H   H10       1.0  0.1704787316193332  0.40587735736831126  0.18057302042375767  1.0000
  H   H11       1.0  0.1704778204010609  0.0941237635529362  0.6805727813071839  1.0000
  H   H12       1.0  0.8295221465930779  0.594123811702211  0.8194273116621814  1.0000
  H   H13       1.0  0.018885306008229498  0.6214645624895851  0.1746073225588418  1.0000
  H   H14       1.0  0.9811146935771479  0.12146442835486936  0.3253930583356492  1.0000
  H   H15       1.0  0.9811132351167872  0.37853566446693077  0.8253927210722124  1.0000
  H   H16       1.0  0.0188861784552117  0.8785357986002468  0.6746065537185542  1.0000
  H   H17       1.0  0.058755403617688294  0.6837468405198309  0.27764089421464877  1.0000
  H   H18       1.0  0.9412468193977332  0.18374771655841468  0.22236047367385234  1.0000
  H   H19       1.0  0.9412431436882899  0.3162533864366138  0.7223598694483041  1.0000
  H   H20       1.0  0.058756389722020706  0.8162534525107078  0.777639426835236  1.0000
  H   H21       1.0  0.5536256008824693  0.8851717848580377  0.06908281151420677  1.0000
  H   H22       1.0  0.4463738851184047  0.3851722922438867  0.43091675834649107  1.0000
  H   H23       1.0  0.4463741026066473  0.11482749998233996  0.9309166563126323  1.0000
  H   H24       1.0  0.5536258245516663  0.61482699259642  0.5690834295122542  1.0000
  H   H25       1.0  0.6209784450842265  0.023418715322691196  0.08263719395337431  1.0000
  H   H26       1.0  0.37902173697185054  0.5234183601675824  0.4173625007435504  1.0000
  H   H27       1.0  0.37902126458494223  0.9765815116330855  0.9173629939052076  1.0000
  H   H28       1.0  0.6209803036046537  0.47658186678680176  0.5826372555381808  1.0000
  C   C1        1.0  0.5286682829676081  0.24738221453468157  0.27389928678005043  1.0000
  C   C2        1.0  0.4713314743389674  0.747380838083572  0.22610105066218006  1.0000
  C   C3        1.0  0.47133142052059906  0.7526180124211733  0.7261001810466254  1.0000
  C   C4        1.0  0.528668235332013  0.25261750464125743  0.7738991371967214  1.0000
  C   C5        1.0  0.3309468354129379  0.1590062610493277  0.1776556577965138  1.0000
  C   C6        1.0  0.6690530733964762  0.6590046227239271  0.32234255004740214  1.0000
  C   C7        1.0  0.669050518625049  0.8409939659081334  0.8223420815113086  1.0000
  C   C8        1.0  0.3309478048177539  0.34099466211564083  0.6776577820388638  1.0000
  C   C9        1.0  0.37350392886904166  0.267483299238684  0.1310978741593445  1.0000
  C   C10       1.0  0.6264945964920514  0.7674826471247512  0.36889943199101777  1.0000
  C   C11       1.0  0.6264934313499069  0.7325169277187058  0.8689005851803769  1.0000
  C   C12       1.0  0.37350628172217176  0.2325166377148165  0.6311009000952479  1.0000
  C   C13       1.0  0.2144247648339075  0.0601887854230512  0.1487684318333464  1.0000
  C   C14       1.0  0.7855753464746229  0.5601860557292325  0.35123125017513246  1.0000
  C   C15       1.0  0.7855749448343516  0.9398123836482097  0.851231756025065  1.0000
  C   C16       1.0  0.21442435701448662  0.4398132291111381  0.6487682176517069  1.0000
  C   C17       1.0  0.3150582836945545  0.3283138562483643  0.03471715823835809  1.0000
  C   C18       1.0  0.6849413055268271  0.8283140564498477  0.46528171121138934  1.0000
  C   C19       1.0  0.6849379079802418  0.6716863707097647  0.9652811568738426  1.0000
  C   C20       1.0  0.3150560670540372  0.1716861705074066  0.5347181881921301  1.0000
  S   S1        1.0  0.7860232866638269  0.21947473193019823  0.04302295983691101  1.0000
  S   S2        1.0  0.21397769906479172  0.7194736313759833  0.4569782514951938  1.0000
  S   S3        1.0  0.21397642918630316  0.7805254950255147  0.9569779480535701  1.0000
  S   S4        1.0  0.7860231791494315  0.2805256534635916  0.543022080591072  1.0000
  N   N1        1.0  0.49837532635891796  0.3207956469878752  0.1936553266757031  1.0000
  N   N2        1.0  0.5016231087839671  0.8207961027003348  0.3063434011409001  1.0000
  N   N3        1.0  0.5016220338600306  0.6792045799695217  0.8063431326640184  1.0000
  N   N4        1.0  0.4983754323410495  0.17920412425618076  0.6936566424901471  1.0000
  N   N5        1.0  0.42894184674000263  0.1498328138380387  0.2683157249593719  1.0000
  N   N6        1.0  0.5710569235387125  0.6498303710239026  0.23168378188659486  1.0000
  N   N7        1.0  0.5710578505663334  0.8501683552333574  0.7316830228352416  1.0000
  N   N8        1.0  0.42894278613226783  0.3501679717009266  0.7683164059723067  1.0000
  O   O1        1.0  0.18785790288606558  0.9828929254165574  0.21453415872706216  1.0000
  O   O2        1.0  0.8121378956397721  0.4828901810162876  0.2854656647612757  1.0000
  O   O3        1.0  0.8121394635129348  0.017108243656238604  0.7854650206443946  1.0000
  O   O4        1.0  0.18785947694109947  0.5171100459409671  0.7145342346422507  1.0000
  O   O5        1.0  0.1383948311080943  0.048032724445562315  0.060539609208227284  1.0000
  O   O6        1.0  0.861604128863277  0.5480317689425576  0.43945921273540717  1.0000
  O   O7        1.0  0.8616048785619767  0.9519665603947373  0.9394605786505109  1.0000
  O   O8        1.0  0.13839674934913399  0.45196940012796466  0.5605411193505316  1.0000
  O   O9        1.0  0.2039362403975957  0.2824460052835676  0.9724020701510269  1.0000
  O   O10       1.0  0.7960621895159504  0.7824480322364663  0.5275970935711172  1.0000
  O   O11       1.0  0.7960623069083823  0.7175542216728773  0.027598693511926328  1.0000
  O   O12       1.0  0.20393636397098908  0.2175521947199144  0.4724043901237351  1.0000
  O   O13       1.0  0.38314564696707976  0.4312323945467753  0.018904484214481015  1.0000
  O   O14       1.0  0.6168502447747599  0.9312336181159678  0.48109463706862227  1.0000
  O   O15       1.0  0.6168505570678279  0.5687697166421657  0.981095270961191  1.0000
  O   O16       1.0  0.38314712162605247  0.06876566672587359  0.5189045423031685  1.0000
  O   O17       1.0  0.6189719059883528  0.18488695210062636  0.016031207346941315  1.0000
  O   O18       1.0  0.38103032719920554  0.6848837559695866  0.4839716002126265  1.0000
  O   O19       1.0  0.3810278036799062  0.8151142169706347  0.9839689805114771  1.0000
  O   O20       1.0  0.6189717381038661  0.3151136446380817  0.5160310361971909  1.0000
  O   O21       1.0  0.8078929881146878  0.34530083064389316  0.0925602993690617  1.0000
  O   O22       1.0  0.1921089116913777  0.8453007082639276  0.4074395727057194  1.0000
  O   O23       1.0  0.1921067153735194  0.6546993963119547  0.9074391684576142  1.0000
  O   O24       1.0  0.8078931350669978  0.15469857657490851  0.5925609036080742  1.0000
  O   O25       1.0  0.8676583999557793  0.1239272073818043  0.1162556308634777  1.0000
  O   O26       1.0  0.13234158871104282  0.6239262210602803  0.3837440291494331  1.0000
  O   O27       1.0  0.13234130353242793  0.8760730195740436  0.8837438369631981  1.0000
  O   O28       1.0  0.8676604456854092  0.3760730637786907  0.6162550071005553  1.0000
  O   O29       1.0  0.859116626436979  0.2220776685951975  0.9557484802170109  1.0000
  O   O30       1.0  0.1408819258159824  0.7220767336409608  0.5442514243698469  1.0000
  O   O31       1.0  0.14088308941315117  0.7779225583605083  0.04425242767347019  1.0000
  O   O32       1.0  0.8591166091308011  0.27792066696919443  0.4557478992297915  1.0000
  O   O33       1.0  0.92285297377083  0.9346618040248204  0.2974360478173067  1.0000
  O   O34       1.0  0.07714875409430282  0.4346618671903286  0.20256379342018244  1.0000
  O   O35       1.0  0.07714789826152918  0.0653384229302958  0.7025635642368966  1.0000
  O   O36       1.0  0.9228521179371468  0.5653393018802647  0.7974358186338577  1.0000
  O   O37       1.0  0.0063132633524461005  0.7008349697864914  0.20804949047851548  1.0000
  O   O38       1.0  0.9936877520593298  0.2008348262157682  0.29195100725385  1.0000
  O   O39       1.0  0.993685277771661  0.29916619928550153  0.7919505531523681  1.0000
  O   O40       1.0  0.0063142885171814  0.7991654007386159  0.7080487490278812  1.0000
  O   O41       1.0  0.643412334497185  0.9351886369513097  0.10307057478772917  1.0000
  O   O42       1.0  0.35658822381047633  0.43518831936771113  0.3969291220404969  1.0000
  O   O43       1.0  0.3565873689910219  0.06481159000454541  0.8969288930389538  1.0000
  O   O44       1.0  0.6434114858595947  0.5648109654725957  0.6030710658182412  1.0000
