data_image0
_chemical_formula_structural       Zn2H18C32Br2N2O10
_chemical_formula_sum              "Zn2 H18 C32 Br2 N2 O10"
_cell_length_a       9.714481032740261
_cell_length_b       11.043885455476206
_cell_length_c       17.711382112039793
_cell_angle_alpha    90.7825626262963
_cell_angle_beta     89.02544217271542
_cell_angle_gamma    91.8835046425008

_space_group_name_H-M_alt    "P 1"
_space_group_IT_number       1

loop_
  _space_group_symop_operation_xyz
  'x, y, z'

loop_
  _atom_site_type_symbol
  _atom_site_label
  _atom_site_symmetry_multiplicity
  _atom_site_fract_x
  _atom_site_fract_y
  _atom_site_fract_z
  _atom_site_occupancy
  Zn  Zn1       1.0  0.6337909778869671  0.5030162274676114  0.4998268030112172  1.0000
  Zn  Zn2       1.0  0.3528177991246508  0.49542646083033764  0.5032364501733326  1.0000
  H   H1        1.0  0.2805472138666047  0.0998823594467808  0.5203251601104029  1.0000
  H   H2        1.0  0.8162253334970301  0.1428585141006309  0.4487824080405077  1.0000
  H   H3        1.0  0.8273768741296906  0.1202998497070027  0.5481315251689054  1.0000
  H   H4        1.0  0.8182873025417622  0.9193511393302028  0.42606916245719634  1.0000
  H   H5        1.0  0.8388106479606275  0.8952337445843168  0.5251403256679127  1.0000
  H   H6        1.0  0.10819056460299949  0.37945516803520707  0.594241648868973  1.0000
  H   H7        1.0  0.8483536387621199  0.37791297474734603  0.5858491266073287  1.0000
  H   H8        1.0  0.8862583606687479  0.7454457227917781  0.4086009711713174  1.0000
  H   H9        1.0  0.1476017656953346  0.6238050733386586  0.344408422334169  1.0000
  H   H10       1.0  0.6910964763687417  0.4301982432994077  0.7303573796689591  1.0000
  H   H11       1.0  0.1482089832799502  0.7437783048886004  0.4134167955919352  1.0000
  H   H12       1.0  0.2951978303630938  0.5487655478751421  0.8929464240696063  1.0000
  H   H13       1.0  0.6890012925232725  0.37723706353948233  0.2692004466398146  1.0000
  H   H14       1.0  0.2646283694409846  0.4721124985938656  0.2608100732114807  1.0000
  H   H15       1.0  0.2739961431275191  0.45684214178803717  0.11976036025560428  1.0000
  H   H16       1.0  0.28775235125936394  0.8755651844696644  0.5092013647606849  1.0000
  H   H17       1.0  0.6977909353735825  0.36193115457879077  0.9257533591400177  1.0000
  H   H18       1.0  0.7915819822322377  0.33398393400497633  0.15454929635996006  1.0000
  C   C1        1.0  0.5067967673563132  0.7348262032044984  0.48863797786774643  1.0000
  C   C2        1.0  0.490887199656683  0.4613573321335308  0.8893668265469686  1.0000
  C   C3        1.0  0.4912173550987617  0.43538844609035704  0.9670389982559229  1.0000
  C   C4        1.0  0.4937495210536795  0.4158879206041845  0.0348217803844193  1.0000
  C   C5        1.0  0.6034638604310486  0.3820437632180214  0.1573158151296923  1.0000
  C   C6        1.0  0.5981710809013662  0.3931152619649935  0.2357629933305176  1.0000
  C   C7        1.0  0.4775889069327306  0.42886911336660205  0.2729470488919575  1.0000
  C   C8        1.0  0.35892504678939463  0.44763233394338175  0.231156434371897  1.0000
  C   C9        1.0  0.3641700172256889  0.43861162731596426  0.15307027835363132  1.0000
  C   C10       1.0  0.4871901020328621  0.4093796412325545  0.1142354150110592  1.0000
  C   C11       1.0  0.626744617097195  0.9435315949967701  0.49280462170050754  1.0000
  C   C12       1.0  0.4773250323911427  0.45384693858355957  0.3562289497409665  1.0000
  C   C13       1.0  0.5075041905351511  0.8697508647603054  0.494716227529473  1.0000
  C   C14       1.0  0.382859819393893  0.9304190035453386  0.5058862618955048  1.0000
  C   C15       1.0  0.3788540193055638  0.05598274804860639  0.5131983269688334  1.0000
  C   C16       1.0  0.500154799622024  0.1296574491576337  0.5118056867511243  1.0000
  C   C17       1.0  0.6229618361409521  0.06924857920398608  0.5023868609639521  1.0000
  C   C18       1.0  0.7779841576145258  0.0871680111606139  0.4960976250635198  1.0000
  C   C19       1.0  0.7824029325466525  0.9454048823607619  0.48306664640328734  1.0000
  C   C20       1.0  0.07391063533130192  0.566228708287845  0.4571545172088065  1.0000
  C   C21       1.0  0.05732439306448361  0.43357692676115517  0.5526232141729537  1.0000
  C   C22       1.0  0.9135505191287833  0.43310219594792443  0.5482790345239081  1.0000
  C   C23       1.0  0.49559234603498237  0.2642675634720105  0.5164834056048875  1.0000
  C   C24       1.0  0.9309483414645568  0.5655865857791225  0.45295271893775185  1.0000
  C   C25       1.0  0.9339060825996127  0.6604261335714908  0.3921781890503553  1.0000
  C   C26       1.0  0.0967924465265  0.658294932585555  0.39570436437153944  1.0000
  C   C27       1.0  0.49450831774151277  0.520547371652256  0.6487637190970332  1.0000
  C   C28       1.0  0.604516012742387  0.42936627855934256  0.842832802139597  1.0000
  C   C29       1.0  0.6040724679801173  0.45525644151263833  0.7661068296602808  1.0000
  C   C30       1.0  0.4924745635747954  0.5107051719261119  0.7332705166132174  1.0000
  C   C31       1.0  0.38124562904434356  0.5449917142152643  0.7801909508287751  1.0000
  C   C32       1.0  0.3808552780753586  0.5212045941178542  0.8569250596915412  1.0000
  Br  Br1       1.0  0.8557988098108426  0.613933245464622  0.2947957230295373  1.0000
  Br  Br2       1.0  0.22887787221182518  0.6318099922766363  0.7445483192581366  1.0000
  N   N1        1.0  0.1406585555636966  0.5011448336821684  0.5063600305171363  1.0000
  N   N2        1.0  0.8471142529590452  0.5003526304456613  0.497636714944271  1.0000
  O   O1        1.0  0.6225297000209764  0.6845798607678119  0.4784168402474549  1.0000
  O   O2        1.0  0.39032627069321524  0.6792335948636747  0.49540408864071855  1.0000
  O   O3        1.0  0.592007539834988  0.44939257929987525  0.3898821890603942  1.0000
  O   O4        1.0  0.3625621243497648  0.4803364924354909  0.38726552803391473  1.0000
  O   O5        1.0  0.610113558299716  0.3219014057731257  0.5265217789273463  1.0000
  O   O6        1.0  0.3789578575366975  0.3114808776715919  0.5081775634003307  1.0000
  O   O7        1.0  0.6103845275121245  0.5392253331224451  0.6155177733202777  1.0000
  O   O8        1.0  0.3792170749156654  0.5034795529171631  0.6167513747868087  1.0000
  O   O9        1.0  0.7142987219402811  0.37310036589339984  0.8714433197942313  1.0000
  O   O10       1.0  0.7196890847504136  0.34898110304854396  0.11846668422175811  1.0000
