data_image0
_chemical_formula_structural       Zn4H32C16Br8O8
_chemical_formula_sum              "Zn4 H32 C16 Br8 O8"
_cell_length_a       7.1292122567518295
_cell_length_b       9.81300952339983
_cell_length_c       11.91743318100473
_cell_angle_alpha    89.99997381481148
_cell_angle_beta     89.99990699331549
_cell_angle_gamma    99.63852209383961

_space_group_name_H-M_alt    "P 1"
_space_group_IT_number       1

loop_
  _space_group_symop_operation_xyz
  'x, y, z'

loop_
  _atom_site_type_symbol
  _atom_site_label
  _atom_site_symmetry_multiplicity
  _atom_site_fract_x
  _atom_site_fract_y
  _atom_site_fract_z
  _atom_site_occupancy
  Zn  Zn1       1.0  0.661110643535636  0.2703995954160235  0.8142555042424177  1.0000
  Zn  Zn2       1.0  0.1611094067771788  0.7703995084215195  0.6857447584524294  1.0000
  Zn  Zn3       1.0  0.3388908041648547  0.7296013450694476  0.18574439363739964  1.0000
  Zn  Zn4       1.0  0.838890402112611  0.2296003965695378  0.3142559785352431  1.0000
  H   H1        1.0  0.3846956741524535  0.47874200728016103  0.8091387256879443  1.0000
  H   H2        1.0  0.8846941410929857  0.9787412046357179  0.6908604021109708  1.0000
  H   H3        1.0  0.6153043704458554  0.5212589313566411  0.19086033308568054  1.0000
  H   H4        1.0  0.11530426469584398  0.021258698507061514  0.3091386566636557  1.0000
  H   H5        1.0  0.5763714939677058  0.6044331040118325  0.8620862520704617  1.0000
  H   H6        1.0  0.0763716525845837  0.10443199331140826  0.6379133163868147  1.0000
  H   H7        1.0  0.42362691182112394  0.3955667991309469  0.1379128067041648  1.0000
  H   H8        1.0  0.9236281563064278  0.8955679116800253  0.3620865814939903  1.0000
  H   H9        1.0  0.7791220408912379  0.5318557753003149  0.005412599580893099  1.0000
  H   H10       1.0  0.2791213935309215  0.03185537371592061  0.4945870660506485  1.0000
  H   H11       1.0  0.22087800370584892  0.46814516333610384  0.9945872982996061  1.0000
  H   H12       1.0  0.7208770122579153  0.9681445294268517  0.505411992723971  1.0000
  H   H13       1.0  0.7306219946173085  0.35606919685519517  0.05207874546405118  1.0000
  H   H14       1.0  0.2306216309690541  0.8560699068066031  0.4479208452143125  1.0000
  H   H15       1.0  0.269377578567628  0.643929674491254  0.9479211524170663  1.0000
  H   H16       1.0  0.7693781779219575  0.14392999818483795  0.5520790526664925  1.0000
  H   H17       1.0  0.3290872647894218  0.9767720302919544  0.8696869321301648  1.0000
  H   H18       1.0  0.8290817875386194  0.47677124176137664  0.6303122504651029  1.0000
  H   H19       1.0  0.6709141829122911  0.023228910193893202  0.1303121266427851  1.0000
  H   H20       1.0  0.17091661824775878  0.5232286613806353  0.3696884865232447  1.0000
  H   H21       1.0  0.2886806706109367  0.14235188965866294  0.9189250606400275  1.0000
  H   H22       1.0  0.7886780550841905  0.6423511850570593  0.5810742871695779  1.0000
  H   H23       1.0  0.7113207770895541  0.8576490508268082  0.0810748372397825  1.0000
  H   H24       1.0  0.211320586408263  0.3576497517299445  0.41892644981846416  1.0000
  H   H25       1.0  0.8294980599779507  0.05235125631038781  0.9437648952798482  1.0000
  H   H26       1.0  0.32949603405966593  0.5523523189490193  0.5562361249609393  1.0000
  H   H27       1.0  0.17050315201768737  0.9476486505304749  0.056234163493414285  1.0000
  H   H28       1.0  0.6705021360218665  0.4476465505483916  0.44376377292086017  1.0000
  H   H29       1.0  0.6482699572033537  0.9231874963304778  0.8839448909503955  1.0000
  H   H30       1.0  0.14826620605560242  0.4231874336166543  0.6160544875816497  1.0000
  H   H31       1.0  0.3517312547922913  0.07681241051038513  0.11605416782285967  1.0000
  H   H32       1.0  0.8517321997332274  0.576812469526118  0.38394457119296976  1.0000
  C   C1        1.0  0.46514230694052117  0.5167692923404277  0.8844510379189713  1.0000
  C   C2        1.0  0.9651422495152883  0.016767490994148204  0.6155490247652722  1.0000
  C   C3        1.0  0.5348577376577878  0.48323164629637483  0.11554802085465349  1.0000
  C   C4        1.0  0.03485732366964816  0.9832313803523011  0.3844508731158455  1.0000
  C   C5        1.0  0.6657106074389317  0.4447346892168938  0.025883522192621893  1.0000
  C   C6        1.0  0.16570993158133263  0.9447343416892623  0.4741152590838453  1.0000
  C   C7        1.0  0.3342894371593843  0.5552662494199155  0.9741155365810101  1.0000
  C   C8        1.0  0.8342884742062748  0.05526556145313324  0.5258846387976419  1.0000
  C   C9        1.0  0.3652501978640145  0.05616110105921732  0.9349947752348412  1.0000
  C   C10       1.0  0.8652490323719133  0.5561604129277457  0.5650053697123949  1.0000
  C   C11       1.0  0.6347510141304014  0.9438388057812621  0.06500512264528169  1.0000
  C   C12       1.0  0.13475217962128025  0.4438394939123497  0.4349953672745953  1.0000
  C   C13       1.0  0.6800317869739699  0.0029417341949127002  0.9493886714374893  1.0000
  C   C14       1.0  0.1800279029644115  0.502940732811389  0.5506125126961904  1.0000
  C   C15       1.0  0.31996825762433906  0.9970592044418896  0.050610387336142496  1.0000
  C   C16       1.0  0.8199686283051901  0.49705710119121715  0.44938906340032486  1.0000
  Br  Br1       1.0  0.9918052735180892  0.3002688866152853  0.8193243824708529  1.0000
  Br  Br2       1.0  0.4918040515640243  0.8002688042329853  0.6806755475332196  1.0000
  Br  Br3       1.0  0.008195938476326697  0.6997310202251942  0.1806755154092698  1.0000
  Br  Br4       1.0  0.5081957573269873  0.1997311007584487  0.3193243503475855  1.0000
  Br  Br5       1.0  0.47021174515032255  0.2564006160690654  0.6547606840045929  1.0000
  Br  Br6       1.0  0.9702121071461391  0.7564038093875356  0.8452409617216005  1.0000
  Br  Br7       1.0  0.5297873566200124  0.7435961879866472  0.34524089209087083  1.0000
  Br  Br8       1.0  0.029788408861868697  0.24359919653848291  0.15475977526514126  1.0000
  O   O1        1.0  0.5560070495380671  0.4036200710309786  0.9246215780300345  1.0000
  O   O2        1.0  0.05600589940551259  0.903619050811713  0.5753770584445022  1.0000
  O   O3        1.0  0.44399439816486824  0.5963808694552527  0.07537664163604768  1.0000
  O   O4        1.0  0.9439936737794238  0.0963798205347359  0.4246228394366156  1.0000
  O   O5        1.0  0.5676538438149024  0.11119352499263611  0.9276558378574434  1.0000
  O   O6        1.0  0.06765153514412252  0.6111935393292995  0.5723445756355118  1.0000
  O   O7        1.0  0.43234596507733164  0.8888063799991817  0.07234322091649399  1.0000
  O   O8        1.0  0.9323471063495533  0.38880739745808063  0.4276553222456698  1.0000
