data_image0
_chemical_formula_structural       CdFe2H44C48Br2N8O4
_chemical_formula_sum              "Cd1 Fe2 H44 C48 Br2 N8 O4"
_cell_length_a       8.937430079495995
_cell_length_b       10.664195659593798
_cell_length_c       13.308807891763434
_cell_angle_alpha    107.68127379303414
_cell_angle_beta     105.65902310926361
_cell_angle_gamma    93.51810315790622

_space_group_name_H-M_alt    "P 1"
_space_group_IT_number       1

loop_
  _space_group_symop_operation_xyz
  'x, y, z'

loop_
  _atom_site_type_symbol
  _atom_site_label
  _atom_site_symmetry_multiplicity
  _atom_site_fract_x
  _atom_site_fract_y
  _atom_site_fract_z
  _atom_site_occupancy
  Cd  Cd1       1.0  0.5000027790792458  1.9421560179789819e-07  0.5000039255006572  1.0000
  Fe  Fe1       1.0  0.3286994675056859  0.4297599920724762  0.17634306861549484  1.0000
  Fe  Fe2       1.0  0.6713086236795079  0.5702379579204546  0.8236599183281758  1.0000
  H   H1        1.0  0.01949066438103126  0.47344830398754556  0.16632714116740743  1.0000
  H   H2        1.0  0.9805203252806292  0.5265685960227201  0.833680786086987  1.0000
  H   H3        1.0  0.24517227842482467  0.6865880796724751  0.2242065071493543  1.0000
  H   H4        1.0  0.754848758211672  0.31342042590900115  0.7757916213266827  1.0000
  H   H5        1.0  0.4324710423017207  0.622312962611865  0.09367456127991866  1.0000
  H   H6        1.0  0.567545469219837  0.3776746661618943  0.9063201253018252  1.0000
  H   H7        1.0  0.32481158179968606  0.3679423855510393  0.9546766348598229  1.0000
  H   H8        1.0  0.675183489661208  0.6320488048519765  0.04532005092173117  1.0000
  H   H9        1.0  0.5048140285454608  0.22004434662618869  0.1316020595405902  1.0000
  H   H10       1.0  0.49519933423177775  0.7799515649723503  0.868405969272317  1.0000
  H   H11       1.0  0.2546167487581954  0.18610436624673804  0.20643542832663545  1.0000
  H   H12       1.0  0.7453875021891463  0.813891614121289  0.7935633645386704  1.0000
  H   H13       1.0  0.2604547277831771  0.4113821894250762  0.3673391980556176  1.0000
  H   H14       1.0  0.7395413679650671  0.5886140211924555  0.6326610999612543  1.0000
  H   H15       1.0  0.5066379088643913  0.5909913216365155  0.39182604397377235  1.0000
  H   H16       1.0  0.49336323073554667  0.4090018678866229  0.6081797764903032  1.0000
  H   H17       1.0  0.8090754223208733  0.041300904579763695  0.030690898776214174  1.0000
  H   H18       1.0  0.19091500469703238  0.958729636098418  0.9693267894091308  1.0000
  H   H19       1.0  0.8987629994196736  0.011264741589741306  0.9232264272706776  1.0000
  H   H20       1.0  0.1012168238949016  0.9887380110688752  0.0767828056391195  1.0000
  H   H21       1.0  0.7632455578653888  0.029641149135684896  0.7419329991090751  1.0000
  H   H22       1.0  0.23674755196679328  0.9703742312259673  0.25807642930232083  1.0000
  H   H23       1.0  0.29337481775513646  0.0717952424870845  0.6623673608593921  1.0000
  H   H24       1.0  0.7066139919384327  0.9282039730689389  0.33762322599677225  1.0000
  H   H25       1.0  0.2913198205482246  0.11543407067619431  0.8598427470809472  1.0000
  H   H26       1.0  0.7086529636946961  0.8845665347215994  0.14014736193780652  1.0000
  H   H27       1.0  0.5448896411889379  0.11728124833754798  0.0011812584319415582  1.0000
  H   H28       1.0  0.4550816456993017  0.8827344654278304  0.9988158212096183  1.0000
  H   H29       1.0  0.8569939170969078  0.7841650281130869  0.27847031493076474  1.0000
  H   H30       1.0  0.14301769692256977  0.2158389142716501  0.7215384886024839  1.0000
  H   H31       1.0  0.8973837331485367  0.6329428377620658  0.19951193153308824  1.0000
  H   H32       1.0  0.10261582546277027  0.3670631479065846  0.8004822715529658  1.0000
  H   H33       1.0  0.12913507786919345  0.8897785961762421  0.36385804187357007  1.0000
  H   H34       1.0  0.8708734583473469  0.11021640712496608  0.6361481052154334  1.0000
  H   H35       1.0  0.4404271880479483  0.7527252921545723  0.5836883760302103  1.0000
  H   H36       1.0  0.5595756392501058  0.24726484537066537  0.4163163078654721  1.0000
  H   H37       1.0  0.24035805770891724  0.557673822679611  0.5493524521490658  1.0000
  H   H38       1.0  0.7596416268741136  0.44231727998143083  0.45064584404371305  1.0000
  H   H39       1.0  0.9775139137022321  0.522942430917375  0.4060264804969763  1.0000
  H   H40       1.0  0.022492001280504312  0.4770444025713516  0.5939644993195048  1.0000
  H   H41       1.0  0.8885871642606346  0.2804875185803723  0.07089332421172401  1.0000
  H   H42       1.0  0.11142611545027134  0.7195232360078518  0.9291083558225284  1.0000
  H   H43       1.0  0.7002361205020688  0.6648134380551483  0.34913739116709064  1.0000
  H   H44       1.0  0.2997726968095761  0.3351874200198707  0.6508618983707424  1.0000
  C   C1        1.0  0.1375707322196362  0.37571356133050665  0.039326649976125304  1.0000
  C   C2        1.0  0.8624363258848856  0.6242904154389705  0.9606775355833225  1.0000
  C   C3        1.0  0.11198934481397058  0.4802132679911607  0.12850420472913274  1.0000
  C   C4        1.0  0.8880292922997696  0.519795368166818  0.8714980058304892  1.0000
  C   C5        1.0  0.23028949031800747  0.5927653525272517  0.15820529260796692  1.0000
  C   C6        1.0  0.7697246986982619  0.40723337377821167  0.8417937755645968  1.0000
  C   C7        1.0  0.3298839485633351  0.5583790429725753  0.08914095618063565  1.0000
  C   C8        1.0  0.6701307426914693  0.44161668328392506  0.9108582645746782  1.0000
  C   C9        1.0  0.27404154528301916  0.42459774055852517  0.016203999608166014  1.0000
  C   C10       1.0  0.7259655073130347  0.5753952025592071  0.9837961269908323  1.0000
  C   C11       1.0  0.5556467084605216  0.4254043313428894  0.255901765044115  1.0000
  C   C12       1.0  0.4443571431248827  0.5745908263968502  0.7441065310868925  1.0000
  C   C13       1.0  0.4724709637390987  0.29216012213612425  0.19601115406690894  1.0000
  C   C14       1.0  0.5275385967647921  0.707839901379593  0.8039986052574196  1.0000
  C   C15       1.0  0.3428363897371368  0.2741764286578174  0.23631172145450566  1.0000
  C   C16       1.0  0.6571666471470151  0.7258196303377744  0.7636898643432349  1.0000
  C   C17       1.0  0.3450699599351879  0.3947416698485783  0.32160369890271323  1.0000
  C   C18       1.0  0.6549303506616936  0.6052524342697225  0.6783961631187412  1.0000
  C   C19       1.0  0.4748821943200453  0.4894454679164183  0.3338665409955014  1.0000
  C   C20       1.0  0.5251223833917962  0.5105525979054093  0.6661380577296686  1.0000
  C   C21       1.0  0.04802590269068219  0.2396828051740343  0.9817125741811172  1.0000
  C   C22       1.0  0.9519663022094133  0.7603213266986087  0.018279046608078827  1.0000
  C   C23       1.0  0.8290204336073116  0.07733923779139928  0.9655752940426939  1.0000
  C   C24       1.0  0.17096440769981305  0.9226752834052687  0.03443010497307597  1.0000
  C   C25       1.0  0.6745056825083039  0.0761083225587385  0.883370136953012  1.0000
  C   C26       1.0  0.3254801775776953  0.9239001852006935  0.11663481533762625  1.0000
  C   C27       1.0  0.6623455079398468  0.0521633331188625  0.7719595915906442  1.0000
  C   C28       1.0  0.33764561988574826  0.9478480616772201  0.2280470331586032  1.0000
  C   C29       1.0  0.39885289891200415  0.07389149878474649  0.7279411782396609  1.0000
  C   C30       1.0  0.6011330090202732  0.9261108473967422  0.27205333811732413  1.0000
  C   C31       1.0  0.39869130206997017  0.09765581674897558  0.836816476687041  1.0000
  C   C32       1.0  0.6012911781997372  0.9023465652255563  0.16317514010757603  1.0000
  C   C33       1.0  0.5392079908254601  0.09889583915201432  0.9150016433742042  1.0000
  C   C34       1.0  0.46076734423071036  0.9011118066258348  0.08499584269794982  1.0000
  C   C35       1.0  0.6959769461689971  0.48090828718260764  0.2348385627357175  1.0000
  C   C36       1.0  0.3040267739362079  0.5190907199130024  0.7651615813281227  1.0000
  C   C37       1.0  0.8824341759636097  0.6853714879021808  0.28024813840667673  1.0000
  C   C38       1.0  0.11757224676614436  0.31462337918933503  0.7197470529530109  1.0000
  C   C39       1.0  0.0337788427602277  0.7015754008178731  0.37087876947967413  1.0000
  C   C40       1.0  0.9662320979199562  0.2984133503468199  0.6291151152640353  1.0000
  C   C41       1.0  0.15047851091531322  0.810685428278539  0.3999061857573666  1.0000
  C   C42       1.0  0.8495318131119446  0.18930642964959787  0.6000935615287377  1.0000
  C   C43       1.0  0.32295980023773296  0.7367151668798043  0.5254919715537059  1.0000
  C   C44       1.0  0.677045227446328  0.2632738306902951  0.47450760705508105  1.0000
  C   C45       1.0  0.21112433695083146  0.627905718064575  0.5051132625090134  1.0000
  C   C46       1.0  0.7888814636175138  0.37208122213863953  0.4948837324326264  1.0000
  C   C47       1.0  0.06576764914611027  0.6091595449999615  0.425905120933898  1.0000
  C   C48       1.0  0.9342369098438893  0.390826304380461  0.5740846210491173  1.0000
  Br  Br1       1.0  0.2759399787057361  0.16598203416242538  0.4771888313584969  1.0000
  Br  Br2       1.0  0.7240521244257321  0.8340062320026005  0.5228073631153765  1.0000
  N   N1        1.0  0.9249779941782136  0.20855943360172088  0.01635805462566963  1.0000
  N   N2        1.0  0.07501590392848098  0.7914526799247666  0.9836364885555897  1.0000
  N   N3        1.0  0.528242330667041  0.0518286726941497  0.6961142387910403  1.0000
  N   N4        1.0  0.47174804351693916  0.9481786445695022  0.30388603747299225  1.0000
  N   N5        1.0  0.7481042488949257  0.6129509036173598  0.2900636295402209  1.0000
  N   N6        1.0  0.2519041415396116  0.38704796237902866  0.7099351173722612  1.0000
  N   N7        1.0  0.2925594057916925  0.826643714735269  0.47348936313449047  1.0000
  N   N8        1.0  0.707448305274248  0.1733472777300591  0.5265141949225198  1.0000
  O   O1        1.0  0.08434910848421139  0.15782751929766903  0.9057732011936469  1.0000
  O   O2        1.0  0.91563069500053  0.8421827053044094  0.09420694544085956  1.0000
  O   O3        1.0  0.7609193450494726  0.4096814324131229  0.17083833610996632  1.0000
  O   O4        1.0  0.23907339454520124  0.5903147473009015  0.829155302891316  1.0000
