data_image0
_chemical_formula_structural       Zn6H12C12N18F6
_chemical_formula_sum              "Zn6 H12 C12 N18 F6"
_cell_length_a       9.81182346363019
_cell_length_b       11.29501964875605
_cell_length_c       11.295020888390024
_cell_angle_alpha    111.96373308224221
_cell_angle_beta     106.82769074640964
_cell_angle_gamma    106.82791169115625

_space_group_name_H-M_alt    "P 1"
_space_group_IT_number       1

loop_
  _space_group_symop_operation_xyz
  'x, y, z'

loop_
  _atom_site_type_symbol
  _atom_site_label
  _atom_site_symmetry_multiplicity
  _atom_site_fract_x
  _atom_site_fract_y
  _atom_site_fract_z
  _atom_site_occupancy
  Zn  Zn1       1.0  0.6266072957259681  0.3765661311618231  0.7532740470695742  1.0000
  Zn  Zn2       1.0  0.8733933882365152  0.24672644254753345  0.6234345097209159  1.0000
  Zn  Zn3       1.0  0.25000057970036954  0.376602502031318  0.6233968716031627  1.0000
  Zn  Zn4       1.0  0.37339264663521027  0.6234338627268272  0.24672611018745982  1.0000
  Zn  Zn5       1.0  0.12660655412465627  0.7532735513411167  0.3765656475361184  1.0000
  Zn  Zn6       1.0  0.7499998983111453  0.623396424062193  0.3766021394030902  1.0000
  H   H1        1.0  0.6373397071712503  0.5908461420611317  0.6168765592934806  1.0000
  H   H2        1.0  0.020443730103927797  0.38314036456622363  0.9740864261525105  1.0000
  H   H3        1.0  0.04660275807118099  0.0260852624114136  0.4091797338917616  1.0000
  H   H4        1.0  0.47955734251052473  0.025915388887732097  0.616860458571182  1.0000
  H   H5        1.0  0.45339906946809805  0.5908227863396718  0.9739140100663735  1.0000
  H   H6        1.0  0.8626583795535723  0.3831220764803547  0.4091518030252955  1.0000
  H   H7        1.0  0.362659172328634  0.4091517163093528  0.3831216463557042  1.0000
  H   H8        1.0  0.9795578155197406  0.6168606971998685  0.025913652376779468  1.0000
  H   H9        1.0  0.9533977104385941  0.9739136633732598  0.5908210452841375  1.0000
  H   H10       1.0  0.5204425808471671  0.9740846043832435  0.3831432350251307  1.0000
  H   H11       1.0  0.5466030147125239  0.4091793434171295  0.026085718139604874  1.0000
  H   H12       1.0  0.13734103375239937  0.6168768497264238  0.590846936385404  1.0000
  C   C1        1.0  0.6934962873161438  0.523900368401918  0.5818076193400331  1.0000
  C   C2        1.0  0.11162873466215471  0.41823250768202774  0.9421513838204592  1.0000
  C   C3        1.0  0.1696863031623863  0.0579211389449981  0.47611552987514477  1.0000
  C   C4        1.0  0.38837258680187864  0.0578496319610977  0.581769279349416  1.0000
  C   C5        1.0  0.33031539437467233  0.5238864464802475  0.9420783301454565  1.0000
  C   C6        1.0  0.8065021084794071  0.41819106208668444  0.47609796435570234  1.0000
  C   C7        1.0  0.30650312123895435  0.47609855765044534  0.41819200415548613  1.0000
  C   C8        1.0  0.8883733447675939  0.5817696219203583  0.057849228470338625  1.0000
  C   C9        1.0  0.8303152348038056  0.9420777868808229  0.5238846368114878  1.0000
  C   C10       1.0  0.6116262718502627  0.9421503614231453  0.4182341426513505  1.0000
  C   C11       1.0  0.6696872188611638  0.4761167509584255  0.057922815906856336  1.0000
  C   C12       1.0  0.19349730482655766  0.5818078641201011  0.5239007750549973  1.0000
  N   N1        1.0  0.7138452580073817  0.43695513296216854  0.6310351626828705  1.0000
  N   N2        1.0  0.08277486169517807  0.36898658871652407  0.8060087079123691  1.0000
  N   N3        1.0  0.27694331271556655  0.1940399774135315  0.5630568986713699  1.0000
  N   N4        1.0  0.4172259966176029  0.19399272399702736  0.6310139506975008  1.0000
  N   N5        1.0  0.22305675039287118  0.4369441466824427  0.8059604721362563  1.0000
  N   N6        1.0  0.7861538409749117  0.3689632481736922  0.563043033337941  1.0000
  N   N7        1.0  0.2861536214925096  0.5630427254083229  0.368963042966314  1.0000
  N   N8        1.0  0.9172261482781537  0.6310155408447073  0.1939925168677021  1.0000
  N   N9        1.0  0.7230571557942087  0.805958948371142  0.4369438805045292  1.0000
  N   N10       1.0  0.5827744718921722  0.806006201787646  0.36898682847839126  1.0000
  N   N11       1.0  0.7769447952308044  0.5630569150836495  0.19403960639302664  1.0000
  N   N12       1.0  0.21384397857029577  0.6310346104644894  0.43695401663087113  1.0000
  N   N13       1.0  0.7499990482919756  0.5156019729006046  0.48439605996767204  1.0000
  N   N14       1.0  0.26551226402317246  0.515615080197101  0.03119879069434728  1.0000
  N   N15       1.0  0.23448916328607805  0.9688013326796681  0.4843862199226481  1.0000
  N   N16       1.0  0.24999983120790867  0.4843958854698868  0.5156021456815127  1.0000
  N   N17       1.0  0.7344887507010257  0.48438704951855266  0.9688015500009046  1.0000
  N   N18       1.0  0.7655113052236971  0.03119759310499861  0.5156145592532441  1.0000
  F   F1        1.0  0.7499985611420784  0.25402495765900573  0.7459763880275647  1.0000
  F   F2        1.0  0.004092760459712991  0.2540421421238008  0.5081871935828275  1.0000
  F   F3        1.0  0.4959076220762243  0.4918129246799339  0.7459566994358513  1.0000
  F   F4        1.0  0.25000137462395605  0.745977171706663  0.25402633332659263  1.0000
  F   F5        1.0  0.9959071789948558  0.745955715979001  0.49181216774673  1.0000
  F   F6        1.0  0.5040928559352906  0.5081860014135698  0.2540423115704016  1.0000
