data_image0
_chemical_formula_structural       Li2Sn2H16C20O6F30
_chemical_formula_sum              "Li2 Sn2 H16 C20 O6 F30"
_cell_length_a       9.666800920168194
_cell_length_b       10.510010466713963
_cell_length_c       10.795211531744831
_cell_angle_alpha    115.10943464832042
_cell_angle_beta     95.74843683589192
_cell_angle_gamma    110.72307784206865

_space_group_name_H-M_alt    "P 1"
_space_group_IT_number       1

loop_
  _space_group_symop_operation_xyz
  'x, y, z'

loop_
  _atom_site_type_symbol
  _atom_site_label
  _atom_site_symmetry_multiplicity
  _atom_site_fract_x
  _atom_site_fract_y
  _atom_site_fract_z
  _atom_site_occupancy
  Li  Li1       1.0  0.18540307966805614  0.1884862648696739  0.34075596667683766  1.0000
  Li  Li2       1.0  0.8145965252858006  0.8115136508164014  0.6592436867812025  1.0000
  Sn  Sn1       1.0  0.5817796388069212  0.3971661726784674  0.41687389659748664  1.0000
  Sn  Sn2       1.0  0.4182204758303173  0.6028349130928916  0.5831262860602493  1.0000
  H   H1        1.0  0.2570473870973089  0.028083288499019005  0.4922738544595972  1.0000
  H   H2        1.0  0.7429522182950025  0.9719166270865996  0.5077267253328015  1.0000
  H   H3        1.0  0.0800270718635759  0.8518496488978473  0.39236728884749544  1.0000
  H   H4        1.0  0.9199725335287426  0.14815026668777165  0.6076332909449035  1.0000
  H   H5        1.0  0.8511501221402683  0.87548738005939  0.30803306631910493  1.0000
  H   H6        1.0  0.14884948281359564  0.12451253562669252  0.6919665871389354  1.0000
  H   H7        1.0  0.874455661433075  0.06724674753959192  0.3497062511195707  1.0000
  H   H8        1.0  0.12554394395924373  0.9327531680460198  0.650294328672821  1.0000
  H   H9        1.0  0.8472392306608825  0.8504998570711424  0.0382960244057529  1.0000
  H   H10       1.0  0.1527603747314359  0.14950005851447665  0.9617045553866459  1.0000
  H   H11       1.0  0.023535806381090832  0.8709621025892106  0.13399956146599837  1.0000
  H   H12       1.0  0.9764627594867933  0.12903781339191772  0.8660009256832307  1.0000
  H   H13       1.0  0.01835714945718796  0.2589179781501799  0.13473058431458182  1.0000
  H   H14       1.0  0.9816424554966688  0.7410819375358956  0.8652690691434514  1.0000
  H   H15       1.0  0.8454027783409899  0.07957388154321882  0.038171831445694686  1.0000
  H   H16       1.0  0.15459629721028287  0.9204272045231933  0.9618291849032374  1.0000
  C   C1        1.0  0.7096074251667092  0.4677849562491191  0.27270804906298457  1.0000
  C   C2        1.0  0.290391670103766  0.53221378935168  0.7272910751953461  1.0000
  C   C3        1.0  0.6337472502845217  0.5102647714283465  0.17314792782643448  1.0000
  C   C4        1.0  0.3662523546693351  0.489735144257729  0.8268517256316059  1.0000
  C   C5        1.0  0.7818066284116156  0.4148006354927531  0.5649549601926933  1.0000
  C   C6        1.0  0.21819297654224104  0.5851992801933221  0.4350446932653397  1.0000
  C   C7        1.0  0.7524210837926049  0.39424766653689153  0.6943864014291775  1.0000
  C   C8        1.0  0.2475795606856864  0.6057522487536675  0.3056133446720253  1.0000
  C   C9        1.0  0.45720997654893847  0.12897072687500352  0.24828140478492597  1.0000
  C   C10       1.0  0.5427896288433801  0.8710291887106153  0.7517191750074729  1.0000
  C   C11       1.0  0.5292678888442239  0.015306891763131604  0.22904726014348134  1.0000
  C   C12       1.0  0.4707322262314763  0.9846941939077639  0.7709538488486204  1.0000
  C   C13       1.0  0.1312689733351393  0.9771984291526085  0.47243936729371694  1.0000
  C   C14       1.0  0.8687311413020994  0.022802656618743807  0.5275608153640192  1.0000
  C   C15       1.0  0.9090772887465945  0.00028421440377710005  0.39022807628427353  1.0000
  C   C16       1.0  0.09092231664572395  0.9997157011818417  0.6097725035081254  1.0000
  C   C17       1.0  0.9746689991185989  0.9077501530121594  0.06650091949070708  1.0000
  C   C18       1.0  0.025329566310830425  0.09224976306943944  0.9334986413241635  1.0000
  C   C19       1.0  0.9725402219409601  0.1322693113298642  0.06678355498100072  1.0000
  C   C20       1.0  0.027458853610312476  0.867731774736548  0.9332174613679313  1.0000
  O   O1        1.0  0.3682163189203892  0.3710828322202816  0.43640144425916816  1.0000
  O   O2        1.0  0.6317848352412768  0.628918253155554  0.5635988310417446  1.0000
  O   O3        1.0  0.07417021472465281  0.0564885395044925  0.4147976758209992  1.0000
  O   O4        1.0  0.925829390229211  0.9435113761815831  0.5852019776370412  1.0000
  O   O5        1.0  0.029233615748054803  0.0752297724896778  0.15136654491741547  1.0000
  O   O6        1.0  0.9707649496813746  0.9247701435919212  0.8486330158974553  1.0000
  F   F1        1.0  0.7479710474906085  0.35121838502852404  0.18801826372147448  1.0000
  F   F2        1.0  0.2520280477798665  0.6487803605722748  0.811980860536856  1.0000
  F   F3        1.0  0.8480807751696633  0.5991041970110373  0.3619467065745141  1.0000
  F   F4        1.0  0.15191728057638443  0.4008945489852778  0.6380523250406539  1.0000
  F   F5        1.0  0.4968797889193155  0.3889235535474783  0.08047955162066243  1.0000
  F   F6        1.0  0.5031198160345411  0.6110763621385971  0.9195201018373707  1.0000
  F   F7        1.0  0.6067849451559939  0.635159329536137  0.2520715106768137  1.0000
  F   F8        1.0  0.39321415011448124  0.36483941606466175  0.7479276135815239  1.0000
  F   F9        1.0  0.7258273925823602  0.5496804071618016  0.09522170660562784  1.0000
  F   F10       1.0  0.2741717026881147  0.45031833843899705  0.9047774176527097  1.0000
  F   F11       1.0  0.9041708669100929  0.5620403036234977  0.6191355387511663  1.0000
  F   F12       1.0  0.09582924772714567  0.43796078214785444  0.3808646439065767  1.0000
  F   F13       1.0  0.8339411865370537  0.30715540526296087  0.48803846496628006  1.0000
  F   F14       1.0  0.16605841841680302  0.6928445104231145  0.5119611884917601  1.0000
  F   F15       1.0  0.7202185721874059  0.5101396088395518  0.7843764388847061  1.0000
  F   F16       1.0  0.27978103276645794  0.4898603068465236  0.2156232145733341  1.0000
  F   F17       1.0  0.8755946727666597  0.39806509453688943  0.77152961304224  1.0000
  F   F18       1.0  0.1244064813950062  0.6019359908389462  0.2284706622586654  1.0000
  F   F19       1.0  0.629130145337754  0.2549129857473177  0.6489442841991461  1.0000
  F   F20       1.0  0.37087049957898444  0.7450869294427848  0.3510563882364224  1.0000
  F   F21       1.0  0.31659021415904937  0.06103543171057171  0.27487813995217175  1.0000
  F   F22       1.0  0.6834088609537616  0.9389656544562968  0.7251219500624015  1.0000
  F   F23       1.0  0.4140870400542127  0.11549314400454591  0.11534785526071539  1.0000
  F   F24       1.0  0.5859125653381058  0.8845067715810729  0.8846527245316834  1.0000
  F   F25       1.0  0.662468828333495  0.060427905464116805  0.19393279487158566  1.0000
  F   F26       1.0  0.33753181658325115  0.9395720097259784  0.8060678775639757  1.0000
  F   F27       1.0  0.5633369236920913  0.013650493587967102  0.35366392107964356  1.0000
  F   F28       1.0  0.43666268126177255  0.9863494220981083  0.6463357323783966  1.0000
  F   F29       1.0  0.43305711642850747  0.8662983877883974  0.12525810402863863  1.0000
  F   F30       1.0  0.5669429977702762  0.1337026980834182  0.8747411522947456  1.0000
