data_image0
_chemical_formula_structural       Cd10H40C32S4O46
_chemical_formula_sum              "Cd10 H40 C32 S4 O46"
_cell_length_a       8.0415763774684
_cell_length_b       12.093256468572738
_cell_length_c       15.243986999687719
_cell_angle_alpha    80.03009506855086
_cell_angle_beta     86.75129412061334
_cell_angle_gamma    73.1218736003451

_space_group_name_H-M_alt    "P 1"
_space_group_IT_number       1

loop_
  _space_group_symop_operation_xyz
  'x, y, z'

loop_
  _atom_site_type_symbol
  _atom_site_label
  _atom_site_symmetry_multiplicity
  _atom_site_fract_x
  _atom_site_fract_y
  _atom_site_fract_z
  _atom_site_occupancy
  Cd  Cd1       1.0  0.7735980448703331  0.3815185135023781  0.34870806107748104  1.0000
  Cd  Cd2       1.0  0.22640310389886775  0.6184815164905968  0.651290306419888  1.0000
  Cd  Cd3       1.0  0.6395379820621372  0.389582652162815  0.5748713162164093  1.0000
  Cd  Cd4       1.0  0.3604610523114713  0.6104164967970289  0.42512725245627786  1.0000
  Cd  Cd5       1.0  0.5160907385891916  0.8385300890182563  0.21459011698865982  1.0000
  Cd  Cd6       1.0  0.48390992946005457  0.16146820181228344  0.7854098326815232  1.0000
  Cd  Cd7       1.0  0.8608372419425052  0.10532124914998779  0.9264945306046852  1.0000
  Cd  Cd8       1.0  0.1391602032541499  0.8946788037884443  0.0735065851274612  1.0000
  Cd  Cd9       1.0  0.7521920804225175  0.11500104711033286  0.15804610636414645  1.0000
  Cd  Cd10      1.0  0.24780746433683729  0.8849998715781309  0.8419534988403683  1.0000
  H   H1        1.0  0.7127712035960769  0.5633454873055468  0.43929861672453546  1.0000
  H   H2        1.0  0.2872257312148392  0.4366527959042654  0.5607014624757908  1.0000
  H   H3        1.0  0.5200030900813886  0.3065910177401888  0.2767026834030871  1.0000
  H   H4        1.0  0.47999558469514636  0.6934090224553839  0.7232970798000267  1.0000
  H   H5        1.0  0.5722795743303948  0.38909990463375965  0.19888248692677732  1.0000
  H   H6        1.0  0.4277191226954857  0.6109001584864514  0.8011192403048142  1.0000
  H   H7        1.0  0.5318028117462603  0.3686039081931511  0.7413774800662194  1.0000
  H   H8        1.0  0.468197489289466  0.6313952662315712  0.2586230094582334  1.0000
  H   H9        1.0  0.6766104692805825  0.5381261150111738  0.6918532850447932  1.0000
  H   H10       1.0  0.3233894499087314  0.46187392772464614  0.3081464349816089  1.0000
  H   H11       1.0  0.8045385315327493  0.7183390835789892  0.3167071416784211  1.0000
  H   H12       1.0  0.1954622724722767  0.2816618529328068  0.6832937297016954  1.0000
  H   H13       1.0  0.8260875993671349  0.6539268491425928  0.23206534156317093  1.0000
  H   H14       1.0  0.17391357906785024  0.34607321141655933  0.7679356446388323  1.0000
  H   H15       1.0  0.32456594886338763  0.03613796942835278  0.12504633331166554  1.0000
  H   H16       1.0  0.6754314889168143  0.9638620758685335  0.874954127744317  1.0000
  H   H17       1.0  0.7873954265426661  0.2660351310481488  0.7662416988263132  1.0000
  H   H18       1.0  0.21260362266384186  0.7339640331947874  0.2337581791986949  1.0000
  H   H19       1.0  0.9971700295189693  0.2405416561917305  0.7809350822422515  1.0000
  H   H20       1.0  0.0028302789332032246  0.7594575258745376  0.21906606195835823  1.0000
  H   H21       1.0  0.785078603358194  0.9357566743066453  0.061986308180237905  1.0000
  H   H22       1.0  0.21492168284463992  0.06424248483499177  0.9380128719918943  1.0000
  H   H23       1.0  0.9824225702086051  0.10628978917786466  0.2935371663757067  1.0000
  H   H24       1.0  0.017574753865169275  0.893707633362396  0.7064643369988202  1.0000
  H   H25       1.0  0.1071377977018031  0.03291499790882569  0.22123947723570575  1.0000
  H   H26       1.0  0.8928612663375973  0.9670841816172027  0.7787617101416158  1.0000
  H   H27       1.0  0.4732817905215541  0.8685581328106834  0.4034142615457483  1.0000
  H   H28       1.0  0.5267184882648408  0.13144101868940788  0.5965842639502268  1.0000
  H   H29       1.0  0.30304293266972593  0.24568907931200795  0.36961289093829197  1.0000
  H   H30       1.0  0.6969577353795274  0.7543092115185385  0.6303870587318842  1.0000
  H   H31       1.0  0.096746913073531  0.04029322694434258  0.5844827399568473  1.0000
  H   H32       1.0  0.9032558619548681  0.9597059372777748  0.41551635386185376  1.0000
  H   H33       1.0  0.014607866852578876  0.6348648076305493  0.0955494108304435  1.0000
  H   H34       1.0  0.9853975477900365  0.36513702263640363  0.9044518276970945  1.0000
  H   H35       1.0  0.19082792748315566  0.2579415297558327  0.1347736702892135  1.0000
  H   H36       1.0  0.8091696240034808  0.7420611382976716  0.8652257484482389  1.0000
  H   H37       1.0  0.4021511209366011  0.46033819330590814  0.9200835264914315  1.0000
  H   H38       1.0  0.5978487834198207  0.5396618341468196  0.07991488418264941  1.0000
  H   H39       1.0  0.8301404924722107  0.5456057348039279  0.6207673241283658  1.0000
  H   H40       1.0  0.1698594267171032  0.45439430793189206  0.3792323958980361  1.0000
  C   C1        1.0  0.2801760501793567  0.9429110315436514  0.4962004264279756  1.0000
  C   C2        1.0  0.7198267322654816  0.057088140320011894  0.5037993220668895  1.0000
  C   C3        1.0  0.3901756956309015  0.9496891993044868  0.42220905980882145  1.0000
  C   C4        1.0  0.6098254679711913  0.05031084597158038  0.5777906170408682  1.0000
  C   C5        1.0  0.3983539694903513  0.05845391815379489  0.3759908661116924  1.0000
  C   C6        1.0  0.6016488129544869  0.9415452537098756  0.6240088823831726  1.0000
  C   C7        1.0  0.2975057864420024  0.16089888540652444  0.4052114787612382  1.0000
  C   C8        1.0  0.7024961334364762  0.8390994156058084  0.5947890824083899  1.0000
  C   C9        1.0  0.1920888572524575  0.15317427237238945  0.4802236717344995  1.0000
  C   C10       1.0  0.8079123063496354  0.8468257729036777  0.5197760051151903  1.0000
  C   C11       1.0  0.18021741300408683  0.04537825941184078  0.5259460088300045  1.0000
  C   C12       1.0  0.8197833687515937  0.954622654175317  0.4740528985216414  1.0000
  C   C13       1.0  0.2767056041901982  0.8252357351091458  0.545332150426951  1.0000
  C   C14       1.0  0.7232943075826698  0.17476429998513504  0.45466691492329386  1.0000
  C   C15       1.0  0.520915605594908  0.06725845898812817  0.2996935189852009  1.0000
  C   C16       1.0  0.4790823129052553  0.932743325471186  0.7003053598979817  1.0000
  C   C17       1.0  0.209588227808446  0.5599232373152104  0.003326474785112113  1.0000
  C   C18       1.0  0.7904141802064331  0.44007681050110387  0.9966731588878658  1.0000
  C   C19       1.0  0.09746625583821363  0.5539563788653508  0.07669459335604502  1.0000
  C   C20       1.0  0.9025354033167329  0.4460454208562368  0.9233048106731514  1.0000
  C   C21       1.0  0.0928233086231174  0.4452548678237064  0.1245131283925147  1.0000
  C   C22       1.0  0.9071796023610543  0.5547469420796672  0.8754868871361339  1.0000
  C   C23       1.0  0.19738410256503872  0.34196835519642116  0.097811954255377  1.0000
  C   C24       1.0  0.8026175714227931  0.6580334598082513  0.9021887591261404  1.0000
  C   C25       1.0  0.3046518795467108  0.3488144593221775  0.0235162777864062  1.0000
  C   C26       1.0  0.6953476652126368  0.6511864593662862  0.9764833274181085  1.0000
  C   C27       1.0  0.3145194546411644  0.45657117743566994  0.9767644995167257  1.0000
  C   C28       1.0  0.6854845796328988  0.5434280046097865  0.02323586047758403  1.0000
  C   C29       1.0  0.20965242928330943  0.6765977784474657  0.9508351595014872  1.0000
  C   C30       1.0  0.7903462751590099  0.3234022923142916  0.04916722240626831  1.0000
  C   C31       1.0  0.9724606991172565  0.4336573610105247  0.2016467261059205  1.0000
  C   C32       1.0  0.02754134930054869  0.5663435780415113  0.798354102097484  1.0000
  S   S1        1.0  0.08171545826762378  0.28476557124535157  0.520307443577785  1.0000
  S   S2        1.0  0.9182844683381365  0.7152344791320143  0.4796929311247808  1.0000
  S   S3        1.0  0.42644912473863883  0.2166036825343695  0.9879058834863628  1.0000
  S   S4        1.0  0.5735507870342289  0.7833963525599043  0.01209318186387526  1.0000
  O   O1        1.0  0.032442046000816974  0.3770063978236706  0.441385093376141  1.0000
  O   O2        1.0  0.9675594994476879  0.6229927791412987  0.5586153529715998  1.0000
  O   O3        1.0  0.16441043444577022  0.8196192912714506  0.6072740671526731  1.0000
  O   O4        1.0  0.8355898443406177  0.18037986022864055  0.39272445834329517  1.0000
  O   O5        1.0  0.9332404035842146  0.2619672846021074  0.5729384532725773  1.0000
  O   O6        1.0  0.06676112703139853  0.7380318770797695  0.42706068372284284  1.0000
  O   O7        1.0  0.3885528925754472  0.7343401039208003  0.5246668839493934  1.0000
  O   O8        1.0  0.6114457673681953  0.2656599209916948  0.4753315699014067  1.0000
  O   O9        1.0  0.2107571699759703  0.30797095014373344  0.5744818122642599  1.0000
  O   O10       1.0  0.7892415344663564  0.6920291206180305  0.4255205696434885  1.0000
  O   O11       1.0  0.6079787523368549  0.9761468874457433  0.2683214075396165  1.0000
  O   O12       1.0  0.3920191439139629  0.023854874088932786  0.7316755073150814  1.0000
  O   O13       1.0  0.31469836007916996  0.18388879581940637  0.9287170804555769  1.0000
  O   O14       1.0  0.6853015591101438  0.8161112469164137  0.07128263957082479  1.0000
  O   O15       1.0  0.5421146709887806  0.16709405609943667  0.26789435314398696  1.0000
  O   O16       1.0  0.45788076610226364  0.8329077309209363  0.7321052667687766  1.0000
  O   O17       1.0  0.5744720920513515  0.24469325565418382  0.936473606940943  1.0000
  O   O18       1.0  0.42552657530873744  0.75530677689985  0.06352550158601393  1.0000
  O   O19       1.0  0.10054389573526372  0.7691023176327645  0.9694200182928867  1.0000
  O   O20       1.0  0.8994539758064805  0.23089691284383204  0.030585794994266283  1.0000
  O   O21       1.0  0.4754177044252683  0.1288017050344479  0.06892400150319838  1.0000
  O   O22       1.0  0.5245851991424502  0.8712000972273868  0.9310753593492862  1.0000
  O   O23       1.0  0.3191396548585531  0.6802848162934862  0.8863917308623427  1.0000
  O   O24       1.0  0.6808583081402871  0.3197170140150972  0.11361107607778821  1.0000
  O   O25       1.0  0.8475543656159917  0.5216593624885205  0.21759289820268177  1.0000
  O   O26       1.0  0.1524485527846268  0.4783424550563991  0.7824077720021163  1.0000
  O   O27       1.0  0.995203238447175  0.33253600192092136  0.24864757858782835  1.0000
  O   O28       1.0  0.004795061899400802  0.6674649142272953  0.7513520697933983  1.0000
  O   O29       1.0  0.6480962057734914  0.5056272237971696  0.43870377238064845  1.0000
  O   O30       1.0  0.35190195861730444  0.49437104666979786  0.5612949542906449  1.0000
  O   O31       1.0  0.528798031904202  0.3885633637275347  0.2616392082102975  1.0000
  O   O32       1.0  0.47119855072608635  0.6114358183595595  0.738362720196612  1.0000
  O   O33       1.0  0.5957686735809631  0.30053460848065316  0.7148557863664633  1.0000
  O   O34       1.0  0.4042324826046838  0.6994654291538607  0.2851432358070625  1.0000
  O   O35       1.0  0.767767809216096  0.4926823231131009  0.6551979320420924  1.0000
  O   O36       1.0  0.23223086556043876  0.5073177170824791  0.3448018311610213  1.0000
  O   O37       1.0  0.8005166818972494  0.7334460398480759  0.2502096121724904  1.0000
  O   O38       1.0  0.19948449653773545  0.26655402071107653  0.7497913740295202  1.0000
  O   O39       1.0  0.2789196251032351  0.9757796465769101  0.16123472782419412  1.0000
  O   O40       1.0  0.7210781796904938  0.024219515125785997  0.8387651933775258  1.0000
  O   O41       1.0  0.8840717447466204  0.24233355220795966  0.8107496929612025  1.0000
  O   O42       1.0  0.11592693744636755  0.7576664956291663  0.18925072491807532  1.0000
  O   O43       1.0  0.851943279894826  0.9921232787011218  0.06264055908487622  1.0000
  O   O44       1.0  0.1480541504689299  0.007876758954218096  0.9373592472949566  1.0000
  O   O45       1.0  0.9881192481974568  0.05389917482798269  0.25044977273707747  1.0000
  O   O46       1.0  0.011879801009051467  0.9460999894149537  0.7495501052879234  1.0000
