data_image0
_chemical_formula_structural       CuH24C20S2N4O8
_chemical_formula_sum              "Cu1 H24 C20 S2 N4 O8"
_cell_length_a       7.366986259930722
_cell_length_b       7.863460951382315
_cell_length_c       11.36770014411752
_cell_angle_alpha    100.46150926538591
_cell_angle_beta     100.46668020756468
_cell_angle_gamma    114.95210485716612

_space_group_name_H-M_alt    "P 1"
_space_group_IT_number       1

loop_
  _space_group_symop_operation_xyz
  'x, y, z'

loop_
  _atom_site_type_symbol
  _atom_site_label
  _atom_site_symmetry_multiplicity
  _atom_site_fract_x
  _atom_site_fract_y
  _atom_site_fract_z
  _atom_site_occupancy
  Cu  Cu1       1.0  5.678152064083423e-07  0.4999995496792168  0.5000002372498997  1.0000
  H   H1        1.0  0.2963891985806271  0.5652782077245392  0.6736224609336148  1.0000
  H   H2        1.0  0.7036107352342923  0.4347196510101129  0.3263779146888908  1.0000
  H   H3        1.0  0.3807913087585247  0.5757074907023423  0.5492165433874446  1.0000
  H   H4        1.0  0.6192086792537737  0.4242932779253082  0.4507833163593986  1.0000
  H   H5        1.0  0.48782984335098684  0.7828335957979392  0.9461307763878608  1.0000
  H   H6        1.0  0.5121700904639397  0.2171642629367128  0.053869599234637584  1.0000
  H   H7        1.0  0.1973095841394254  0.8866327829619038  0.7361404588967276  1.0000
  H   H8        1.0  0.8026855235820278  0.11336645803283571  0.2638559904172482  1.0000
  H   H9        1.0  0.33673620304686835  0.08076173767092601  0.6742729971456853  1.0000
  H   H10       1.0  0.6632637849654229  0.9192390309567245  0.3257268626011651  1.0000
  H   H11       1.0  0.9468062392825088  0.9829795199068414  0.623915028673558  1.0000
  H   H12       1.0  0.05319591902352269  0.0170256220679761  0.37608122925419707  1.0000
  H   H13       1.0  0.8004239195250592  0.8055484494015346  0.4744194316536862  1.0000
  H   H14       1.0  0.19958034763078558  0.19445817414237612  0.5255772604622208  1.0000
  H   H15       1.0  0.5415025096013864  0.6135315799573605  0.1065623573247052  1.0000
  H   H16       1.0  0.45849603758720286  0.3864662580097473  0.8934369701918853  1.0000
  H   H17       1.0  0.20693302712047765  0.8807755844248534  0.9262685284746865  1.0000
  H   H18       1.0  0.7930690661183706  0.11922667482934204  0.07373352552609452  1.0000
  H   H19       1.0  0.9721545494561565  0.8110895643605646  0.06346486331163707  1.0000
  H   H20       1.0  0.027846821559201377  0.1889112340920889  0.9365378046069139  1.0000
  H   H21       1.0  0.5402214005888906  0.8997296359679652  0.7226208123118525  1.0000
  H   H22       1.0  0.45977369445112254  0.10026963672787302  0.2773817972323868  1.0000
  H   H23       1.0  0.471826357603426  0.8866282387236879  0.5619722110469354  1.0000
  H   H24       1.0  0.5281764036615328  0.11337257143905793  0.4380297449117379  1.0000
  C   C1        1.0  0.12227637610043005  0.6695111326716727  0.158243000833842  1.0000
  C   C2        1.0  0.8777222252855383  0.3304896151884336  0.8417558108070863  1.0000
  C   C3        1.0  0.2800020623211167  0.6146009803289587  0.16760777194284063  1.0000
  C   C4        1.0  0.7199972016560564  0.3853983320258791  0.8323935817546655  1.0000
  C   C5        1.0  0.9960470681859662  0.6046069371039381  0.24610154840503642  1.0000
  C   C6        1.0  0.003952815054844844  0.3953880026802565  0.7538975830273315  1.0000
  C   C7        1.0  0.3866471038322743  0.7512686693016307  0.006946699441719857  1.0000
  C   C8        1.0  0.6133556014236774  0.2487292354968389  0.9930566524255084  1.0000
  C   C9        1.0  0.25826715222682856  0.9209447494692927  0.6569226606224846  1.0000
  C   C10       1.0  0.7417279518713612  0.079054500582906  0.3430755487572838  1.0000
  C   C11       1.0  0.9564170617661741  0.9204526899525121  0.5318273499132715  1.0000
  C   C12       1.0  0.04358509472821479  0.0795524565510348  0.46816978804738335  1.0000
  C   C13       1.0  0.4159585878259263  0.6536702966540275  0.09436927048621872  1.0000
  C   C14       1.0  0.5840420664008475  0.3463290274108958  0.9056313712514098  1.0000
  C   C15       1.0  0.2290241980320857  0.8077014406075593  0.9961409171901536  1.0000
  C   C16       1.0  0.7709800094914809  0.1923022866295412  0.0038589309000940015  1.0000
  C   C17       1.0  0.09538357424029421  0.7681193577193779  0.0720034836849379  1.0000
  C   C18       1.0  0.9046191834013937  0.23188146150082642  0.928000232339528  1.0000
  C   C19       1.0  0.4080245509710635  0.840355768200368  0.6374941011341022  1.0000
  C   C20       1.0  0.5919719361301857  0.1596435116768333  0.3625069164173667  1.0000
  S   S1        1.0  0.26364062146515016  0.4886116599827376  0.2828352104059775  1.0000
  S   S2        1.0  0.736357923911811  0.5113861825130998  0.7171649971435059  1.0000
  N   N1        1.0  0.07021108907370893  0.5147175607970668  0.3205246210062356  1.0000
  N   N2        1.0  0.9297860696769148  0.4852802609312262  0.6794745384373329  1.0000
  N   N3        1.0  0.3007053051115919  0.6237549549116255  0.5993551222101274  1.0000
  N   N4        1.0  0.6992925740508867  0.3762443321469393  0.40064430334857093  1.0000
  O   O1        1.0  0.08768180397536439  0.8283747915270683  0.544203637888252  1.0000
  O   O2        1.0  0.9123203037565588  0.17162743149729215  0.4557913758493727  1.0000
  O   O3        1.0  0.20475876037853877  0.28408483529992884  0.2276299086943609  1.0000
  O   O4        1.0  0.7952425600627108  0.7159130442022673  0.7723715150340523  1.0000
  O   O5        1.0  0.8396917258545855  0.6283579440925782  0.24878479337755982  1.0000
  O   O6        1.0  0.16030533174782838  0.37163403973480763  0.7512118776857406  1.0000
  O   O7        1.0  0.45405059810077825  0.595911606319646  0.38771252083991203  1.0000
  O   O8        1.0  0.5459479436529121  0.4040862452336499  0.6122894467753568  1.0000
