data_image0
_chemical_formula_structural       Zn2H20C24Br4N4O4
_chemical_formula_sum              "Zn2 H20 C24 Br4 N4 O4"
_cell_length_a       8.103989986779572
_cell_length_b       11.45278252512614
_cell_length_c       10.61989560390647
_cell_angle_alpha    122.63832209565565
_cell_angle_beta     88.3928945756889
_cell_angle_gamma    89.99511910399995

_space_group_name_H-M_alt    "P 1"
_space_group_IT_number       1

loop_
  _space_group_symop_operation_xyz
  'x, y, z'

loop_
  _atom_site_type_symbol
  _atom_site_label
  _atom_site_symmetry_multiplicity
  _atom_site_fract_x
  _atom_site_fract_y
  _atom_site_fract_z
  _atom_site_occupancy
  Zn  Zn1       1.0  0.9816549891266675  0.4679505679306146  0.5254045868408497  1.0000
  Zn  Zn2       1.0  0.4817306884210595  0.05685258747392651  0.5249125937455048  1.0000
  H   H1        1.0  0.826388128120918  0.3776197944489752  0.227354407560874  1.0000
  H   H2        1.0  0.3257277400072808  0.8496756271809571  0.22709916666166646  1.0000
  H   H3        1.0  0.7024448693715115  0.16618780327827656  0.015835618372477687  1.0000
  H   H4        1.0  0.20192933606287503  0.8499629864833481  0.015781012288464277  1.0000
  H   H5        1.0  0.9706369180338895  0.16920846110973292  0.4261321908783414  1.0000
  H   H6        1.0  0.47056490872194684  0.25674216693637664  0.4263304483262971  1.0000
  H   H7        1.0  0.8555247501667081  0.9486930536216818  0.22596951359147255  1.0000
  H   H8        1.0  0.35556162118636786  0.2775369163019832  0.22638042802861238  1.0000
  H   H9        1.0  0.6858077738817486  0.7943420835678054  0.09072597232708556  1.0000
  H   H10       1.0  0.1858532325509827  0.2965721062583242  0.0904910972019266  1.0000
  H   H11       1.0  0.5647798153782873  0.583710590271238  0.8738332505431217  1.0000
  H   H12       1.0  0.0648910755877026  0.29005523664108773  0.8734614110471809  1.0000
  H   H13       1.0  0.674495262068433  0.9816968660123565  0.8266165841541948  1.0000
  H   H14       1.0  0.17485399717818947  0.8450805922623347  0.8266396059419633  1.0000
  H   H15       1.0  0.5496291636455268  0.768272552038425  0.6271598891361733  1.0000
  H   H16       1.0  0.050218872946473404  0.858788557832689  0.6270438618564286  1.0000
  H   H17       1.0  0.5232256166323808  0.456404913436856  0.6260869282899577  1.0000
  H   H18       1.0  0.023293473220995495  0.1694902524135813  0.6257549277551604  1.0000
  H   H19       1.0  0.5327395327321864  0.5323196624615463  0.5161460926591132  1.0000
  H   H20       1.0  0.033137940054842815  0.9836192195394985  0.5158290285634591  1.0000
  C   C1        1.0  0.8304877064508388  0.2789202634518375  0.2203087949079503  1.0000
  C   C2        1.0  0.3300375292222809  0.9413783618783073  0.22017281419005041  1.0000
  C   C3        1.0  0.7607362280343322  0.1603298736340264  0.10351713477099618  1.0000
  C   C4        1.0  0.2603766147155255  0.9433966512479229  0.10350044652550848  1.0000
  C   C5        1.0  0.911957879981898  0.162832556438687  0.33178717424544857  1.0000
  C   C6        1.0  0.41186351670685883  0.16889160449193946  0.3318803126361231  1.0000
  C   C7        1.0  0.8457301869534462  0.039647214389375976  0.2188175595078974  1.0000
  C   C8        1.0  0.34572040384148284  0.1793422563694378  0.21903887511157896  1.0000
  C   C9        1.0  0.7672094153605471  0.03627190801605449  0.10096533461956618  1.0000
  C   C10       1.0  0.2671833066674267  0.064948239942531  0.10107422863453047  1.0000
  C   C11       1.0  0.6930691058501208  0.908394411312102  0.978914094119858  1.0000
  C   C12       1.0  0.19328628515243199  0.0707312054645968  0.9789174477099962  1.0000
  C   C13       1.0  0.6604779443231763  0.793651522025769  0.9902038191011683  1.0000
  C   C14       1.0  0.1606235485339624  0.19666565707367306  0.9900162627481208  1.0000
  C   C15       1.0  0.5929083644014311  0.6756086506175835  0.8719259743602946  1.0000
  C   C16       1.0  0.09311568578983301  0.19630930834973978  0.8716431534159809  1.0000
  C   C17       1.0  0.651588841479736  0.8988778068591045  0.8463505556254415  1.0000
  C   C18       1.0  0.1519811290545476  0.9476139343624511  0.8462950207802037  1.0000
  C   C19       1.0  0.5846906054327405  0.7789528588823771  0.7312027746521963  1.0000
  C   C20       1.0  0.08520069553026133  0.9522449985892153  0.7310385904405122  1.0000
  C   C21       1.0  0.4843702151571989  0.5455746092908527  0.6207280858948394  1.0000
  C   C22       1.0  0.9846308112063081  0.07492531373937789  0.6204052145539478  1.0000
  C   C23       1.0  0.2943892283811779  0.5557732977369128  0.6299043003289739  1.0000
  C   C24       1.0  0.7946387976844916  0.0736762514323601  0.6295929249313161  1.0000
  Br  Br1       1.0  0.8806949534027168  0.43554287297704514  0.7179882359762714  1.0000
  Br  Br2       1.0  0.3804638678439574  0.28187185616882715  0.717355787438926  1.0000
  Br  Br3       1.0  0.8780411896307924  0.6334548693527607  0.47303570441302867  1.0000
  Br  Br4       1.0  0.3777851600496263  0.8387848040900323  0.47169689558424466  1.0000
  N   N1        1.0  0.9050127129532157  0.280850693400822  0.3333340330617887  1.0000
  N   N2        1.0  0.40480559076498684  0.0523138374826004  0.33319652711764286  1.0000
  N   N3        1.0  0.5572456539869818  0.6698356384844785  0.7449095387450057  1.0000
  N   N4        1.0  0.05760976446798341  0.0750005032059136  0.7446273903706454  1.0000
  O   O1        1.0  0.2282992152953227  0.460884127538435  0.508299753785046  1.0000
  O   O2        1.0  0.7284159151916256  0.04705659104189408  0.508084467354088  1.0000
  O   O3        1.0  0.22215620034355515  0.6477583550221979  0.7469964872051661  1.0000
  O   O4        1.0  0.7225396391763397  0.09858919745985871  0.746654802353035  1.0000
