data_image0
_chemical_formula_structural       Er2H42C34N2O14
_chemical_formula_sum              "Er2 H42 C34 N2 O14"
_cell_length_a       8.165622042248355
_cell_length_b       10.325424241763894
_cell_length_c       11.67952077557997
_cell_angle_alpha    108.87000054023451
_cell_angle_beta     106.10973520601493
_cell_angle_gamma    97.45706990867976

_space_group_name_H-M_alt    "P 1"
_space_group_IT_number       1

loop_
  _space_group_symop_operation_xyz
  'x, y, z'

loop_
  _atom_site_type_symbol
  _atom_site_label
  _atom_site_symmetry_multiplicity
  _atom_site_fract_x
  _atom_site_fract_y
  _atom_site_fract_z
  _atom_site_occupancy
  Er  Er1       1.0  0.5851984994192845  0.9242608788695247  0.8469157731647387  1.0000
  Er  Er2       1.0  0.41480213344921424  0.07574242595034515  0.1530860683907562  1.0000
  H   H1        1.0  0.9717180617186257  0.6168025087137111  0.9209528784811597  1.0000
  H   H2        1.0  0.028280619086281336  0.38319442151171745  0.07904080084968254  1.0000
  H   H3        1.0  0.6183922047319114  0.4386589630962803  0.7127873867860471  1.0000
  H   H4        1.0  0.38159865240063334  0.5613369869534068  0.2872165195084051  1.0000
  H   H5        1.0  0.9514448219718831  0.353496022013438  0.8451089497803467  1.0000
  H   H6        1.0  0.048557662109622826  0.6465093620195359  0.15488954827064552  1.0000
  H   H7        1.0  0.8118157513282681  0.2646846718653393  0.6805206150514279  1.0000
  H   H8        1.0  0.18818297914036453  0.7353165205066999  0.31948026975274496  1.0000
  H   H9        1.0  0.7299252501820064  0.2587541396510033  0.8027552363667924  1.0000
  H   H10       1.0  0.27008021415564076  0.7412439205373571  0.19724775438142206  1.0000
  H   H11       1.0  0.0637218741468145  0.671449694712109  0.4706630265208531  1.0000
  H   H12       1.0  0.9362848775505554  0.32854414630386936  0.529338161856856  1.0000
  H   H13       1.0  0.9662194428524771  0.6877203011849102  0.7096644195352866  1.0000
  H   H14       1.0  0.033786023008310864  0.3122735300915734  0.2903356659954284  1.0000
  H   H15       1.0  0.7418135475283306  0.5664155864194099  0.4185811937995609  1.0000
  H   H16       1.0  0.25818333477357663  0.4335750689157648  0.5814172240741228  1.0000
  H   H17       1.0  0.6662567938361833  0.6505736099638496  0.5475514258079954  1.0000
  H   H18       1.0  0.33374901613705515  0.3494212959311013  0.4524515968539689  1.0000
  H   H19       1.0  0.7148607774229985  0.48605126536821064  0.5274867899383081  1.0000
  H   H20       1.0  0.28514217818886317  0.5139425863109321  0.47251625020541604  1.0000
  H   H21       1.0  0.3635035541312987  0.35263405135084697  0.0009884255463887253  1.0000
  H   H22       1.0  0.6365062379098702  0.6473745055308837  0.9990114973658066  1.0000
  H   H23       1.0  0.3607854262419535  0.3007031208509757  0.7263273509235546  1.0000
  H   H24       1.0  0.6392263121948644  0.6992991172426027  0.2736711585096358  1.0000
  H   H25       1.0  0.26163917071286147  0.5333647384472683  0.9238565680185785  1.0000
  H   H26       1.0  0.73835980301763  0.4666332331619073  0.0761357481876814  1.0000
  H   H27       1.0  0.14596802222278882  0.459901222281097  0.754451481010328  1.0000
  H   H28       1.0  0.8540303467049313  0.5400904243548225  0.24553893612526415  1.0000
  H   H29       1.0  0.3618219715914249  0.5630297161140233  0.8135756731638751  1.0000
  H   H30       1.0  0.638174137540318  0.4369671946324089  0.18641580047297882  1.0000
  H   H31       1.0  0.006510915567275797  0.02534889756408629  0.8517761461067437  1.0000
  H   H32       1.0  0.9934807881067585  0.9746543856078845  0.14822399587796303  1.0000
  H   H33       1.0  0.1769112887957647  0.05113058870448129  0.7141784755744781  1.0000
  H   H34       1.0  0.8230813770771518  0.9488716428824091  0.285821552228306  1.0000
  H   H35       1.0  0.6859084875221341  0.9368258914316597  0.4008613819330761  1.0000
  H   H36       1.0  0.3140820137374405  0.06317320626448719  0.59914163239646  1.0000
  H   H37       1.0  0.5360919213052994  0.908630129389642  0.5498691367854248  1.0000
  H   H38       1.0  0.4638979429162475  0.09136685230429009  0.45013230353745837  1.0000
  H   H39       1.0  0.7808120742018971  0.15743512010693908  0.0863006563238429  1.0000
  H   H40       1.0  0.21919145702376117  0.8425608076927555  0.913698797519551  1.0000
  H   H41       1.0  0.932466220913483  0.1329639171831403  0.026651372712642292  1.0000
  H   H42       1.0  0.0675392229494134  0.8670341297113278  0.9733498979332394  1.0000
  C   C1        1.0  0.7574170527401588  0.7080613392021531  0.8471932973410148  1.0000
  C   C2        1.0  0.2425883691248529  0.2919409233103067  0.15280915842004114  1.0000
  C   C3        1.0  0.8380048149331785  0.5897600868513138  0.8535755314094188  1.0000
  C   C4        1.0  0.16199424069629484  0.41023793793343083  0.1464236652061714  1.0000
  C   C5        1.0  0.7508709529859842  0.4553450534982986  0.778962004304873  1.0000
  C   C6        1.0  0.24912111832153266  0.544650859762271  0.22103698447841674  1.0000
  C   C7        1.0  0.8169829241998413  0.3280889423317744  0.7782419116324348  1.0000
  C   C8        1.0  0.18301675823029476  0.6719111918082346  0.22175799893864928  1.0000
  C   C9        1.0  0.2537956660238762  0.7738585443732047  0.6648458841081747  1.0000
  C   C10       1.0  0.7461999053972833  0.22614477466421326  0.3351584264686736  1.0000
  C   C11       1.0  0.0776645170835905  0.6955529036450938  0.5715487327901272  1.0000
  C   C12       1.0  0.9223444094644859  0.3044440779085774  0.42845032911198894  1.0000
  C   C13       1.0  0.9407345956712942  0.6597914106249688  0.6066808720877502  1.0000
  C   C14       1.0  0.05926803630286056  0.34020137972959213  0.3933209510270643  1.0000
  C   C15       1.0  0.7574352818510731  0.5874154610660935  0.5195323342777767  1.0000
  C   C16       1.0  0.24256925252295491  0.4125794417363052  0.4804704455883595  1.0000
  C   C17       1.0  0.44026342395100937  0.17019694698788604  0.891085443677234  1.0000
  C   C18       1.0  0.559744140529446  0.8298126650333087  0.10891521067222948  1.0000
  C   C19       1.0  0.38095455503402315  0.30169032951491914  0.9092598622779563  1.0000
  C   C20       1.0  0.6190549031320741  0.6983171593952803  0.09073798355416325  1.0000
  C   C21       1.0  0.34255129836388676  0.3559003047748276  0.8175151948112571  1.0000
  C   C22       1.0  0.6574534455135961  0.6440998151476335  0.18248224673846633  1.0000
  C   C23       1.0  0.27485406951763025  0.4846955068303415  0.8294065535220411  1.0000
  C   C24       1.0  0.7251464932123997  0.5153035225490328  0.1705863624577972  1.0000
  C   C25       1.0  0.9387150859621726  0.005885782666197798  0.7511130527018679  1.0000
  C   C26       1.0  0.061279514545873076  0.9941143523974739  0.24888760678823713  1.0000
  C   C27       1.0  0.0348546627540074  0.021820484031600494  0.6732671547589817  1.0000
  C   C28       1.0  0.9651383487545002  0.9781785932618801  0.32673290495755225  1.0000
  C   C29       1.0  0.9498837395299233  0.9948304210517874  0.5430302304919721  1.0000
  C   C30       1.0  0.050104515217334694  0.0051654895780615  0.45696888995500023  1.0000
  C   C31       1.0  0.7654274414145235  0.9564503478243224  0.49936537501114486  1.0000
  C   C32       1.0  0.23456524645628454  0.0435476681445763  0.5006334676764794  1.0000
  C   C33       1.0  0.6787135895010364  0.9420263630765005  0.5831535201045738  1.0000
  C   C34       1.0  0.32127847004596083  0.057973772449003  0.416847513845049  1.0000
  N   N1        1.0  0.7618879732541542  0.9641182645123934  0.7076850295979823  1.0000
  N   N2        1.0  0.2381063343283074  0.03588082916753879  0.2923169930167049  1.0000
  O   O1        1.0  0.8479503332402912  0.836507503984805  0.9150000405283194  1.0000
  O   O2        1.0  0.15205257989893536  0.16349055001843735  0.08500246462823918  1.0000
  O   O3        1.0  0.5980462080963135  0.6865971118488046  0.7770467155807664  1.0000
  O   O4        1.0  0.40195597434537683  0.3134029952415957  0.22294938032613487  1.0000
  O   O5        1.0  0.2865563147121647  0.8123513449241242  0.7875512555020945  1.0000
  O   O6        1.0  0.7134369457261441  0.18765720498907965  0.2124498113201909  1.0000
  O   O7        1.0  0.3774021863070161  0.8073010828855514  0.6252676557836878  1.0000
  O   O8        1.0  0.6225991010279869  0.1927128090541856  0.37474329031579867  1.0000
  O   O9        1.0  0.4847100803912027  0.11112622108479538  0.7937367978484104  1.0000
  O   O10       1.0  0.515294316327548  0.8888812820429519  0.2062635170050696  1.0000
  O   O11       1.0  0.44434465382768445  0.11091106117523707  0.9730795663271794  1.0000
  O   O12       1.0  0.5556568634855167  0.8891080611784616  0.02692776155822683  1.0000
  O   O13       1.0  0.8026675529818734  0.12356275315083558  0.0028405723226967417  1.0000
  O   O14       1.0  0.19733690820739708  0.8764363320348278  0.997159092402775  1.0000
