data_image0
_chemical_formula_structural       Ni4H56C72N8O22
_chemical_formula_sum              "Ni4 H56 C72 N8 O22"
_cell_length_a       13.03378888442519
_cell_length_b       12.501574527822266
_cell_length_c       16.175139675382866
_cell_angle_alpha    101.80875411910854
_cell_angle_beta     89.99999536118271
_cell_angle_gamma    121.41469384687183

_space_group_name_H-M_alt    "P 1"
_space_group_IT_number       1

loop_
  _space_group_symop_operation_xyz
  'x, y, z'

loop_
  _atom_site_type_symbol
  _atom_site_label
  _atom_site_symmetry_multiplicity
  _atom_site_fract_x
  _atom_site_fract_y
  _atom_site_fract_z
  _atom_site_occupancy
  Ni  Ni1       1.0  0.6963124374538552  0.1673194383517114  0.7650219327179073  1.0000
  Ni  Ni2       1.0  0.5289278019649969  0.832570379851603  0.7349539964037036  1.0000
  Ni  Ni3       1.0  0.3036820770522155  0.832674037891323  0.23496988029219784  1.0000
  Ni  Ni4       1.0  0.4710631243473317  0.16742512699314463  0.2650449264429043  1.0000
  H   H1        1.0  0.49727198780340837  0.0304893274869684  0.8041448631989924  1.0000
  H   H2        1.0  0.4667157619953741  0.9694204717664406  0.6958259010449267  1.0000
  H   H3        1.0  0.5027220073996901  0.9695061792464373  0.19585405963264443  1.0000
  H   H4        1.0  0.533269122002025  0.03057215710634861  0.3041738203999031  1.0000
  H   H5        1.0  0.9321851737103941  0.381394711637583  0.8437968873591901  1.0000
  H   H6        1.0  0.5507775141138751  0.6185319334802062  0.6561736823230078  1.0000
  H   H7        1.0  0.06781045716497411  0.618610204890331  0.15618677426896002  1.0000
  H   H8        1.0  0.4492269995755507  0.3814907498933806  0.34383926792222047  1.0000
  H   H9        1.0  0.9146098182859391  0.2793940639792538  0.7602262554597845  1.0000
  H   H10       1.0  0.6351830539445444  0.7205234526405279  0.7397466777102863  1.0000
  H   H11       1.0  0.0854009449169696  0.7206119623120771  0.23976746719978342  1.0000
  H   H12       1.0  0.3648218424291301  0.2795030652891199  0.26026500122884505  1.0000
  H   H13       1.0  0.7710020107747225  0.8317167509740176  0.9079864878843936  1.0000
  H   H14       1.0  0.939197176449987  0.16820568312663653  0.5919953339775718  1.0000
  H   H15       1.0  0.2290175817602744  0.16830079681665924  0.0920046600947941  1.0000
  H   H16       1.0  0.060787672374132774  0.8317638568334119  0.408006438553592  1.0000
  H   H17       1.0  0.6169917080437344  0.4521791602063986  0.8665622399068553  1.0000
  H   H18       1.0  0.16476687098116824  0.547810967893561  0.6334441241196842  1.0000
  H   H19       1.0  0.3830443364658719  0.5478329294174457  0.133450953173309  1.0000
  H   H20       1.0  0.8352008703481884  0.4521903414494092  0.3665562998909735  1.0000
  H   H21       1.0  0.9749052137694675  0.2403423815108425  0.9268843440280962  1.0000
  H   H22       1.0  0.7345990908743332  0.7595789855995392  0.5730886593939175  1.0000
  H   H23       1.0  0.025095400855846686  0.759677106890692  0.073107717485783  1.0000
  H   H24       1.0  0.26537509193811804  0.2403768937971976  0.42690114235531246  1.0000
  H   H25       1.0  0.4192271638106462  0.1844859510080923  0.020625059493632105  1.0000
  H   H26       1.0  0.23471402775323472  0.8154560798120231  0.4793459754937573  1.0000
  H   H27       1.0  0.5807972832723607  0.8155213571427496  0.9793904973205019  1.0000
  H   H28       1.0  0.765263812365447  0.18453166781839064  0.5206492936482476  1.0000
  H   H29       1.0  0.550774961906818  0.06415513632633461  0.59155042695145  1.0000
  H   H30       1.0  0.48658566738068026  0.9357648864174594  0.9084448156751749  1.0000
  H   H31       1.0  0.4492353883663327  0.9358423912302527  0.4084549859817058  1.0000
  H   H32       1.0  0.5134393718408816  0.064237467774575  0.0915613316973776  1.0000
  H   H33       1.0  0.3806641716906256  0.3439508813935178  0.11126651776799432  1.0000
  H   H34       1.0  0.036657732151567805  0.6560301520665917  0.3887436859410442  1.0000
  H   H35       1.0  0.6193637129725288  0.6560633023823713  0.8887581226347976  1.0000
  H   H36       1.0  0.9633286081116239  0.34395004382952277  0.611262181057903  1.0000
  H   H37       1.0  0.47039575870889655  0.3119457043433301  0.4552571607684044  1.0000
  H   H38       1.0  0.15845420717013783  0.6880694123999549  0.04477505803978231  1.0000
  H   H39       1.0  0.5295979243897762  0.6880322978262116  0.5447304428973254  1.0000
  H   H40       1.0  0.841551194927895  0.3119550478750526  0.9552276521648154  1.0000
  H   H41       1.0  0.6791874089432212  0.5216679107682439  0.6681114294754382  1.0000
  H   H42       1.0  0.15746437283604567  0.4782648880608564  0.8318652256539991  1.0000
  H   H43       1.0  0.3207887012706436  0.47832558425240296  0.33188162289982875  1.0000
  H   H44       1.0  0.8425377848708208  0.5217576867391217  0.16814028895045402  1.0000
  H   H45       1.0  0.47179163995659196  0.1449083019975177  0.4951694833411082  1.0000
  H   H46       1.0  0.32690302871105803  0.8550485007616473  0.004852734905988114  1.0000
  H   H47       1.0  0.5281985047366078  0.8550718303760972  0.5048320461754585  1.0000
  H   H48       1.0  0.6731152225675173  0.14497403723471794  0.9951503010692024  1.0000
  H   H49       1.0  0.1451589245156697  0.265907587528524  0.015845694756045203  1.0000
  H   H50       1.0  0.8793547925177307  0.7340918457623858  0.4841596614456948  1.0000
  H   H51       1.0  0.854852975833367  0.7341175934614483  0.9841404321014551  1.0000
  H   H52       1.0  0.12062770855843043  0.2658622563988829  0.5158403802992453  1.0000
  H   H53       1.0  0.749621140109376  0.4249055324680314  0.7575919210422557  1.0000
  H   H54       1.0  0.3246975874765496  0.5750258539009394  0.7424155848583069  1.0000
  H   H55       1.0  0.2503786272594581  0.5751091921803066  0.2424037434285324  1.0000
  H   H56       1.0  0.6752960439649414  0.4249812018301283  0.2575826222508724  1.0000
  C   C1        1.0  0.53392320352296  0.5159197949602187  0.9647686923995807  1.0000
  C   C2        1.0  0.017994909105226463  0.48409302715084834  0.5352323214807556  1.0000
  C   C3        1.0  0.4661287956691779  0.4841088603910038  0.0352575317810349  1.0000
  C   C4        1.0  0.981986271272781  0.5159121434392306  0.46476869007318566  1.0000
  C   C5        1.0  0.5667947216714069  0.3394891006702281  0.5746202003636043  1.0000
  C   C6        1.0  0.22724122463057486  0.6604658263589516  0.9253808152897564  1.0000
  C   C7        1.0  0.4331908680359717  0.6604957322681174  0.4253733887585938  1.0000
  C   C8        1.0  0.7727676354228805  0.33955480827556533  0.07462378583988992  1.0000
  C   C9        1.0  0.861785951927416  0.033035191405169015  0.9126203817230804  1.0000
  C   C10       1.0  0.8286926956705756  0.9668713828523325  0.5873478855271302  1.0000
  C   C11       1.0  0.13821663188626607  0.9669774936145361  0.0873675532772822  1.0000
  C   C12       1.0  0.17128039154943053  0.0330807706732941  0.4126506231839429  1.0000
  C   C13       1.0  0.852696158149527  0.9260613765759232  0.9323357491990265  1.0000
  C   C14       1.0  0.9266035091567487  0.07386275618188878  0.5676698694058261  1.0000
  C   C15       1.0  0.14731148863008772  0.07395529676373513  0.0676614483131246  1.0000
  C   C16       1.0  0.07338018297847522  0.9260921936558475  0.43232226394556506  1.0000
  C   C17       1.0  0.7587985120595987  0.016947124095310104  0.8590224489218629  1.0000
  C   C18       1.0  0.7417867929961303  0.9829625597997875  0.640951733829894  1.0000
  C   C19       1.0  0.24120555146873113  0.9830685205562094  0.14097026424173015  1.0000
  C   C20       1.0  0.25819043833180894  0.0170040207511377  0.3590452605679744  1.0000
  C   C21       1.0  0.9463667332838599  0.9372949696062779  0.9843622139986438  1.0000
  C   C22       1.0  0.009062172270567704  0.06268324572986471  0.5156548141392109  1.0000
  C   C23       1.0  0.0536393835765665  0.06272171284381763  0.0156356031586569  1.0000
  C   C24       1.0  0.990927994652118  0.9372785162382445  0.48434206532219554  1.0000
  C   C25       1.0  0.5630523900459109  0.4283760113257599  0.9190751785443112  1.0000
  C   C26       1.0  0.13462046380960405  0.5715979133026965  0.5809323754659701  1.0000
  C   C27       1.0  0.43698591950585086  0.5716390741211016  0.0809452712460157  1.0000
  C   C28       1.0  0.8653392127383625  0.4283841963183691  0.4190725461920977  1.0000
  C   C29       1.0  0.9683040095169986  0.1570353631730583  0.9436089168053174  1.0000
  C   C30       1.0  0.8112370508746877  0.8428928002163615  0.5563435266540253  1.0000
  C   C31       1.0  0.031707361658838785  0.8429764828630653  0.05638754617761072  1.0000
  C   C32       1.0  0.18873925130878183  0.15707192194030742  0.443658131045467  1.0000
  C   C33       1.0  0.4521308258575657  0.2781928720665192  0.007147328015683699  1.0000
  C   C34       1.0  0.17387472744554336  0.7217879510215682  0.4928382473661017  1.0000
  C   C35       1.0  0.5479160877376045  0.7218317496909564  0.9928665354648131  1.0000
  C   C36       1.0  0.8260995864083398  0.2782065547725523  0.5071580501085791  1.0000
  C   C37       1.0  0.5771287999357213  0.16474944359840293  0.6064595223474925  1.0000
  C   C38       1.0  0.41235497732704113  0.8351664693240011  0.893531354601045  1.0000
  C   C39       1.0  0.42287168363345967  0.8352529024296516  0.39354600550716157  1.0000
  C   C40       1.0  0.5876680953781558  0.16485036644458262  0.10647699631424962  1.0000
  C   C41       1.0  0.5222190692621638  0.3113522977893625  0.9390955972138073  1.0000
  C   C42       1.0  0.2107671981894157  0.6885844253121363  0.5608927171134255  1.0000
  C   C43       1.0  0.47781062308383326  0.6886501558379976  0.06091736615061899  1.0000
  C   C44       1.0  0.7891948664408233  0.3113947879212375  0.439111763826368  1.0000
  C   C45       1.0  0.550139993982654  0.21892115854254268  0.8870297754323462  1.0000
  C   C46       1.0  0.3311051511672288  0.78100250710456  0.6129597386030526  1.0000
  C   C47       1.0  0.44986920452935647  0.781080203625784  0.11297436620220222  1.0000
  C   C48       1.0  0.6688802498626953  0.21899882876243745  0.38704254423452517  1.0000
  C   C49       1.0  0.42841854155535225  0.3648854004085109  0.0557086406130693  1.0000
  C   C50       1.0  0.06345169915628901  0.6351228385572228  0.44430451411427196  1.0000
  C   C51       1.0  0.5716316277391513  0.6351518714728429  0.9443139485948535  1.0000
  C   C52       1.0  0.9365251099709013  0.36487358895879407  0.5556914575149676  1.0000
  C   C53       1.0  0.517977887455416  0.3815103562519583  0.516410373424641  1.0000
  C   C54       1.0  0.1364119522987082  0.6185093495500169  0.9835905172089738  1.0000
  C   C55       1.0  0.48201828186414275  0.6184695495299692  0.4835756651203128  1.0000
  C   C56       1.0  0.8635913164334281  0.3815093091453862  0.0164106919550804  1.0000
  C   C57       1.0  0.6474455339468365  0.4194689626787636  0.6493790590285897  1.0000
  C   C58       1.0  0.2279219928289392  0.5804658076434706  0.8506306887350235  1.0000
  C   C59       1.0  0.35254061847140156  0.5805215994567876  0.3506110740402947  1.0000
  C   C60       1.0  0.7720792425301112  0.4195441803324371  0.14937043759444182  1.0000
  C   C61       1.0  0.532472124550118  0.2095778482620929  0.5533447012359576  1.0000
  C   C62       1.0  0.32289340235386993  0.7903336206074557  0.9466689072019534  1.0000
  C   C63       1.0  0.46752501237932637  0.7904147348915064  0.4466519219606512  1.0000
  C   C64       1.0  0.6771283068801351  0.20968509174841907  0.05333601969827841  1.0000
  C   C65       1.0  0.06229612289100572  0.17115578209271123  0.9932800878149594  1.0000
  C   C66       1.0  0.8911564240159251  0.8288255879627046  0.5066842487318938  1.0000
  C   C67       1.0  0.9377214796787782  0.8288608546660255  0.006714631097864271  1.0000
  C   C68       1.0  0.10882841122958102  0.17114392483306773  0.4933156648862679  1.0000
  C   C69       1.0  0.6873578545218565  0.36680550086826713  0.699142098273164  1.0000
  C   C70       1.0  0.3205294975528685  0.6331285674702655  0.8008843208353156  1.0000
  C   C71       1.0  0.31263885033661143  0.6332015638062103  0.3008567284587044  1.0000
  C   C72       1.0  0.6794666608453852  0.36688047336601676  0.1991178978920871  1.0000
  N   N1        1.0  0.6520395581290329  0.2409780931564144  0.6789510806650655  1.0000
  N   N2        1.0  0.41104012012079494  0.7589506235981531  0.8210436466033926  1.0000
  N   N3        1.0  0.3479666406193829  0.7590356839347407  0.3210456761475129  1.0000
  N   N4        1.0  0.5889754396072461  0.24106039267616813  0.1789619640222213  1.0000
  N   N5        1.0  0.526843301590965  0.49227881256456396  0.5339068701452518  1.0000
  N   N6        1.0  0.034535878674766665  0.5077422284058811  0.9660867447726744  1.0000
  N   N7        1.0  0.4731571846649204  0.5077097276343141  0.4660767726723948  1.0000
  N   N8        1.0  0.9654811299022723  0.4922870314516389  0.0339148409732886  1.0000
  O   O1        1.0  0.5287091576490681  0.9999415327892864  0.7499858982094667  1.0000
  O   O2        1.0  0.4712805187634999  5.300866713040018e-05  0.2500128777410282  1.0000
  O   O3        1.0  0.8889946922516356  0.33845791621672566  0.78533772371555  1.0000
  O   O4        1.0  0.5505078880123262  0.6614779567891348  0.7146292760975754  1.0000
  O   O5        1.0  0.11100629293194696  0.6615392947573256  0.21464600194418182  1.0000
  O   O6        1.0  0.44949738755578045  0.33852937016715867  0.28538752008546453  1.0000
  O   O7        1.0  0.6494522042677174  0.26807251746525657  0.8542260805950336  1.0000
  O   O8        1.0  0.38123001174363946  0.7318375262367882  0.645794842745417  1.0000
  O   O9        1.0  0.35055711090399905  0.7319306125775712  0.1457672013649685  1.0000
  O   O10       1.0  0.6187411803429299  0.2681522702162057  0.35420877552340363  1.0000
  O   O11       1.0  0.6787007560314678  0.9021433270251508  0.8183516724553499  1.0000
  O   O12       1.0  0.77649375262029  0.09777340701928246  0.6815969687224239  1.0000
  O   O13       1.0  0.3213190301087465  0.0978761425709322  0.181639149689623  1.0000
  O   O14       1.0  0.2234789105594642  0.9021947785874999  0.3183780125453453  1.0000
  O   O15       1.0  0.7583185530984125  0.11868832099483481  0.8592047404645555  1.0000
  O   O16       1.0  0.6395594991891331  0.8812221840595744  0.6407688829875084  1.0000
  O   O17       1.0  0.24169038206106552  0.8813186526866517  0.1407878898307544  1.0000
  O   O18       1.0  0.3604226200205929  0.11874343088032904  0.35922796448430466  1.0000
  O   O19       1.0  0.4734019853011374  0.09881684556215485  0.8780882966210799  1.0000
  O   O20       1.0  0.3744766218936134  0.9011110537891298  0.6219104958231226  1.0000
  O   O21       1.0  0.5266013052442204  0.9011865110723605  0.12192047631053533  1.0000
  O   O22       1.0  0.6255101882858226  0.09888542769356691  0.3780891935834632  1.0000
