data_image0
_chemical_formula_structural       Ag4H24C40S4N16O12F12
_chemical_formula_sum              "Ag4 H24 C40 S4 N16 O12 F12"
_cell_length_a       7.969628543102237
_cell_length_b       7.96957165009014
_cell_length_c       21.213908048694744
_cell_angle_alpha    86.00358760069336
_cell_angle_beta     86.00420966653161
_cell_angle_gamma    74.79683243700399

_space_group_name_H-M_alt    "P 1"
_space_group_IT_number       1

loop_
  _space_group_symop_operation_xyz
  'x, y, z'

loop_
  _atom_site_type_symbol
  _atom_site_label
  _atom_site_symmetry_multiplicity
  _atom_site_fract_x
  _atom_site_fract_y
  _atom_site_fract_z
  _atom_site_occupancy
  Ag  Ag1       1.0  0.6904780850279479  0.5067556807722937  0.44655551077892125  1.0000
  Ag  Ag2       1.0  0.49324202346369356  0.3095384330189362  0.053450613559704194  1.0000
  Ag  Ag3       1.0  0.30955231051473214  0.4932401050951756  0.5534442073778507  1.0000
  Ag  Ag4       1.0  0.5067770119690991  0.6904679266792332  0.9465557252040566  1.0000
  H   H1        1.0  0.1193925961181961  0.049136074364476215  0.3051003485042044  1.0000
  H   H2        1.0  0.9508668893607037  0.8806086538900858  0.1948963973622497  1.0000
  H   H3        1.0  0.8806153957587667  0.9508535455778075  0.6948977816808293  1.0000
  H   H4        1.0  0.04913352353705851  0.11938107388909462  0.805100991132278  1.0000
  H   H5        1.0  0.7387218837645902  0.6398049106966754  0.2949370234569954  1.0000
  H   H6        1.0  0.3602098672262882  0.2612849764849585  0.2050663798545287  1.0000
  H   H7        1.0  0.26129364381193193  0.3601845583215848  0.7050514801564559  1.0000
  H   H8        1.0  0.6398123260730343  0.7387239391782928  0.7949416906742642  1.0000
  H   H9        1.0  0.9219933793526633  0.5113548990329734  0.1995928243339193  1.0000
  H   H10       1.0  0.48866845839435036  0.0780103409399899  0.3004086802477417  1.0000
  H   H11       1.0  0.07803229107321384  0.48862405982585966  0.8003999316990685  1.0000
  H   H12       1.0  0.5113559564056162  0.9219894509026787  0.6995972191273336  1.0000
  H   H13       1.0  0.9251600890045278  0.7900260064663274  0.43240843461623496  1.0000
  H   H14       1.0  0.20997697352181177  0.07483836302148461  0.06758851196574509  1.0000
  H   H15       1.0  0.07483146051794876  0.20997943161458477  0.5675915979004883  1.0000
  H   H16       1.0  0.7900234221605161  0.9251617513724784  0.9324104829712069  1.0000
  H   H17       1.0  0.3903760510200414  0.861605062294011  0.42634962782341984  1.0000
  H   H18       1.0  0.13840239467468496  0.6096302996780597  0.07364910925734587  1.0000
  H   H19       1.0  0.6096167814211384  0.1383951756048916  0.5736523957001438  1.0000
  H   H20       1.0  0.8615932611325547  0.3903737805218911  0.9263508492870614  1.0000
  H   H21       1.0  0.34616931357045627  0.18844944936849833  0.42046336351637575  1.0000
  H   H22       1.0  0.8115544191272474  0.6538420643149367  0.0795332550265329  1.0000
  H   H23       1.0  0.653825394557245  0.8115533435360903  0.5795357124056224  1.0000
  H   H24       1.0  0.1884361768139158  0.34616208059510006  0.9204644810138587  1.0000
  C   C1        1.0  0.036389448532204924  0.18207799775800032  0.3021669015309882  1.0000
  C   C2        1.0  0.8179272213668299  0.9636125399915942  0.19783217323936944  1.0000
  C   C3        1.0  0.9636169891266064  0.8179025659916733  0.6978319856475466  1.0000
  C   C4        1.0  0.1820810865666118  0.03638097712958201  0.8021682004878626  1.0000
  C   C5        1.0  0.9382821043855999  0.2565358062734688  0.35487102491475037  1.0000
  C   C6        1.0  0.743465774348074  0.0617209552881945  0.1451278383113603  1.0000
  C   C7        1.0  0.061722390451159  0.743457741264095  0.6451233225515408  1.0000
  C   C8        1.0  0.2565378042852443  0.9382713362900933  0.8548731670867581  1.0000
  C   C9        1.0  0.8238503142286008  0.5080221751087209  0.29707639337351566  1.0000
  C   C10       1.0  0.49198732828056535  0.17615288062665974  0.2029248429541823  1.0000
  C   C11       1.0  0.17615671890396808  0.4919609446457472  0.7029153381214853  1.0000
  C   C12       1.0  0.5080276134096805  0.8238496475620923  0.7970817091299621  1.0000
  C   C13       1.0  0.9253200843140876  0.43543642368753416  0.24447586700875945  1.0000
  C   C14       1.0  0.5645751055123255  0.07468180729244982  0.2555247446959186  1.0000
  C   C15       1.0  0.07469990052441489  0.5645452156404291  0.7555174412939109  1.0000
  C   C16       1.0  0.4354382662217091  0.9253116490356634  0.7444787941046086  1.0000
  C   C17       1.0  0.7672208781952463  0.05892665617270153  0.42646921694715445  1.0000
  C   C18       1.0  0.9410785778959934  0.23278090763796652  0.07353010511633325  1.0000
  C   C19       1.0  0.23276907628656565  0.9410800888283364  0.5735275235898243  1.0000
  C   C20       1.0  0.0589199197213119  0.7672218313481736  0.9264693416509145  1.0000
  C   C21       1.0  0.795703990246551  0.8782828761820911  0.42919451649898116  1.0000
  C   C22       1.0  0.12171947582815079  0.20429829725982532  0.07080474980300268  1.0000
  C   C23       1.0  0.20428849908644514  0.121723841360172  0.5708045135016064  1.0000
  C   C24       1.0  0.878279969468693  0.7957057290216841  0.9291955795866612  1.0000
  C   C25       1.0  0.49987473127195864  0.9193743568763184  0.42540969351532  1.0000
  C   C26       1.0  0.08063348725834626  0.5001281784143006  0.07459158305562849  1.0000
  C   C27       1.0  0.5001174636443865  0.08062848503060852  0.5745922770741103  1.0000
  C   C28       1.0  0.9193637537532807  0.49987458507300186  0.9254093110453354  1.0000
  C   C29       1.0  0.4759212746734319  0.09972220515955141  0.42238518490847093  1.0000
  C   C30       1.0  0.900282982860425  0.5240835840556388  0.07761341153801027  1.0000
  C   C31       1.0  0.5240724916764917  0.9002793063251816  0.5776144222450269  1.0000
  C   C32       1.0  0.09971457101184455  0.47591787155214155  0.9223860951761008  1.0000
  C   C33       1.0  0.725035549292997  0.4044172925118802  0.6568043558403855  1.0000
  C   C34       1.0  0.5955844217529603  0.27495604679407404  0.8432005687743284  1.0000
  C   C35       1.0  0.2749471717749329  0.5955934868825425  0.3432009558178847  1.0000
  C   C36       1.0  0.4044137767744969  0.7250480137811267  0.15680356437225376  1.0000
  C   C37       1.0  0.7475872994007771  0.45790655145168574  0.5851077587070533  1.0000
  C   C38       1.0  0.5420935266465607  0.2524085181937252  0.9148979790867596  1.0000
  C   C39       1.0  0.25238406451200035  0.5420939972077791  0.4148934201191139  1.0000
  C   C40       1.0  0.4578977390342376  0.7475878529029599  0.08510466208223726  1.0000
  S   S1        1.0  0.9520631506788604  0.15032198361780758  0.4336093257502539  1.0000
  S   S2        1.0  0.8496732068429721  0.04794671577248981  0.06638928760447267  1.0000
  S   S3        1.0  0.04793881053528536  0.8496767944784552  0.5663858918968429  1.0000
  S   S4        1.0  0.15032246347375633  0.9520521769955865  0.9336112815726522  1.0000
  N   N1        1.0  0.030430296544508885  0.27352473653679255  0.24639220022827857  1.0000
  N   N2        1.0  0.7264871234447908  0.9695653982403202  0.2536062048897278  1.0000
  N   N3        1.0  0.9695805523906814  0.7264531536183797  0.7536033404525213  1.0000
  N   N4        1.0  0.2735294155021819  0.030420219604060605  0.7463955740948548  1.0000
  N   N5        1.0  0.8330015810578358  0.4172681986577161  0.35283986479240775  1.0000
  N   N6        1.0  0.5827375550715955  0.1670041649087963  0.14715971200794797  1.0000
  N   N7        1.0  0.1669997433701553  0.5827279823051514  0.6471526115607842  1.0000
  N   N8        1.0  0.4172698142799048  0.8329932758509603  0.8528448238798347  1.0000
  N   N9        1.0  0.6592360272807554  0.8093766950554413  0.4285905744560168  1.0000
  N   N10       1.0  0.19062380729047856  0.3407683723325476  0.0714104392944535  1.0000
  N   N11       1.0  0.3407571074461017  0.19062742631282256  0.5714103936172632  1.0000
  N   N12       1.0  0.8093727922617899  0.659236991245763  0.9285894593030903  1.0000
  N   N13       1.0  0.6112332356862639  0.1702510729635804  0.42318303165706067  1.0000
  N   N14       1.0  0.8297543112874589  0.3887769519179117  0.07681884145487317  1.0000
  N   N15       1.0  0.38876115367901315  0.8297530219450168  0.5768160177978671  1.0000
  N   N16       1.0  0.17024135042155553  0.6112271341575595  0.9231825309434567  1.0000
  O   O1        1.0  0.10828241496002979  0.9970592009148408  0.4325339457420867  1.0000
  O   O2        1.0  0.002936427602016062  0.8917248982370584  0.06746333113183307  1.0000
  O   O3        1.0  0.891713246259094  0.0029344809192935035  0.5674615786520647  1.0000
  O   O4        1.0  0.9970636355470928  0.10827650445138205  0.9325323383455666  1.0000
  O   O5        1.0  0.6505265099843738  0.4095784281548945  0.5488411873641538  1.0000
  O   O6        1.0  0.5904146911784521  0.34946361585294755  0.9511624394622868  1.0000
  O   O7        1.0  0.3494565160751791  0.590431035525981  0.451160851768705  1.0000
  O   O8        1.0  0.40959048249553814  0.6505273688052072  0.048841857915583396  1.0000
  O   O9        1.0  0.8564877462067458  0.5437981067430188  0.5719518897232873  1.0000
  O   O10       1.0  0.45620692330958684  0.14348893083850103  0.9280523890697763  1.0000
  O   O11       1.0  0.143494289873388  0.45623083503803497  0.42805059453344524  1.0000
  O   O12       1.0  0.5437745077093014  0.8565218397624934  0.07194635808333057  1.0000
  F   F1        1.0  0.8787498466354933  0.3075353938581174  0.6800355840500529  1.0000
  F   F2        1.0  0.692471765740031  0.12124625663359008  0.819974272644842  1.0000
  F   F3        1.0  0.1212347724974663  0.6924727609441279  0.3199692757779217  1.0000
  F   F4        1.0  0.3075172764728577  0.8787592363251807  0.1800300683932363  1.0000
  F   F5        1.0  0.6718087993254682  0.5502177609057243  0.691301450058688  1.0000
  F   F6        1.0  0.4498018628871065  0.32819546992383414  0.8086937803151669  1.0000
  F   F7        1.0  0.32818617616717205  0.44979928445646794  0.3086939352936895  1.0000
  F   F8        1.0  0.5502032402067201  0.6718214538522106  0.19130793518380776  1.0000
  F   F9        1.0  0.6061434869316714  0.3097194927079912  0.670543034310171  1.0000
  F   F10       1.0  0.690288583858752  0.3938499215954394  0.8294672800286804  1.0000
  F   F11       1.0  0.3938313238524102  0.6902978859177153  0.32946136984245555  1.0000
  F   F12       1.0  0.30970931435027893  0.6061502574688973  0.17053837985282166  1.0000
