data_image0
_chemical_formula_structural       Zn4H40C40N4O20
_chemical_formula_sum              "Zn4 H40 C40 N4 O20"
_cell_length_a       5.761698719736442
_cell_length_b       12.323516946
_cell_length_c       15.288
_cell_angle_alpha    90.0
_cell_angle_beta     100.118623943642
_cell_angle_gamma    90.0

_space_group_name_H-M_alt    "P 1"
_space_group_IT_number       1

loop_
  _space_group_symop_operation_xyz
  'x, y, z'

loop_
  _atom_site_type_symbol
  _atom_site_label
  _atom_site_symmetry_multiplicity
  _atom_site_fract_x
  _atom_site_fract_y
  _atom_site_fract_z
  _atom_site_occupancy
  Zn  Zn1       1.0  0.6618081356894977  0.34080530893928074  0.47030991186448284  1.0000
  Zn  Zn2       1.0  0.33819504145076  0.3408199151593081  0.02969186836006799  1.0000
  Zn  Zn3       1.0  0.33821090864032755  0.6591860128562388  0.5296948812869431  1.0000
  Zn  Zn4       1.0  0.6618134247526868  0.6591908815962455  0.9703102620656451  1.0000
  H   H1        1.0  0.9309050926183746  0.1357518318293884  0.4692786763228226  1.0000
  H   H2        1.0  0.0690557720163696  0.1357802328127704  0.030724226939213395  1.0000
  H   H3        1.0  0.0690980845218832  0.8642265066594419  0.5307257203329172  1.0000
  H   H4        1.0  0.9309262488711313  0.8642419243361346  0.9692735360494991  1.0000
  H   H5        1.0  0.8569992496577045  0.9494619150743233  0.4003159941433124  1.0000
  H   H6        1.0  0.1429510368506612  0.9494854473176915  0.09968359228520278  1.0000
  H   H7        1.0  0.142991586335107  0.05052534943785499  0.5996856230529841  1.0000
  H   H8        1.0  0.8570045387208935  0.0505261608945275  0.900305224511932  1.0000
  H   H9        1.0  0.14740266503471844  0.0539886464972099  0.2988611288129305  1.0000
  H   H10       1.0  0.8525828818949108  0.0539732288205172  0.2011231313794895  1.0000
  H   H11       1.0  0.8526163792951069  0.9460180929749953  0.7011358150449354  1.0000
  H   H12       1.0  0.1473903238872794  0.9460132242349886  0.7988648904314599  1.0000
  H   H13       1.0  0.2503295977133106  0.23539627629931908  0.36527453797773995  1.0000
  H   H14       1.0  0.7496700533848184  0.2353800471659611  0.13471654305461558  1.0000
  H   H15       1.0  0.7497000247428929  0.7646055944328792  0.6347231062824503  1.0000
  H   H16       1.0  0.2503384128186283  0.7646112746295586  0.8652829709399084  1.0000
  H   H17       1.0  0.2547353873497329  0.8696705694455744  0.2762982021707429  1.0000
  H   H18       1.0  0.7452113731165113  0.8696583975955504  0.22368348987981784  1.0000
  H   H19       1.0  0.7452431074956465  0.1303345471132999  0.7236980191349359  1.0000
  H   H20       1.0  0.2547530175603612  0.1303369814833033  0.7763000236157466  1.0000
  H   H21       1.0  0.5231923676327384  0.8140825418555835  0.3349210862706542  1.0000
  H   H22       1.0  0.4767349996018099  0.8140825418555835  0.1650658627869532  1.0000
  H   H23       1.0  0.4767878902337017  0.1859136486799429  0.665069364798576  1.0000
  H   H24       1.0  0.5232223389908128  0.1859144601366154  0.8349250330672928  1.0000
  H   H25       1.0  0.25525547856331343  0.3139193151558644  0.7447346532703846  1.0000
  H   H26       1.0  0.7447318313873766  0.3139282411792124  0.7552680386740674  1.0000
  H   H27       1.0  0.7447371204505657  0.6860817441196687  0.2552788545999859  1.0000
  H   H28       1.0  0.2552642936686311  0.6860776868363274  0.2447443944481478  1.0000
  H   H29       1.0  0.2653258548751296  0.5029473345278888  0.7871766848443754  1.0000
  H   H30       1.0  0.7346967154968169  0.5029627522045814  0.7128211465887304  1.0000
  H   H31       1.0  0.7346755592440672  0.4970529132909718  0.2128275950776484  1.0000
  H   H32       1.0  0.2652941204959944  0.4970439872676238  0.2871739295296009  1.0000
  H   H33       1.0  0.3441029250328498  0.429937332274271  0.5533064862818049  1.0000
  H   H34       1.0  0.6559090672127255  0.4299454468409536  0.9466952235035535  1.0000
  H   H35       1.0  0.6559143562759148  0.5700531780645761  0.446697536028111  1.0000
  H   H36       1.0  0.3440905838854036  0.5700588582612554  0.05330305271456839  1.0000
  H   H37       1.0  0.2068552613209675  0.3774328400229691  0.46242543600818914  1.0000
  H   H38       1.0  0.7931426267561008  0.37743770876298294  0.037577302230793884  1.0000
  H   H39       1.0  0.7931602569667291  0.6225617275992192  0.5375765072446084  1.0000
  H   H40       1.0  0.2068605503841567  0.622566596339226  0.9624218615625677  1.0000
  C   C1        1.0  0.7618384247615992  0.1133653652704609  0.4294874406605586  1.0000
  C   C2        1.0  0.2381629893575976  0.11338565168716029  0.07051422283026909  1.0000
  C   C3        1.0  0.238200012799922  0.8866348825484067  0.5705225612085769  1.0000
  C   C4        1.0  0.7618243205930924  0.8866162190450382  0.9294851985752002  1.0000
  C   C5        1.0  0.718508656096418  0.0108540443922038  0.3924315319968769  1.0000
  C   C6        1.0  0.281452208538326  0.010870273525568998  0.10756221375600458  1.0000
  C   C7        1.0  0.2815121512544678  0.9891186138999472  0.6075668368103067  1.0000
  C   C8        1.0  0.718522760264925  0.9891478263399945  0.8924265788964687  1.0000
  C   C9        1.0  0.4955288041333148  0.9868416664893189  0.34304690045127717  1.0000
  C   C10       1.0  0.5044708469648143  0.9868546497960082  0.15694679701226727  1.0000
  C   C11       1.0  0.5044761360280036  0.013158581329548698  0.6569504177524121  1.0000
  C   C12       1.0  0.4954917806909904  0.0131415407395181  0.8430431408275466  1.0000
  C   C13       1.0  0.3244170318434669  0.068580260302582  0.335433832950791  1.0000
  C   C14       1.0  0.6755544109176554  0.0685729571925719  0.16455276391084783  1.0000
  C   C15       1.0  0.6756108275916688  0.9314183646029477  0.6645656568990717  1.0000
  C   C16       1.0  0.3244276099698454  0.9314289135396265  0.8354371497843045  1.0000
  C   C17       1.0  0.3797600260318817  0.1698037994486015  0.3729594195048946  1.0000
  C   C18       1.0  0.6202590182979435  0.1698013650785981  0.12703687024517046  1.0000
  C   C19       1.0  0.6202801745507003  0.8301972598269315  0.6270428498043968  1.0000
  C   C20       1.0  0.37974063280018566  0.8301923910869248  0.8729627141885458  1.0000
  C   C21       1.0  0.4459579409051386  0.8822140666207191  0.2932798737253392  1.0000
  C   C22       1.0  0.5539852935189771  0.882212443707381  0.20670616361235963  1.0000
  C   C23       1.0  0.5540328950876727  0.1177829353714728  0.706709969530614  1.0000
  C   C24       1.0  0.44597733413683477  0.1177861811981487  0.7932857365508494  1.0000
  C   C25       1.0  0.096923845959104  0.36101220288774977  0.7191007032160852  1.0000
  C   C26       1.0  0.9030687530547752  0.3610162601710911  0.7809010307139417  1.0000
  C   C27       1.0  0.9030722790969037  0.6389896678444487  0.2809136922295252  1.0000
  C   C28       1.0  0.0969185568959148  0.6389880449311178  0.21910951052407768  1.0000
  C   C29       1.0  0.11724971579435112  0.4860276515418036  0.7327993520285006  1.0000
  C   C30       1.0  0.8827658024933528  0.4860292744551415  0.7672012830087027  1.0000
  C   C31       1.0  0.8827499353037852  0.5139774650170708  0.2672048111598002  1.0000
  C   C32       1.0  0.11722150745734441  0.5139685389937227  0.23279879250456045  1.0000
  C   C33       1.0  0.1473603525292049  0.5579064832001279  0.656188913284218  1.0000
  C   C34       1.0  0.8526798480533773  0.5579170321368068  0.8438100854860976  1.0000
  C   C35       1.0  0.8526675069059308  0.4420872729653951  0.34381188478123886  1.0000
  C   C36       1.0  0.1473162770026306  0.442097821902081  0.15618926548017945  1.0000
  C   C37       1.0  0.9845097480386756  0.3183579831302481  0.6286102780279421  1.0000
  C   C38       1.0  0.0154916660805213  0.3183531143902414  0.871387460816109  1.0000
  C   C39       1.0  0.0155004811858319  0.6816471334286263  0.3713998184250613  1.0000
  C   C40       1.0  0.9845062219965472  0.6816446990586229  0.12861593153066758  1.0000
  N   N1        1.0  0.5961426531772602  0.1920563756572946  0.4192908022795193  1.0000
  N   N2        1.0  0.4038428937523619  0.19206124439730127  0.08070457774545048  1.0000
  N   N3        1.0  0.4038799171946863  0.8079317003115492  0.5807116079081636  1.0000
  N   N4        1.0  0.5961532313036386  0.807945495074911  0.919294119113033  1.0000
  O   O1        1.0  0.3337099158665069  0.5399919543389728  0.6206265827561166  1.0000
  O   O2        1.0  0.666330284716075  0.5400008803623209  0.8793750324453807  1.0000
  O   O3        1.0  0.6663161805475754  0.4599977445432089  0.37937736911460007  1.0000
  O   O4        1.0  0.3336658403399255  0.460003424739881  0.1206249726286899  1.0000
  O   O5        1.0  0.0081663135637839  0.6347944368704859  0.6308134735459276  1.0000
  O   O6        1.0  0.9918774130609265  0.6347895681304792  0.8691798717216483  1.0000
  O   O7        1.0  0.9918492047239127  0.3652066224050472  0.3691825827366983  1.0000
  O   O8        1.0  0.008120475016149003  0.3652139255150573  0.1308182877627573  1.0000
  O   O9        1.0  0.9947529004146674  0.21959883788518647  0.6118761513903905  1.0000
  O   O10       1.0  0.005269669957286301  0.2196175013885551  0.8881275670128799  1.0000
  O   O11       1.0  0.0052643808940971  0.7803803120603092  0.38815076469241205  1.0000
  O   O12       1.0  0.9947493743725389  0.7804152046970358  0.11187984256973488  1.0000
  O   O13       1.0  0.8689190350646001  0.390730180442759  0.5762602543773098  1.0000
  O   O14       1.0  0.1310718009282112  0.3907382950094416  0.9237387463878048  1.0000
  O   O15       1.0  0.1311035353073464  0.6092570840694194  0.42374542634935597  1.0000
  O   O16       1.0  0.8689260871488571  0.6092757475727808  0.07626399185117799  1.0000
  O   O17       1.0  0.34809440471946124  0.3701297300102695  0.5098417028751212  1.0000
  O   O18       1.0  0.6519070093997286  0.3701378445769521  0.9901566900767234  1.0000
  O   O19       1.0  0.6519193505471748  0.6298599688719122  0.4901607777517539  1.0000
  O   O20       1.0  0.3480979307615897  0.6298656490685843  0.009841936342567695  1.0000
