data_image0
_chemical_formula_structural       Cd2H20C24S4N12Cl4
_chemical_formula_sum              "Cd2 H20 C24 S4 N12 Cl4"
_cell_length_a       3.7690995367098323
_cell_length_b       12.959045292450126
_cell_length_c       16.056723398278816
_cell_angle_alpha    93.96828128149059
_cell_angle_beta     96.73836566403855
_cell_angle_gamma    98.34972157021895

_space_group_name_H-M_alt    "P 1"
_space_group_IT_number       1

loop_
  _space_group_symop_operation_xyz
  'x, y, z'

loop_
  _atom_site_type_symbol
  _atom_site_label
  _atom_site_symmetry_multiplicity
  _atom_site_fract_x
  _atom_site_fract_y
  _atom_site_fract_z
  _atom_site_occupancy
  Cd  Cd1       1.0  0.8439811830900296  0.7499084003232356  0.7499139691708123  1.0000
  Cd  Cd2       1.0  0.15602050141665563  0.2500904211037139  0.2500855860160485  1.0000
  H   H1        1.0  0.4286586566201578  0.5817496749613015  0.5733022498440974  1.0000
  H   H2        1.0  0.7718554698562767  0.9178257158997808  0.9260996100863322  1.0000
  H   H3        1.0  0.5713307771533989  0.4182491547481249  0.4266957294148384  1.0000
  H   H4        1.0  0.22815182792793814  0.08217778751242122  0.0739034049380081  1.0000
  H   H5        1.0  0.1616131016477809  0.8097970546017166  0.2718424141506759  1.0000
  H   H6        1.0  0.5802094137341383  0.6904009673665142  0.22788140035282103  1.0000
  H   H7        1.0  0.8383827899010752  0.19020412450406346  0.7281555924594372  1.0000
  H   H8        1.0  0.4197886333682133  0.30959707397070696  0.7721175474150002  1.0000
  H   H9        1.0  0.4458082926350214  0.906658666975879  0.3339028821779877  1.0000
  H   H10       1.0  0.7055666267492241  0.5934498813082385  0.1658803006340577  1.0000
  H   H11       1.0  0.554199429565301  0.09334172090301962  0.6660966425812092  1.0000
  H   H12       1.0  0.2944332020849387  0.4065489495274336  0.8341173866541638  1.0000
  H   H13       1.0  0.09158406685159536  0.5166109288096693  0.4310309304052566  1.0000
  H   H14       1.0  0.6432488392818669  0.9832840721249098  0.06840581389690209  1.0000
  H   H15       1.0  0.9083996479048508  0.4833894596714077  0.5689686286551705  1.0000
  H   H16       1.0  0.3567541794105295  0.016716299228093603  0.9315970430047356  1.0000
  H   H17       1.0  0.055064359667170416  0.6275654460478107  0.31551660925937597  1.0000
  H   H18       1.0  0.6121534687179561  0.8725658821580355  0.18408524529773024  1.0000
  H   H19       1.0  0.9449261127455555  0.37243416346978353  0.6844820504112901  1.0000
  H   H20       1.0  0.3878478927777634  0.12743371252304309  0.8159163085593021  1.0000
  C   C1        1.0  0.5990510077513848  0.7350389613049089  0.5318320997370521  1.0000
  C   C2        1.0  0.8326630573022701  0.7647899011302927  0.9678622022084512  1.0000
  C   C3        1.0  0.40093924305551804  0.2649590791876264  0.4681670670088067  1.0000
  C   C4        1.0  0.1673447619687494  0.2352120429471327  0.03213937899975859  1.0000
  C   C5        1.0  0.420173304935112  0.630875011815  0.5212298734136951  1.0000
  C   C6        1.0  0.7673763436457719  0.8689076342335867  0.978316481294719  1.0000
  C   C7        1.0  0.5798214234394479  0.36912537465608614  0.4787700163088999  1.0000
  C   C8        1.0  0.23263095413844329  0.13109586917861552  0.021686533729621302  1.0000
  C   C9        1.0  0.23307175535109073  0.5966737666165474  0.4427757666739466  1.0000
  C   C10       1.0  0.6935784748074454  0.9032771134007476  0.056780381430051804  1.0000
  C   C11       1.0  0.7669165383781543  0.40332662556389204  0.5572230237682374  1.0000
  C   C12       1.0  0.3064299630210811  0.09672482754043439  0.9432218224110399  1.0000
  C   C13       1.0  0.2120039003024914  0.6607632793612978  0.375087430154494  1.0000
  C   C14       1.0  0.676809985963878  0.8393176190327907  0.12455603446866088  1.0000
  C   C15       1.0  0.7879809544982663  0.33923554664876576  0.6249113177226846  1.0000
  C   C16       1.0  0.32319293565782187  0.16068119612167917  0.8754447659839639  1.0000
  C   C17       1.0  0.38257809226707434  0.7641196783312407  0.3829308236951405  1.0000
  C   C18       1.0  0.7364787883242271  0.7359688941404272  0.11682636214701601  1.0000
  C   C19       1.0  0.6174112169713624  0.23587913855165976  0.6170697190880077  1.0000
  C   C20       1.0  0.26353078954861814  0.26403148432974183  0.8831750305108272  1.0000
  C   C21       1.0  0.5857875689558939  0.8013786815193671  0.46301035579914174  1.0000
  C   C22       1.0  0.8230945030476489  0.6986553991454798  0.0368476190701301  1.0000
  C   C23       1.0  0.41420352201434013  0.19862092486198432  0.5369889265043996  1.0000
  C   C24       1.0  0.1769172766386618  0.3013465517675584  0.9631525708869545  1.0000
  S   S1        1.0  0.9515321193482862  0.9051543749733569  0.5803414990991413  1.0000
  S   S2        1.0  0.9686261899885337  0.5947741005531526  0.9196217616612969  1.0000
  S   S3        1.0  0.048474444012164435  0.09484132179312608  0.4196563607285312  1.0000
  S   S4        1.0  0.03137759492648232  0.4052286355958401  0.08037808241979148  1.0000
  N   N1        1.0  0.7989987392077823  0.7866312703456871  0.6020969825588836  1.0000
  N   N2        1.0  0.9111964380264013  0.7131482663327587  0.8976779486216202  1.0000
  N   N3        1.0  0.20100304670403799  0.2133652088020881  0.39790108103299804  1.0000
  N   N4        1.0  0.08880494659930349  0.28685368345402645  0.10232253330618589  1.0000
  N   N5        1.0  0.7743974183274033  0.8980072971270019  0.4828821019767702  1.0000
  N   N6        1.0  0.8964852292079185  0.6021279363721066  0.017143633283183104  1.0000
  N   N7        1.0  0.22560302906425977  0.10199153057243392  0.5171162079443262  1.0000
  N   N8        1.0  0.10352197150559289  0.3978740108415622  0.9828573252921442  1.0000
  N   N9        1.0  0.3752936988109069  0.8284561550750452  0.3179223856604807  1.0000
  N   N10       1.0  0.7292916510634054  0.6716587032000587  0.18184036046302765  1.0000
  N   N11       1.0  0.6247025896896333  0.17154345186943232  0.682076750657707  1.0000
  N   N12       1.0  0.2707126322084292  0.32834011850845707  0.8181591217311563  1.0000
  Cl  Cl1       1.0  0.2624205032397315  0.6046506608567767  0.7323483328153771  1.0000
  Cl  Cl2       1.0  0.42464004542765127  0.8952282756454792  0.7674577773058715  1.0000
  Cl  Cl3       1.0  0.7375798196168118  0.39534815401613327  0.2676525406299319  1.0000
  Cl  Cl4       1.0  0.5753592387897157  0.10476975941926271  0.23254241572770698  1.0000
