data_image0
_chemical_formula_structural       Al4H44C64N8O20
_chemical_formula_sum              "Al4 H44 C64 N8 O20"
_cell_length_a       6.664804274269487
_cell_length_b       23.66655378817317
_cell_length_c       25.824748365386935
_cell_angle_alpha    90.01919847944708
_cell_angle_beta     88.88168402851892
_cell_angle_gamma    89.00206155312839

_space_group_name_H-M_alt    "P 1"
_space_group_IT_number       1

loop_
  _space_group_symop_operation_xyz
  'x, y, z'

loop_
  _atom_site_type_symbol
  _atom_site_label
  _atom_site_symmetry_multiplicity
  _atom_site_fract_x
  _atom_site_fract_y
  _atom_site_fract_z
  _atom_site_occupancy
  Al  Al1       1.0  0.9873684840101546  0.0040198454526248  0.49451781831264424  1.0000
  Al  Al2       1.0  0.48686532142895095  0.002032583040694601  0.49897660269383676  1.0000
  Al  Al3       1.0  0.01510562224019911  0.5031731513015958  0.9967596844354528  1.0000
  Al  Al4       1.0  0.5151839231120761  0.501479719845868  0.996686299678515  1.0000
  H   H1        1.0  0.22919192368440375  0.07502321076678703  0.5129459508399632  1.0000
  H   H2        1.0  0.7472687446797082  0.9275098349081504  0.504899454659842  1.0000
  H   H3        1.0  0.26721094500983616  0.429419000075285  0.010110956543336196  1.0000
  H   H4        1.0  0.7564850373357145  0.5765906451757203  0.008322439423345396  1.0000
  H   H5        1.0  0.45971493613875947  0.3672685580115741  0.09281787668348329  1.0000
  H   H6        1.0  0.43206652014858804  0.29681971644141214  0.16418629168840224  1.0000
  H   H7        1.0  0.03831502576637289  0.33374335052677406  0.20713991145032642  1.0000
  H   H8        1.0  0.40757393280826193  0.20587439162669344  0.32365518981494984  1.0000
  H   H9        1.0  0.022838036459702903  0.09199792498568371  0.35757533708890304  1.0000
  H   H10       1.0  0.028387481605904007  0.16508980410625182  0.28757045464322306  1.0000
  H   H11       1.0  0.9676266228992745  0.6391909084144702  0.899475959488768  1.0000
  H   H12       1.0  0.9581408518066041  0.7105587101737428  0.8281952482546939  1.0000
  H   H13       1.0  0.5781147236375406  0.6700040000991835  0.7908823717308447  1.0000
  H   H14       1.0  0.9491114255906509  0.7952858630852762  0.6738160101404771  1.0000
  H   H15       1.0  0.5296853459985799  0.917233742260713  0.6348828772590165  1.0000
  H   H16       1.0  0.5550291413512553  0.8447535291574226  0.7049506411057818  1.0000
  H   H17       1.0  0.5583331185913352  0.6292516182847764  0.10006287296494065  1.0000
  H   H18       1.0  0.5697850699088747  0.702177266411063  0.16974097163930676  1.0000
  H   H19       1.0  0.9559884949133349  0.6651657977678271  0.21170476412363826  1.0000
  H   H20       1.0  0.565556127957251  0.7914886699187917  0.32651453455780904  1.0000
  H   H21       1.0  0.9599293191762683  0.9102204460620628  0.3639743865471629  1.0000
  H   H22       1.0  0.9546646823241929  0.8393251886420007  0.2921639287235322  1.0000
  H   H23       1.0  0.4755153520634677  0.4144558880824434  0.8624990023920983  1.0000
  H   H24       1.0  0.4527832770852172  0.3395728500794776  0.7945778977728108  1.0000
  H   H25       1.0  0.06484583068236562  0.2893555397619211  0.8250704416032872  1.0000
  H   H26       1.0  0.43025739051866196  0.16512907745296704  0.7102589394413525  1.0000
  H   H27       1.0  0.032176682599029505  0.13558090525955183  0.5968978174461765  1.0000
  H   H28       1.0  0.0446656874487843  0.20365863588458671  0.6703796621098516  1.0000
  H   H29       1.0  0.12064043320068413  0.4358137791637802  0.10493274810148277  1.0000
  H   H30       1.0  0.2209651510529653  0.40118898167430933  0.15895312246704657  1.0000
  H   H31       1.0  0.34787885680023567  0.09728960472921241  0.4207876216487349  1.0000
  H   H32       1.0  0.2365523994903711  0.15305777334025092  0.3867868292494234  1.0000
  H   H33       1.0  0.6392815636287779  0.5691427070920484  0.8945983085101258  1.0000
  H   H34       1.0  0.7491936121322595  0.6020559948306855  0.8406464037368193  1.0000
  H   H35       1.0  0.8642446839671295  0.9055053593715456  0.5798641307937087  1.0000
  H   H36       1.0  0.759900317192745  0.8494585428643404  0.6145657881327649  1.0000
  H   H37       1.0  0.8942200803541451  0.5616074268517581  0.11057041195328306  1.0000
  H   H38       1.0  0.7850462686135699  0.5961123022313899  0.16424877768145044  1.0000
  H   H39       1.0  0.6225097320842609  0.8977349830882987  0.42504016910828557  1.0000
  H   H40       1.0  0.7371639461771264  0.8431597757909515  0.389115979126373  1.0000
  H   H41       1.0  0.14552266963327304  0.40069462420561314  0.9183360870738891  1.0000
  H   H42       1.0  0.2507530824576633  0.34321542167741376  0.8841485863579377  1.0000
  H   H43       1.0  0.37101958495333776  0.0648753610084256  0.6060625151440673  1.0000
  H   H44       1.0  0.2612235137262502  0.0971356653110576  0.6611677645788558  1.0000
  C   C1        1.0  0.7320759046728399  0.07366156900219072  0.5662357085062835  1.0000
  C   C2        1.0  0.7308228397040253  0.06718353244878023  0.4233848453199938  1.0000
  C   C3        1.0  0.24652688140592718  0.9315709539506261  0.4291204009681022  1.0000
  C   C4        1.0  0.23485545954289222  0.9377491596927287  0.5709840427010346  1.0000
  C   C5        1.0  0.7730923089768353  0.43699701231362564  0.9238179731586268  1.0000
  C   C6        1.0  0.7639287316429276  0.4303440929349591  0.06518312863081377  1.0000
  C   C7        1.0  0.2589409603715112  0.5666973608915526  0.07157443586930867  1.0000
  C   C8        1.0  0.26659914233810156  0.5737038191477098  0.928979720310529  1.0000
  C   C9        1.0  0.7611823067163498  0.390444763641554  0.10888633746191087  1.0000
  C   C10       1.0  0.5848091564584835  0.35989922113358835  0.11858364906377254  1.0000
  C   C11       1.0  0.5680701621618596  0.3210190163688793  0.15821585187993747  1.0000
  C   C12       1.0  0.735129190755913  0.31115401764198947  0.19046280556403153  1.0000
  C   C13       1.0  0.9111540002727948  0.3412788976962348  0.18194968475813764  1.0000
  C   C14       1.0  0.9296283402792298  0.3812003292564157  0.14156989573476145  1.0000
  C   C15       1.0  0.7259537253924507  0.2700400093074436  0.23025271809376585  1.0000
  C   C16       1.0  0.7198189618617475  0.2336528191357772  0.2637019689233638  1.0000
  C   C17       1.0  0.717847386069124  0.1911063075310936  0.3022910448522181  1.0000
  C   C18       1.0  0.5429108317193183  0.1808334024405057  0.3311748976532484  1.0000
  C   C19       1.0  0.5361287985073345  0.13914411818979033  0.37035735350276855  1.0000
  C   C20       1.0  0.7172115183710231  0.10807553036784162  0.38064563762917186  1.0000
  C   C21       1.0  0.8901690908623435  0.11807844210448344  0.3500697309449662  1.0000
  C   C22       1.0  0.8942624599671731  0.15840794469001915  0.31140984427229057  1.0000
  C   C23       1.0  0.27391633936395005  0.614216765678286  0.8857679476434722  1.0000
  C   C24       1.0  0.09941004326456238  0.6459980258820579  0.8747680101321362  1.0000
  C   C25       1.0  0.09301600733950718  0.6853569814348789  0.8352947753039285  1.0000
  C   C26       1.0  0.2689788457205537  0.6942762540836682  0.8047100105883654  1.0000
  C   C27       1.0  0.44371546863508365  0.6630232930302143  0.8146941379653823  1.0000
  C   C28       1.0  0.45208632368560603  0.6227269272241075  0.8550265904336524  1.0000
  C   C29       1.0  0.2678593466087307  0.7355218801197552  0.7649193413190074  1.0000
  C   C30       1.0  0.26331243372188606  0.7719308758758107  0.7314733671343985  1.0000
  C   C31       1.0  0.2536187914230581  0.8141993144324932  0.6927303977144986  1.0000
  C   C32       1.0  0.0769004352167144  0.8221067168263478  0.6651670821254354  1.0000
  C   C33       1.0  0.05898134632668932  0.8636855726712158  0.6262933468252568  1.0000
  C   C34       1.0  0.23015861913733462  0.8970399807374112  0.6141563539569856  1.0000
  C   C35       1.0  0.404766318433417  0.8894479812414747  0.6434687384249426  1.0000
  C   C36       1.0  0.4198673751786116  0.8493414622220644  0.6821468749454451  1.0000
  C   C37       1.0  0.25426595190293705  0.6062095734939137  0.11576423278120267  1.0000
  C   C38       1.0  0.42815829822964696  0.6371962068965332  0.12536685523470936  1.0000
  C   C39       1.0  0.435706670118833  0.6774188639868511  0.1640663295392244  1.0000
  C   C40       1.0  0.2615362071497103  0.6880657790295432  0.1952782933989495  1.0000
  C   C41       1.0  0.08848795410962397  0.6569828420081549  0.18718342126867774  1.0000
  C   C42       1.0  0.079550928267679  0.6156608339293542  0.14787181923875883  1.0000
  C   C43       1.0  0.2609432985641718  0.7306693671387381  0.23385250364894  1.0000
  C   C44       1.0  0.2605167566618505  0.7676970772845169  0.2667728524148173  1.0000
  C   C45       1.0  0.26010103350835573  0.8097172364146633  0.3058789555711171  1.0000
  C   C46       1.0  0.43217950459878557  0.8175230338056142  0.3349067030035186  1.0000
  C   C47       1.0  0.4385376634354188  0.8579012920004915  0.3750841792477713  1.0000
  C   C48       1.0  0.2603364406353279  0.8904942686214246  0.3863969342366857  1.0000
  C   C49       1.0  0.0902250739371979  0.8830118959113876  0.3556895444125771  1.0000
  C   C50       1.0  0.08646497987554373  0.8438615775901612  0.3160155053421788  1.0000
  C   C51       1.0  0.7785945834710829  0.39436284800617477  0.8822699279766011  1.0000
  C   C52       1.0  0.6025931115182671  0.38614037956455866  0.8540809140329696  1.0000
  C   C53       1.0  0.5887666367390665  0.34461164916396575  0.816761380520546  1.0000
  C   C54       1.0  0.7579744981799693  0.30876368323194475  0.8065901363287221  1.0000
  C   C55       1.0  0.9354905269519235  0.3169806554512036  0.833323998459441  1.0000
  C   C56       1.0  0.9521060270078789  0.3598547535984766  0.8710369309681664  1.0000
  C   C57       1.0  0.7486673030822147  0.2654750068901137  0.7688210270119097  1.0000
  C   C58       1.0  0.7396640542418638  0.228969398518835  0.7355845798474403  1.0000
  C   C59       1.0  0.7364855219114688  0.18853596664237673  0.6951416836588178  1.0000
  C   C60       1.0  0.5627021979859778  0.15847781816775353  0.6853496326923574  1.0000
  C   C61       1.0  0.5529304648862237  0.11972981918033554  0.6438604827820594  1.0000
  C   C62       1.0  0.7274460087370188  0.1118736430637597  0.611254584656258  1.0000
  C   C63       1.0  0.9017649995414843  0.14205083603955873  0.6224316677671735  1.0000
  C   C64       1.0  0.9100749534410467  0.17962738317941532  0.6632422494791184  1.0000
  N   N1        1.0  0.10355805720852367  0.4098949111669159  0.13588586339834305  1.0000
  N   N2        1.0  0.361792674100286  0.13178512235565173  0.397618578540566  1.0000
  N   N3        1.0  0.6255299980040974  0.5929194046730473  0.8621265627727792  1.0000
  N   N4        1.0  0.8827828475157629  0.8694349041807499  0.6006629082810944  1.0000
  N   N5        1.0  0.9088135297467232  0.5855191485451173  0.14284494861814775  1.0000
  N   N6        1.0  0.6104051219645115  0.8629525817467966  0.4023340041045883  1.0000
  N   N7        1.0  0.12789141399208862  0.36557149517477694  0.8963146559844685  1.0000
  N   N8        1.0  0.3808734785010799  0.09085438916969223  0.6370709744951737  1.0000
  O   O1        1.0  0.9023229112526464  0.05914821760855202  0.5461566131949096  1.0000
  O   O2        1.0  0.5657765121785586  0.04892316679254802  0.44286953083545183  1.0000
  O   O3        1.0  0.40937366738037184  0.9454503075640589  0.45139174440050295  1.0000
  O   O4        1.0  0.06897729244901997  0.9520555258754373  0.5496232897599496  1.0000
  O   O5        1.0  0.07347974146716041  0.9511326630955282  0.44264376345001455  1.0000
  O   O6        1.0  0.40677037023093027  0.9560681354503373  0.5564766175676892  1.0000
  O   O7        1.0  0.5631813009469582  0.057064996905126016  0.5489103322361115  1.0000
  O   O8        1.0  0.9042420542876286  0.05280838564220151  0.4397391613922038  1.0000
  O   O9        1.0  0.2358734081327043  0.03865137767902382  0.49563476448869875  1.0000
  O   O10       1.0  0.740788612603737  0.9678946077196432  0.4991668821221395  1.0000
  O   O11       1.0  0.9399564533387378  0.45279578942668053  0.9428830674120899  1.0000
  O   O12       1.0  0.5962692679695749  0.44431761418923804  0.04493036934529468  1.0000
  O   O13       1.0  0.42997761127382  0.5512291443866317  0.05272770602319809  1.0000
  O   O14       1.0  0.0956565217363092  0.5584083606334362  0.9469388449656857  1.0000
  O   O15       1.0  0.0898413083729395  0.5507785241730688  0.05377650501468169  1.0000
  O   O16       1.0  0.43430803386554123  0.5560518127552855  0.9470060525688592  1.0000
  O   O17       1.0  0.6013624689500503  0.455388173549956  0.9395528471870234  1.0000
  O   O18       1.0  0.9345453503217057  0.4489700213667761  0.049211336322436176  1.0000
  O   O19       1.0  0.2659417180111632  0.46708534384759304  0.9954217897353171  1.0000
  O   O20       1.0  0.7624203861065909  0.536912147183671  0.9992060406838161  1.0000
