data_image0
_chemical_formula_structural       Zn4H40C56N36
_chemical_formula_sum              "Zn4 H40 C56 N36"
_cell_length_a       6.765462027477206
_cell_length_b       10.593955723
_cell_length_c       20.331
_cell_angle_alpha    90.0
_cell_angle_beta     94.05697723880692
_cell_angle_gamma    90.0

_space_group_name_H-M_alt    "P 1"
_space_group_IT_number       1

loop_
  _space_group_symop_operation_xyz
  'x, y, z'

loop_
  _atom_site_type_symbol
  _atom_site_label
  _atom_site_symmetry_multiplicity
  _atom_site_fract_x
  _atom_site_fract_y
  _atom_site_fract_z
  _atom_site_occupancy
  Zn  Zn1       1.0  0.5775527555512099  0.6579799068695777  0.7827767112406434  1.0000
  Zn  Zn2       1.0  0.9224496774306344  0.1579806489436635  0.21722329685226777  1.0000
  Zn  Zn3       1.0  0.4224488664366816  0.3420195529167245  0.2172236220611126  1.0000
  Zn  Zn4       1.0  0.0775519445572641  0.8420197547771053  0.7827765445897653  1.0000
  H   H1        1.0  0.753013733750265  0.6544137224350024  0.9253680100144945  1.0000
  H   H2        1.0  0.7469901810403669  0.1544154084435547  0.07463449226276708  1.0000
  H   H3        1.0  0.2469878882376335  0.3455847934168332  0.07463330700670669  1.0000
  H   H4        1.0  0.2530173681826682  0.8455868831461615  0.9253674561610906  1.0000
  H   H5        1.0  0.7982474287127204  0.49610647216407944  0.0194224553029159  1.0000
  H   H6        1.0  0.7017535224603435  0.9961123376312955  0.980578009763981  1.0000
  H   H7        1.0  0.2017527114663906  0.503889211884335  0.9805783349728259  1.0000
  H   H8        1.0  0.2982466177187675  0.0038927857618346997  0.019421796792315097  1.0000
  H   H9        1.0  0.6931916313022128  0.2721485793772587  0.995645733193463  1.0000
  H   H10       1.0  0.8068108016796315  0.7721535009100009  0.004352799320287199  1.0000
  H   H11       1.0  0.3068085088768981  0.7278471046711559  0.004353581503117699  1.0000
  H   H12       1.0  0.1931878566906917  0.2278506785486556  0.9956464804905635  1.0000
  H   H13       1.0  0.5456464487985571  0.21528596679410583  0.8843869701505866  1.0000
  H   H14       1.0  0.9543515387569315  0.7152880565234341  0.11561194956568237  1.0000
  H   H15       1.0  0.4543507277629857  0.7847106611887824  0.11561227477452721  1.0000
  H   H16       1.0  0.04564860142217949  0.2847123471973347  0.8843873651308981  1.0000
  H   H17       1.0  0.44438704549450847  0.1804764952763591  0.7869541135102905  1.0000
  H   H18       1.0  0.0556093200730885  0.6804766971367471  0.213046932202829  1.0000
  H   H19       1.0  0.5556086492582466  0.8195239084444097  0.2130465721082544  1.0000
  H   H20       1.0  0.9443878564884541  0.3195237065840217  0.7869542801611686  1.0000
  H   H21       1.0  0.2994617009222438  0.1582808201057091  0.6727045470119322  1.0000
  H   H22       1.0  0.2005331828365655  0.6582800780316234  0.3272959719557349  1.0000
  H   H23       1.0  0.7005339938305113  0.8417195836150667  0.3272961386066128  1.0000
  H   H24       1.0  0.7994625119161896  0.3417203256891526  0.67270471366281  1.0000
  H   H25       1.0  0.251242161258574  0.3544568335175811  0.6014837467668954  1.0000
  H   H26       1.0  0.248754204309023  0.8544560914434953  0.3985163152267787  1.0000
  H   H27       1.0  0.7487564971117563  0.6455426262687212  0.39851651676339367  1.0000
  H   H28       1.0  0.7512400086349516  0.1455433683428069  0.6014833517865837  1.0000
  H   H29       1.0  0.3526971633222047  0.5634826268944977  0.6515015044235639  1.0000
  H   H30       1.0  0.1473036476717482  0.0634824250341097  0.34849866222731407  1.0000
  H   H31       1.0  0.6473059404744816  0.4365177768262782  0.3484978800444836  1.0000
  H   H32       1.0  0.8526950106985822  0.9365179786866661  0.6515016013029751  1.0000
  H   H33       1.0  0.21081841761132838  0.6747309680067062  0.547447119783385  1.0000
  H   H34       1.0  0.2891794297650492  0.1747307661463182  0.45255199337658075  1.0000
  H   H35       1.0  0.7891787589502143  0.3252694357140626  0.45255212514172877  1.0000
  H   H36       1.0  0.7108192286052741  0.8252715254433981  0.5474467945745403  1.0000
  H   H37       1.0  0.7201546239490284  0.41923433664703674  0.5610333544899291  1.0000
  H   H38       1.0  0.7798433636064601  0.9192354824418985  0.4389660570860626  1.0000
  H   H39       1.0  0.2798425526125072  0.5807651231392654  0.4389663822949075  1.0000
  H   H40       1.0  0.2201567765726509  0.0807658652133512  0.5610327657507952  1.0000
  C   C1        1.0  0.7054284082464548  0.5563200521222313  0.9202734979043612  1.0000
  C   C2        1.0  0.794572542926602  0.05632362599973109  0.07972745902226559  1.0000
  C   C3        1.0  0.2945702501238756  0.44367751979512343  0.07972676562592797  1.0000
  C   C4        1.0  0.205427597252509  0.943678665589985  0.9202743149729214  1.0000
  C   C5        1.0  0.7320476212552194  0.4685105478800793  0.9710261013094907  1.0000
  C   C6        1.0  0.767954811726625  0.9685126376094075  0.028974398643143193  1.0000
  C   C7        1.0  0.2679554825414598  0.5314879679717563  0.0289737750182724  1.0000
  C   C8        1.0  0.2320497738788418  0.0314896539803087  0.9710260044300795  1.0000
  C   C9        1.0  0.6730123592718512  0.3444190343441207  0.9576796357147258  1.0000
  C   C10       1.0  0.8269871100924178  0.8444230119423892  0.0423207944664483  1.0000
  C   C11       1.0  0.3269848172896914  0.6555775936387676  0.04232010107011059  1.0000
  C   C12       1.0  0.1730145118954738  0.1555802235818007  0.9576795388353148  1.0000
  C   C13       1.0  0.588292905622886  0.31241399214219  0.8954873860658522  1.0000
  C   C14       1.0  0.9117050819326025  0.8124151379370446  0.10451251736986221  1.0000
  C   C15       1.0  0.4117057527474444  0.6875854676441122  0.10451238560472119  1.0000
  C   C16       1.0  0.08829357643772079  0.1875862097181979  0.8954877461604269  1.0000
  C   C17       1.0  0.5612691588158896  0.4071633026212496  0.8476774009045586  1.0000
  C   C18       1.0  0.9387332741659549  0.9071663362850516  0.15232309904807548  1.0000
  C   C19       1.0  0.438732463172002  0.592835213230579  0.1523234242569202  1.0000
  C   C20       1.0  0.0612698296307244  0.0928368992391313  0.8476767772796947  1.0000
  C   C21       1.0  0.46933329638532223  0.3843729487333434  0.7804020709744535  1.0000
  C   C22       1.0  0.030663069182274693  0.8843722066592576  0.21959897473866619  1.0000
  C   C23       1.0  0.5306668437937887  0.6156283989218991  0.2195982274415655  1.0000
  C   C24       1.0  0.969334107379268  0.11562914099598488  0.7804022376253313  1.0000
  C   C25       1.0  0.4183220289712324  0.2641751648936932  0.7563872001317691  1.0000
  C   C26       1.0  0.0816758184051452  0.7641744228196076  0.2436138804670875  1.0000
  C   C27       1.0  0.5816751475903104  0.735824294892609  0.2436130285127902  1.0000
  C   C28       1.0  0.9183228399651782  0.23582503696669482  0.756387366782647  1.0000
  C   C29       1.0  0.3387533426579594  0.252123953491818  0.6915844243986982  1.0000
  C   C30       1.0  0.1612430229096375  0.7521222674832586  0.3084171131741513  1.0000
  C   C31       1.0  0.6612438339035833  0.7478745623600176  0.30841678796530647  1.0000
  C   C32       1.0  0.8387541536519052  0.2478753044341033  0.6915840991898534  1.0000
  C   C33       1.0  0.3125638541967675  0.3596994455741296  0.6524429412501007  1.0000
  C   C34       1.0  0.1874354749883977  0.859698703500044  0.34755719051504025  1.0000
  C   C35       1.0  0.6874377677911312  0.6403000142121726  0.34755690019193247  1.0000
  C   C36       1.0  0.8125631833819256  0.1403007562862584  0.6524430730152488  1.0000
  C   C37       1.0  0.36698772724206913  0.476266857435121  0.6798001676107147  1.0000
  C   C38       1.0  0.1330116019430889  0.9762670592955088  0.3201994722947035  1.0000
  C   C39       1.0  0.6330124129370418  0.5237326023511812  0.3201991470858587  1.0000
  C   C40       1.0  0.8669885382360221  0.023733344425267  0.6798008261213155  1.0000
  C   C41       1.0  0.9272596287458441  0.6037140580184399  0.6260980331641689  1.0000
  C   C42       1.0  0.5727398406184321  0.103713856158052  0.3739014132975598  1.0000
  C   C43       1.0  0.0727405114332669  0.3962844578333886  0.3739007896726889  1.0000
  C   C44       1.0  0.4272602995606789  0.896286547562724  0.6260988851184663  1.0000
  C   C45       1.0  0.9616301835074949  0.5524640798047997  0.5614028056079476  1.0000
  C   C46       1.0  0.5383678040479936  0.0524629340099452  0.4385970978277668  1.0000
  C   C47       1.0  0.038369956671615996  0.4475363239159691  0.4385960172289103  1.0000
  C   C48       1.0  0.4616323361311174  0.9475365257763569  0.5614032005882521  1.0000
  C   C49       1.0  0.1184454215892643  0.5985214744888907  0.5262708881639853  1.0000
  C   C50       1.0  0.3815539075959009  0.0985231604974501  0.47372875174143997  1.0000
  C   C51       1.0  0.881553236781059  0.4014779852974115  0.4737288835065812  1.0000
  C   C52       1.0  0.6184462325832101  0.9014791310922661  0.5262705629551405  1.0000
  C   C53       1.0  0.8434188877062141  0.4536275330627006  0.5342451958548508  1.0000
  C   C54       1.0  0.6565820634668427  0.9536286788575623  0.46575477735232335  1.0000
  C   C55       1.0  0.1565782888553287  0.5463719267236016  0.4657545409299786  1.0000
  C   C56       1.0  0.3434195585210489  0.0463726687976802  0.5342450640897098  1.0000
  N   N1        1.0  0.6214380045195682  0.5266654067551642  0.8607574056913734  1.0000
  N   N2        1.0  0.8785629466534884  0.026665204894776195  0.1392435512352534  1.0000
  N   N3        1.0  0.3785621356595427  0.4733349969656118  0.13924289272465268  1.0000
  N   N4        1.0  0.1214416389519712  0.9733361427604662  0.8607578355574149  1.0000
  N   N5        1.0  0.4425392299399604  0.4879178406209377  0.7421105519774683  1.0000
  N   N6        1.0  0.0574615810539925  0.9879180424813256  0.25788961467341653  1.0000
  N   N7        1.0  0.5574638738567188  0.5120797312964172  0.2578893243503018  1.0000
  N   N8        1.0  0.9425415227426939  0.012082361239450298  0.7421107535140762  1.0000
  N   N9        1.0  0.8204271426024548  0.6262731479607453  0.7210763941812031  1.0000
  N   N10       1.0  0.6795708449530338  0.1262720021658907  0.27892350925450415  1.0000
  N   N11       1.0  0.179570033959088  0.3737272557600235  0.2789233426036262  1.0000
  N   N12       1.0  0.32043077703485773  0.8737274576204115  0.7210763321875291  1.0000
  N   N13       1.0  0.8025194834390774  0.5532617044334955  0.6678787438232375  1.0000
  N   N14       1.0  0.6974799859251987  0.0532615025731147  0.3321207026384911  1.0000
  N   N15       1.0  0.1974806567400336  0.4467377553527995  0.3321210627330657  1.0000
  N   N16       1.0  0.3025201542539122  0.9467389011476612  0.6678791039178122  1.0000
  N   N17       1.0  0.951189358810332  0.71752046154932  0.7117305091651714  1.0000
  N   N18       1.0  0.5488086287451566  0.2175212036234058  0.2882684105510975  1.0000
  N   N19       1.0  0.048810781368779  0.2824780543025085  0.2882688055314091  1.0000
  N   N20       1.0  0.4511915114339544  0.782480144031844  0.7117304122857604  1.0000
  N   N21       1.0  0.0216388536833136  0.7058005711470514  0.6527355934661399  1.0000
  N   N22       1.0  0.4783619573106392  0.20580036928667056  0.3472630976055697  1.0000
  N   N23       1.0  0.9783612864957973  0.2941988886392508  0.3472632293707179  1.0000
  N   N24       1.0  0.5216381828684717  0.7942009783685791  0.6527362170910038  1.0000
  N   N25       1.0  0.7460877594904716  0.800126055048267  0.8342886194348083  1.0000
  N   N26       1.0  0.7539176371089411  0.3001277410568264  0.1657104747101315  1.0000
  N   N27       1.0  0.2539153443062148  0.19987246080356158  0.165711256892962  1.0000
  N   N28       1.0  0.2460884303053064  0.6998736065984232  0.8342884876696601  1.0000
  N   N29       1.0  0.6744082231470613  0.8994213539436728  0.8489037823214004  1.0000
  N   N30       1.0  0.8255971734523513  0.3994230399522323  0.1510962955429775  1.0000
  N   N31       1.0  0.3255933988408373  0.10057621797368199  0.15109704284007813  1.0000
  N   N32       1.0  0.1744088939618962  0.6005783077030173  0.8489031586965368  1.0000
  N   N33       1.0  0.611538040028833  0.9974168550713712  0.8637543768977238  1.0000
  N   N34       1.0  0.8884643929530114  0.4974204289488711  0.1362461230549101  1.0000
  N   N35       1.0  0.3884635819590585  0.0025807168459906  0.13624694012347757  1.0000
  N   N36       1.0  0.11154019265245549  0.5025828065753188  0.8637542800183126  1.0000
