data_image0
_chemical_formula_structural       Cu2H26C36N6O8
_chemical_formula_sum              "Cu2 H26 C36 N6 O8"
_cell_length_a       7.965280084118513
_cell_length_b       9.927168543031662
_cell_length_c       10.524079468810722
_cell_angle_alpha    105.57478438029136
_cell_angle_beta     94.55956433228377
_cell_angle_gamma    97.82396025796808

_space_group_name_H-M_alt    "P 1"
_space_group_IT_number       1

loop_
  _space_group_symop_operation_xyz
  'x, y, z'

loop_
  _atom_site_type_symbol
  _atom_site_label
  _atom_site_symmetry_multiplicity
  _atom_site_fract_x
  _atom_site_fract_y
  _atom_site_fract_z
  _atom_site_occupancy
  Cu  Cu1       1.0  0.5844136065216144  0.8965657226464212  0.7356803423567158  1.0000
  Cu  Cu2       1.0  0.4155802262887675  0.10341982994284388  0.2643016163528316  1.0000
  H   H1        1.0  0.10886456980798433  0.9596646780125222  0.8653914407031565  1.0000
  H   H2        1.0  0.8911392019721374  0.04032994481696758  0.1346300415085295  1.0000
  H   H3        1.0  0.566197715302678  0.6182518181908775  0.5764504640693957  1.0000
  H   H4        1.0  0.43381631159521566  0.38176303015454477  0.4235255499479109  1.0000
  H   H5        1.0  0.7453656260661032  0.4227234057584822  0.5420376379691803  1.0000
  H   H6        1.0  0.2546302471358429  0.57727999029219  0.45797860673619073  1.0000
  H   H7        1.0  0.051323524780542584  0.48719341254665943  0.651177927556475  1.0000
  H   H8        1.0  0.9486638715117974  0.5127749163827671  0.3488621044600819  1.0000
  H   H9        1.0  0.16334284630716664  0.7341824796337588  0.7840370643895369  1.0000
  H   H10       1.0  0.8366601060114363  0.26581199511117853  0.21599863421202772  1.0000
  H   H11       1.0  0.15617412522050234  0.18794281586144723  0.9464081874001452  1.0000
  H   H12       1.0  0.8438186987105495  0.8120677991702647  0.053576417952683614  1.0000
  H   H13       1.0  0.06809103965902354  0.4201662571890239  0.9469126644105472  1.0000
  H   H14       1.0  0.9318912837648058  0.579826615957458  0.05304315514701592  1.0000
  H   H15       1.0  0.7734308421112457  0.42015096039778393  0.8337554994099392  1.0000
  H   H16       1.0  0.22654486070648258  0.5798458018483003  0.1662154148051727  1.0000
  H   H17       1.0  0.587008910622771  0.18585902447715336  0.7293058192792117  1.0000
  H   H18       1.0  0.41298150213693663  0.8141246737238743  0.270697319896776  1.0000
  H   H19       1.0  0.03845744768980095  0.7475779238857141  0.4336509806010298  1.0000
  H   H20       1.0  0.9615238139604473  0.25241623509949557  0.5663575897104707  1.0000
  H   H21       1.0  0.233070570935581  0.181917821778363  0.6439551864297927  1.0000
  H   H22       1.0  0.7669294021979381  0.8180921499358785  0.356032245220625  1.0000
  H   H23       1.0  0.6332198513558822  0.7357923295033402  0.14981127419410714  1.0000
  H   H24       1.0  0.36677467700315686  0.26423463708873374  0.8502168634445796  1.0000
  H   H25       1.0  0.3807036403216556  0.48197501560294836  0.7691069764539336  1.0000
  H   H26       1.0  0.619335946272507  0.5180436421893546  0.23090025311817902  1.0000
  C   C1        1.0  0.6991891194772322  0.636749374255828  0.6195873589993113  1.0000
  C   C2        1.0  0.3008252494628962  0.3632665478585081  0.380405183586447  1.0000
  C   C3        1.0  0.7985864968449973  0.5307906145427095  0.6008204147034988  1.0000
  C   C4        1.0  0.20142950539291593  0.4692191369246501  0.3991884397032949  1.0000
  C   C5        1.0  0.9676560914468267  0.56680019908854  0.6632049118508476  1.0000
  C   C6        1.0  0.032339212263906306  0.4331927878438862  0.33681121056982727  1.0000
  C   C7        1.0  0.030535286999786096  0.7040760577826504  0.7387769424740328  1.0000
  C   C8        1.0  0.9694637950068167  0.29593389683705595  0.26124291233387  1.0000
  C   C9        1.0  0.9208640495586238  0.8059522238843824  0.7526476541779132  1.0000
  C   C10       1.0  0.07915333466688416  0.1940368091669598  0.24736133835896373  1.0000
  C   C11       1.0  0.9204741998731476  0.067598673611883  0.8342882288071111  1.0000
  C   C12       1.0  0.0795281479801346  0.9323952600784368  0.16570706588149875  1.0000
  C   C13       1.0  0.031045529557445675  0.1944073443717329  0.8999392671242888  1.0000
  C   C14       1.0  0.9689610914980447  0.8055976972896841  0.1000491558073477  1.0000
  C   C15       1.0  0.9800430446452207  0.32199210523013017  0.9001099653373004  1.0000
  C   C16       1.0  0.01994638550663549  0.6780013702410483  0.09986805835730192  1.0000
  C   C17       1.0  0.8189455156869555  0.32251337256909807  0.8370809512047543  1.0000
  C   C18       1.0  0.18102908529303358  0.6774654235658842  0.16290174950437833  1.0000
  C   C19       1.0  0.7143844088304617  0.19359306577408825  0.7784959221529277  1.0000
  C   C20       1.0  0.28558382976294894  0.8063916604837046  0.22148505883283323  1.0000
  C   C21       1.0  0.31203365913066966  0.9147365147993438  0.5900882091889413  1.0000
  C   C22       1.0  0.6879682036450774  0.08526717168574288  0.40991363476850745  1.0000
  C   C23       1.0  0.15161890913676493  0.9598994618687439  0.5438124209997071  1.0000
  C   C24       1.0  0.8483729817281255  0.04008972851324438  0.4561785581176139  1.0000
  C   C25       1.0  0.020035964451643892  0.8578891118054482  0.46226878676515065  1.0000
  C   C26       1.0  0.9799539536972116  0.14211101069540175  0.5377316208571159  1.0000
  C   C27       1.0  0.13030660017882667  0.10258648059222249  0.5812120267051953  1.0000
  C   C28       1.0  0.8696766798768675  0.8974224650400441  0.41878333476049073  1.0000
  C   C29       1.0  0.5291384768827212  0.7510415145726695  0.9061373016089291  1.0000
  C   C30       1.0  0.47087809642599854  0.2489702370346478  0.09387009591355171  1.0000
  C   C31       1.0  0.5081933745874707  0.621678643488316  0.9552084540692576  1.0000
  C   C32       1.0  0.4918126995539111  0.3783401750364986  0.04480067002346996  1.0000
  C   C33       1.0  0.5763224657611444  0.6314939718409319  0.08504120831317862  1.0000
  C   C34       1.0  0.4236869158706611  0.3685196687260301  0.9149827407511637  1.0000
  C   C35       1.0  0.43143329907418604  0.48891410529491713  0.8704230339193373  1.0000
  C   C36       1.0  0.5685797570776643  0.5110991194727531  0.12959275003149878  1.0000
  N   N1        1.0  0.7579574576302761  0.7712629544611075  0.6951437609411641  1.0000
  N   N2        1.0  0.24205154797379438  0.22872994225498638  0.3048484701533027  1.0000
  N   N3        1.0  0.761939489203719  0.06799462260665479  0.7784680762284283  1.0000
  N   N4        1.0  0.23804186376955974  0.9320071915457285  0.22151417756473532  1.0000
  N   N5        1.0  0.9834105302835566  0.9429003824598962  0.8276709424576579  1.0000
  N   N6        1.0  0.0165921513627225  0.057082322942449096  0.1723433565057562  1.0000
  O   O1        1.0  0.38987658869856284  0.9920612776926131  0.7051423662544495  1.0000
  O   O2        1.0  0.6101187381244768  0.007933242024094496  0.29484915237956943  1.0000
  O   O3        1.0  0.3639517241149334  0.8078009272621285  0.5213441212123726  1.0000
  O   O4        1.0  0.6360470776860151  0.19220392952003346  0.4786450531348194  1.0000
  O   O5        1.0  0.4441509693639815  0.7404066258738807  0.7924270950692218  1.0000
  O   O6        1.0  0.5558629887322084  0.25958097092134114  0.2075773030756096  1.0000
  O   O7        1.0  0.6337183515784016  0.859213409698263  0.9702871655720813  1.0000
  O   O8        1.0  0.3663094527863038  0.14078807911965893  0.02970077577475651  1.0000
