data_image0
_chemical_formula_structural       Zn6H80C72O24
_chemical_formula_sum              "Zn6 H80 C72 O24"
_cell_length_a       18.706845174975495
_cell_length_b       18.76597546140336
_cell_length_c       18.882350317172683
_cell_angle_alpha    109.53293404194658
_cell_angle_beta     109.49544913601926
_cell_angle_gamma    109.34040769781717

_space_group_name_H-M_alt    "P 1"
_space_group_IT_number       1

loop_
  _space_group_symop_operation_xyz
  'x, y, z'

loop_
  _atom_site_type_symbol
  _atom_site_label
  _atom_site_symmetry_multiplicity
  _atom_site_fract_x
  _atom_site_fract_y
  _atom_site_fract_z
  _atom_site_occupancy
  Zn  Zn1       1.0  0.5576366884074632  0.9994895914310788  0.059375393615418395  1.0000
  Zn  Zn2       1.0  0.44235882789092057  0.0004964266506987008  0.9406279475695952  1.0000
  Zn  Zn3       1.0  0.9997076889277496  0.44158375888640233  0.940624809630279  1.0000
  Zn  Zn4       1.0  0.00026921824245108617  0.5583872173188809  0.05934855533250521  1.0000
  Zn  Zn5       1.0  0.5596343592330084  0.5595278870708852  0.5013727430116004  1.0000
  Zn  Zn6       1.0  0.4403413087767021  0.4404482933785516  0.49862337190694445  1.0000
  H   H1        1.0  0.4021552023444953  0.60008459974172  0.30327546630529384  1.0000
  H   H2        1.0  0.9007391820464078  0.28138549639773197  0.06862676293928152  1.0000
  H   H3        1.0  0.3050317553199876  0.9045568638074428  0.09590927872743976  1.0000
  H   H4        1.0  0.6949649008218872  0.09543387040933744  0.9040961733988552  1.0000
  H   H5        1.0  0.1938772104767779  0.7980580173777838  0.09306616506548675  1.0000
  H   H6        1.0  0.8061132900678274  0.20193201262909363  0.9069333835053824  1.0000
  H   H7        1.0  0.5933757324963621  0.7932033603742283  0.8977919656382551  1.0000
  H   H8        1.0  0.4066232811413003  0.2067889269729264  0.10221438784014937  1.0000
  H   H9        1.0  0.64021411599537  0.7629929938008926  0.7601204969992065  1.0000
  H   H10       1.0  0.359792499428778  0.23699560302296865  0.2398899700498375  1.0000
  H   H11       1.0  0.5957618531045697  0.6897992590547517  0.7928763171703891  1.0000
  H   H12       1.0  0.5981974478548296  0.40322972697674697  0.700174864996889  1.0000
  H   H13       1.0  0.40423495340193233  0.3101912088813279  0.2071308190780029  1.0000
  H   H14       1.0  0.2937949052716958  0.5993324348153094  0.19573043455330447  1.0000
  H   H15       1.0  0.7067191682603706  0.40365056266958294  0.8071958478181783  1.0000
  H   H16       1.0  0.43945061929941426  0.7165079348244418  0.8364019347938835  1.0000
  H   H17       1.0  0.5605502983613277  0.2834847360914097  0.16360220159965166  1.0000
  H   H18       1.0  0.43070067151269587  0.6035880132913929  0.7257557617925837  1.0000
  H   H19       1.0  0.5692984234690284  0.39640593314622646  0.274245748595689  1.0000
  H   H20       1.0  0.4301305678621928  0.8291987309110807  0.7096148466649833  1.0000
  H   H21       1.0  0.5698701236733825  0.17079055451264943  0.2903865578605931  1.0000
  H   H22       1.0  0.5429484180231229  0.8943497346842121  0.7535972890421189  1.0000
  H   H23       1.0  0.20535244774627864  0.8276790835590048  0.9314080393556733  1.0000
  H   H24       1.0  0.4570514327464323  0.10564616102286101  0.24640941874113054  1.0000
  H   H25       1.0  0.5439613650667352  0.7829115926494836  0.6496585742824974  1.0000
  H   H26       1.0  0.45605232320828293  0.21708857725724326  0.3503556528356099  1.0000
  H   H27       1.0  0.4291684952839034  0.7229923002773474  0.6001760500995771  1.0000
  H   H28       1.0  0.5708468752501831  0.277008476446177  0.3998296825286402  1.0000
  H   H29       1.0  0.3704190151207312  0.7303201860832613  0.7579750430169977  1.0000
  H   H30       1.0  0.6295803801937723  0.26967289972566993  0.24203015793702315  1.0000
  H   H31       1.0  0.36164735439242424  0.6171690207185774  0.647912374534897  1.0000
  H   H32       1.0  0.6383542488461771  0.3828265406360174  0.3520913990060349  1.0000
  H   H33       1.0  0.20682570894455676  0.4263744640163623  0.32780644133455167  1.0000
  H   H34       1.0  0.7946434486430789  0.17230642071538682  0.06859543859116005  1.0000
  H   H35       1.0  0.7921671584957365  0.5699951401593208  0.668996470037072  1.0000
  H   H36       1.0  0.09742955754066429  0.419421391190042  0.2152274132861861  1.0000
  H   H37       1.0  0.9019858518000136  0.5776918990053587  0.7818893538919622  1.0000
  H   H38       1.0  0.25729252520668666  0.637831844966115  0.26767506856902645  1.0000
  H   H39       1.0  0.7408974388428149  0.36222450285482205  0.7340016075014616  1.0000
  H   H40       1.0  0.14080369871687992  0.5328636038778498  0.2770004125862683  1.0000
  H   H41       1.0  0.8571317932103854  0.4638250218505958  0.721623475741822  1.0000
  H   H42       1.0  0.2508528837935983  0.5398325316963548  0.38913957217341966  1.0000
  H   H43       1.0  0.7463479452125911  0.4560325472814456  0.6094690215307849  1.0000
  H   H44       1.0  0.36955134239209286  0.6435496040115537  0.37669476611770125  1.0000
  H   H45       1.0  0.2164368758203424  0.7477719805637123  0.8613295850942818  1.0000
  H   H46       1.0  0.6281101916791484  0.3564655360844711  0.6254861532039228  1.0000
  H   H47       1.0  0.2315596773496722  0.4361787256885492  0.10550940871235773  1.0000
  H   H48       1.0  0.7711965802990477  0.5673568165347617  0.8952684660726999  1.0000
  H   H49       1.0  0.14951749665792846  0.36214843847250927  0.11118042958626959  1.0000
  H   H50       1.0  0.8531369741727701  0.6391336096614566  0.8876512030818303  1.0000
  H   H51       1.0  0.25562864698139254  0.3658821681901969  0.22395182001618946  1.0000
  H   H52       1.0  0.7471153843256175  0.6352053753739426  0.7745873531940929  1.0000
  H   H53       1.0  0.3377792490010094  0.4372709525527013  0.21540026315566502  1.0000
  H   H54       1.0  0.665242002970736  0.5667988489281371  0.7856603798109488  1.0000
  H   H55       1.0  0.3945064284229218  0.757242214793024  0.03750972147517443  1.0000
  H   H56       1.0  0.7835649496116871  0.2522170999856214  0.13867876519584843  1.0000
  H   H57       1.0  0.6054934183819399  0.24275040024112132  0.96250020952359  1.0000
  H   H58       1.0  0.32526427050252954  0.7029251452106494  0.9240270574965306  1.0000
  H   H59       1.0  0.6747329878907921  0.29706518001793103  0.07598448647505036  1.0000
  H   H60       1.0  0.22397392949779507  0.598313035063718  0.9332908552611625  1.0000
  H   H61       1.0  0.7760283454092871  0.4016805199988054  0.06672521501573637  1.0000
  H   H62       1.0  0.2914507546260126  0.6544998160401576  0.04696682037872055  1.0000
  H   H63       1.0  0.7085495424468391  0.3454979296417662  0.953050185963704  1.0000
  H   H64       1.0  0.37887942923023127  0.8703677855397699  0.13713934100834968  1.0000
  H   H65       1.0  0.6211151705415857  0.12962119105253594  0.8628682556884755  1.0000
  H   H66       1.0  0.269436687744772  0.7698674307823695  0.14278643336880467  1.0000
  H   H67       1.0  0.1135753261381042  0.6385612461938736  0.8649076037261735  1.0000
  H   H68       1.0  0.7305500063395417  0.23012314435627712  0.8572162600856004  1.0000
  H   H69       1.0  0.7087042908138274  0.9121967672843995  0.020275531344516703  1.0000
  H   H70       1.0  0.8520177451758428  0.04741715895102055  0.09889482591361796  1.0000
  H   H71       1.0  0.9049686052581336  0.11059986048135051  0.01713887694183549  1.0000
  H   H72       1.0  0.8130611669079857  0.03580152288900969  0.8562909204379352  1.0000
  H   H73       1.0  0.672170301691061  0.8997679639605708  0.7782587590099722  1.0000
  H   H74       1.0  0.2912953306588049  0.08779311839221277  0.9797310231431878  1.0000
  H   H75       1.0  0.1479837009581573  0.9525730915402876  0.9011127429715912  1.0000
  H   H76       1.0  0.09503223145501494  0.8893914794113229  0.9828697802202837  1.0000
  H   H77       1.0  0.18694035419361638  0.9641917232405247  0.14371834083623697  1.0000
  H   H78       1.0  0.8864296955733905  0.3614211368660278  0.13509795626615773  1.0000
  H   H79       1.0  0.327829854201859  0.10022442230088296  0.22174639314613384  1.0000
  H   H80       1.0  0.09925314679369991  0.7185946797805799  0.9313681424665815  1.0000
  C   C1        1.0  0.5053966673768286  0.8841552190992203  0.8814256307602903  1.0000
  C   C2        1.0  0.7586012451179157  0.2218876659361442  0.913201484292827  1.0000
  C   C3        1.0  0.14852780555241182  0.7013951664259819  0.9251607243794308  1.0000
  C   C4        1.0  0.8514703741580617  0.29858955147514615  0.07484131788744706  1.0000
  C   C5        1.0  0.5937766726659603  0.8115494133208898  0.8483620968852889  1.0000
  C   C6        1.0  0.40622378593856473  0.18844408071564087  0.15164481190725346  1.0000
  C   C7        1.0  0.5875458888983829  0.7370013772408939  0.7735348027606717  1.0000
  C   C8        1.0  0.4124528228206117  0.2629904584657652  0.22646914943819488  1.0000
  C   C9        1.0  0.43076485590533753  0.726801166055182  0.7807618847641319  1.0000
  C   C10       1.0  0.569234540598579  0.2731929039556391  0.21924234922523309  1.0000
  C   C11       1.0  0.492391261183883  0.8295201175443623  0.7333290232943381  1.0000
  C   C12       1.0  0.49460318739036774  0.11583737165633316  0.11857647547317632  1.0000
  C   C13       1.0  0.5076114081529681  0.17047156288442264  0.2666728234999808  1.0000
  C   C14       1.0  0.5082829156818531  0.8161418284851221  0.8120719935262455  1.0000
  C   C15       1.0  0.491716710151941  0.1838516659317122  0.18793101542438959  1.0000
  C   C16       1.0  0.3806965373906335  0.8783802554685208  0.9982573277637666  1.0000
  C   C17       1.0  0.6192994307945696  0.12160561990576468  0.001750421144436034  1.0000
  C   C18       1.0  0.49888024721715146  0.6895375752593579  0.689351809451196  1.0000
  C   C19       1.0  0.5011215063860774  0.3104577198145364  0.31065364821183283  1.0000
  C   C20       1.0  0.42513318351848994  0.6521204372766009  0.70762148277619  1.0000
  C   C21       1.0  0.5748671267037508  0.34787496337709456  0.2923821302864979  1.0000
  C   C22       1.0  0.49047646754740987  0.7566080922811338  0.6620482620490405  1.0000
  C   C23       1.0  0.21805418914515678  0.7732980229579381  0.9237282991696245  1.0000
  C   C24       1.0  0.50953547622089  0.24339238769947982  0.3379610745460795  1.0000
  C   C25       1.0  0.31019231446080653  0.5029588471191816  0.31295982610562584  1.0000
  C   C26       1.0  0.6897591291977959  0.4971422286087871  0.6871708039424574  1.0000
  C   C27       1.0  0.1188027714594924  0.4978314944174683  0.11880553425082492  1.0000
  C   C28       1.0  0.8813985221048316  0.5023358405444328  0.8811455587302673  1.0000
  C   C29       1.0  0.12212930689127428  0.6197549318622748  0.002052079587563883  1.0000
  C   C30       1.0  0.8778669739502122  0.38023366734495306  0.997947989584027  1.0000
  C   C31       1.0  0.6196744591122466  0.4979281854850653  0.6177242993103034  1.0000
  C   C32       1.0  0.3802761838886041  0.5021201085132387  0.3823601051604866  1.0000
  C   C33       1.0  0.49847903657365594  0.6189862927361675  0.6192325093004667  1.0000
  C   C34       1.0  0.7819442155010776  0.22668909623342876  0.076277441929868  1.0000
  C   C35       1.0  0.5015119944265578  0.38100295718263055  0.3807688601543119  1.0000
  C   C36       1.0  0.15776820656373045  0.48301102654086486  0.25162119373302955  1.0000
  C   C37       1.0  0.8412470125638692  0.5146773549958041  0.7468078728360082  1.0000
  C   C38       1.0  0.20967431225977853  0.4259623049469852  0.1502664240308319  1.0000
  C   C39       1.0  0.7923908602701958  0.5759005788835339  0.8495842344605717  1.0000
  C   C40       1.0  0.3454827113645819  0.5893977155426455  0.31264430096722134  1.0000
  C   C41       1.0  0.6538480156955656  0.41184291827764935  0.6893690091055402  1.0000
  C   C42       1.0  0.28053355718753886  0.42772422462498116  0.223838988777011  1.0000
  C   C43       1.0  0.7215729709529626  0.5741860127552058  0.7760459707473328  1.0000
  C   C44       1.0  0.23023690031354957  0.4870552820498233  0.3256463500728157  1.0000
  C   C45       1.0  0.30977567276573836  0.8079346736162731  0.997161435759217  1.0000
  C   C46       1.0  0.7684662721517271  0.5102496249714719  0.6727220805811525  1.0000
  C   C47       1.0  0.18863041647353646  0.49723400383503963  0.18865743112049657  1.0000
  C   C48       1.0  0.811674108762354  0.5030688642161111  0.8113133401080931  1.0000
  C   C49       1.0  0.27282679034565405  0.5872365346051466  0.24052299144736358  1.0000
  C   C50       1.0  0.726725764985474  0.41397759782683596  0.7612454217554684  1.0000
  C   C51       1.0  0.3277552759456199  0.7315143748127609  0.9866963576886715  1.0000
  C   C52       1.0  0.672241755133129  0.2684715807218154  0.013313421379606871  1.0000
  C   C53       1.0  0.2594345758825438  0.6624565900108549  0.9918334097529777  1.0000
  C   C54       1.0  0.7405661032965796  0.33753569657569216  0.008180743409241001  1.0000
  C   C55       1.0  0.3134871834563456  0.8473488691395517  0.08548636697431515  1.0000
  C   C56       1.0  0.6902196875844949  0.19205360342854758  0.0028461121396929317  1.0000
  C   C57       1.0  0.6865056646393626  0.1526410979398277  0.9145235193217186  1.0000
  C   C58       1.0  0.6790112020599465  0.8963943479437971  0.8938819821560099  1.0000
  C   C59       1.0  0.7317303421342913  0.9395019244118429  0.98434692031239  1.0000
  C   C60       1.0  0.8122478575849571  0.015754703172710514  0.0285593212126543  1.0000
  C   C61       1.0  0.841930984450542  0.05115099319244352  0.9828953628387324  1.0000
  C   C62       1.0  0.7903656461859258  0.009134997698957481  0.8927921086651621  1.0000
  C   C63       1.0  0.710077704224304  0.9324551487459091  0.8488528877290448  1.0000
  C   C64       1.0  0.3209882710304015  0.10359744434997249  0.10612127660183285  1.0000
  C   C65       1.0  0.2682683687917661  0.060489255160234685  0.015657676529578182  1.0000
  C   C66       1.0  0.18775305690403613  0.9842353432047944  0.9714473937532871  1.0000
  C   C67       1.0  0.19306347049182185  0.6900382651735127  0.002828583376768202  1.0000
  C   C68       1.0  0.15806825693111648  0.9488394062915476  0.01711105488715232  1.0000
  C   C69       1.0  0.20963290958491848  0.9908590969707518  0.1072160502475936  1.0000
  C   C70       1.0  0.2899197898424077  0.06753984996537803  0.15115227405898674  1.0000
  C   C71       1.0  0.8069346302204536  0.3099533476653561  0.997177746385212  1.0000
  C   C72       1.0  0.24139100151928256  0.7781033662660163  0.08680166551481949  1.0000
  O   O1        1.0  0.5520053469962677  0.9065704536433401  0.9603794126693683  1.0000
  O   O2        1.0  0.5469736325046028  0.0889956546697377  0.14506767910557264  1.0000
  O   O3        1.0  0.4596707980615518  0.9055760567686733  0.0525978873437719  1.0000
  O   O4        1.0  0.5403271463390525  0.09441090134149015  0.9474115931193834  1.0000
  O   O5        1.0  0.3572917082822399  0.9063012940830857  0.9463870310419719  1.0000
  O   O6        1.0  0.642710419464919  0.09368856617403046  0.05362339820614883  1.0000
  O   O7        1.0  0.091930471983602  0.4466404717547832  0.039572835200694025  1.0000
  O   O8        1.0  0.9082062301022445  0.5534626017374079  0.9603751707793007  1.0000
  O   O9        1.0  0.09264610937486847  0.5509752913697311  0.14516977625201102  1.0000
  O   O10       1.0  0.9073564510937828  0.4489980893426234  0.8547858383046857  1.0000
  O   O11       1.0  0.09379048940178351  0.5405005858224357  0.9480368607092301  1.0000
  O   O12       1.0  0.4479890306150764  0.09341841812977945  0.039622228943990465  1.0000
  O   O13       1.0  0.9061497927445785  0.45949195078126337  0.05190213973696687  1.0000
  O   O14       1.0  0.0943358768877189  0.6444867190613124  0.05371163128842918  1.0000
  O   O15       1.0  0.9057095697996189  0.35550123751396967  0.9463371971531414  1.0000
  O   O16       1.0  0.6459072327247668  0.5521214043301654  0.5929343284426876  1.0000
  O   O17       1.0  0.3540949374176421  0.4479640089617476  0.4072034051060454  1.0000
  O   O18       1.0  0.5397850985291228  0.4462461947380731  0.5905748778169836  1.0000
  O   O19       1.0  0.4601541038402885  0.5536992266894742  0.4093690606244847  1.0000
  O   O20       1.0  0.5521773066679643  0.6452333948309601  0.5937544186231276  1.0000
  O   O21       1.0  0.44776859153422777  0.354746494898535  0.4061946995559963  1.0000
  O   O22       1.0  0.4460333517412138  0.539443923500258  0.5915514713384623  1.0000
  O   O23       1.0  0.5540034135155237  0.4605536214850615  0.4085088858803656  1.0000
  O   O24       1.0  0.4530237128163108  0.9109943369669651  0.8549331309398834  1.0000
