data_image0
_chemical_formula_structural       Zn16H40C112S8Br8Cl8O52
_chemical_formula_sum              "Zn16 H40 C112 S8 Br8 Cl8 O52"
_cell_length_a       18.556023923799867
_cell_length_b       19.712113486052907
_cell_length_c       32.81047385376009
_cell_angle_alpha    86.0275499267517
_cell_angle_beta     73.59813614108927
_cell_angle_gamma    61.95536482841898

_space_group_name_H-M_alt    "P 1"
_space_group_IT_number       1

loop_
  _space_group_symop_operation_xyz
  'x, y, z'

loop_
  _atom_site_type_symbol
  _atom_site_label
  _atom_site_symmetry_multiplicity
  _atom_site_fract_x
  _atom_site_fract_y
  _atom_site_fract_z
  _atom_site_occupancy
  Zn  Zn1       1.0  0.8728760896039277  0.5543561241626944  0.5184261404334478  1.0000
  Zn  Zn2       1.0  0.037729715441507654  0.4853013887342072  0.4390749400280639  1.0000
  Zn  Zn3       1.0  0.043169997717768666  0.3983357080041969  0.5240482862828768  1.0000
  Zn  Zn4       1.0  0.04623577659850051  0.560991597264511  0.5179851274641152  1.0000
  Zn  Zn5       1.0  0.6255727003136898  0.19279122945091123  0.733212232790784  1.0000
  Zn  Zn6       1.0  0.4639709170748603  0.34947937627384806  0.7251205720173955  1.0000
  Zn  Zn7       1.0  0.4565998826389263  0.26538312519887336  0.8128136143310555  1.0000
  Zn  Zn8       1.0  0.45494699525681176  0.19153590673773374  0.728978123785744  1.0000
  Zn  Zn9       1.0  0.46316119574216696  0.7621041170266736  0.3125286662936587  1.0000
  Zn  Zn10      1.0  0.45267615172588893  0.6922280678158685  0.2319609855574427  1.0000
  Zn  Zn11      1.0  0.6261697170467002  0.6937574904574432  0.22929291078515487  1.0000
  Zn  Zn12      1.0  0.4567697222747074  0.8520803079111513  0.2264534454645855  1.0000
  Zn  Zn13      1.0  0.03621891825645236  0.9004501971274761  0.025159217220604508  1.0000
  Zn  Zn14      1.0  0.05124012488445831  0.05580307497946539  0.0183094590376029  1.0000
  Zn  Zn15      1.0  0.875397958450897  0.05915317630226007  0.019791692769601417  1.0000
  Zn  Zn16      1.0  0.03823469965659165  0.9844779701843008  0.9373156838745516  1.0000
  H   H1        1.0  0.8112464807303469  0.2428005801697281  0.6534510049016262  1.0000
  H   H2        1.0  0.5441198624086001  0.48577822544373805  0.6204318583134166  1.0000
  H   H3        1.0  0.5497062299473473  0.5260236802427297  0.6657399780748179  1.0000
  H   H4        1.0  0.6502896632056976  0.5696307062062329  0.6173832328999324  1.0000
  H   H5        1.0  0.6444665603707379  0.5295920761536336  0.5721774204166721  1.0000
  H   H6        1.0  0.29336669306603363  0.6021457425872682  0.2960902673648107  1.0000
  H   H7        1.0  0.35022186924008736  0.673682543826807  0.4343021250129837  1.0000
  H   H8        1.0  0.2596342364097383  0.7620687460329377  0.4316487630477823  1.0000
  H   H9        1.0  0.16284739720819646  0.7122341061040698  0.47759547427472876  1.0000
  H   H10       1.0  0.2533048818014339  0.6238013563389868  0.48007043847322706  1.0000
  H   H11       1.0  0.8107206222669279  0.6014228739018816  0.29532548484107213  1.0000
  H   H12       1.0  0.5474394064015088  0.7623718185920438  0.43001049329011204  1.0000
  H   H13       1.0  0.5422695505205084  0.6741252065650584  0.43268159140706075  1.0000
  H   H14       1.0  0.6419657719382316  0.6245061441464228  0.47907244012564837  1.0000
  H   H15       1.0  0.6472550251261711  0.7126872444822251  0.4764302274055651  1.0000
  H   H16       1.0  0.30745578268247453  0.4561623271000172  0.6463047630854745  1.0000
  H   H17       1.0  0.3303751228489915  0.17802185269494686  0.6297836958056635  1.0000
  H   H18       1.0  0.2397305353202199  0.21882394980888617  0.675197897250797  1.0000
  H   H19       1.0  0.1438208752289399  0.2713513661156668  0.6268616600985126  1.0000
  H   H20       1.0  0.2344150971010492  0.23052498754687883  0.581543093625818  1.0000
  H   H21       1.0  0.690227913476484  0.14789507603785515  0.9554035982427607  1.0000
  H   H22       1.0  0.9553924960350599  0.07748396055644949  0.8168829791597503  1.0000
  H   H23       1.0  0.9507558855976161  0.9889904422068125  0.8191910867017993  1.0000
  H   H24       1.0  0.8493563424632312  0.039515215891825106  0.7736573520766329  1.0000
  H   H25       1.0  0.8540440387669506  0.12793350083818913  0.7714230229607821  1.0000
  H   H26       1.0  0.19346427923491663  0.05174750367995528  0.8446884031252324  1.0000
  H   H27       1.0  0.16939681225796485  0.2162189386673887  0.975657707474042  1.0000
  H   H28       1.0  0.2604611869060705  0.12793638961521478  0.9778401547414292  1.0000
  H   H29       1.0  0.35574484844354975  0.1746480624163453  0.927408090516721  1.0000
  H   H30       1.0  0.2648433332771488  0.2629695290717393  0.9252708394034244  1.0000
  H   H31       1.0  0.19427283792116173  0.7937246538039059  0.10315023932792398  1.0000
  H   H32       1.0  0.2603287047185461  0.0322476616019642  0.07478440400929996  1.0000
  H   H33       1.0  0.1692396783584158  0.07260487548288809  0.12002986478129428  1.0000
  H   H34       1.0  0.2647482951441233  0.020625262327762094  0.1685396787081501  1.0000
  H   H35       1.0  0.355728452346455  0.980165566721659  0.12334865574593576  1.0000
  H   H36       1.0  0.6886679717135209  0.0069852802142448996  0.0966536456172165  1.0000
  H   H37       1.0  0.9512706004265614  0.7239093189738025  0.0843559924459072  1.0000
  H   H38       1.0  0.9554354337218101  0.764677351184339  0.1299247136375783  1.0000
  H   H39       1.0  0.8553084786655277  0.7202922202597648  0.17762099451719135  1.0000
  H   H40       1.0  0.8511121639808227  0.6793434786028952  0.13221105971421576  1.0000
  C   C1        1.0  0.8619860220855247  0.5682598769688453  0.4306859223481609  1.0000
  C   C2        1.0  0.12404633812073482  0.31612913827546407  0.4386879275922055  1.0000
  C   C3        1.0  0.86469999250582  0.42785850515522833  0.568431083977579  1.0000
  C   C4        1.0  0.13920862172447107  0.43307773165331287  0.5683942019953108  1.0000
  C   C5        1.0  0.8733711751467228  0.6837355445929914  0.5603633367992132  1.0000
  C   C6        1.0  0.13741548935327347  0.5694938619220195  0.4307876470862908  1.0000
  C   C7        1.0  0.6391259988329098  0.318314057770273  0.6814797857272836  1.0000
  C   C8        1.0  0.37687567678301565  0.4347310225487033  0.8102267882200493  1.0000
  C   C9        1.0  0.6345731996486988  0.18238356095027086  0.8209089180621376  1.0000
  C   C10       1.0  0.36098288268363643  0.18083068067945618  0.8176162858791327  1.0000
  C   C11       1.0  0.6264303630732754  0.06574344860027279  0.6888876844031485  1.0000
  C   C12       1.0  0.3634623992894461  0.3182325578737348  0.6804084428191216  1.0000
  C   C13       1.0  0.36291085643757287  0.6806058525413402  0.31992753917482014  1.0000
  C   C14       1.0  0.622554169817754  0.5663245093971908  0.1887077257019101  1.0000
  C   C15       1.0  0.6386315401608942  0.6805120132385267  0.3184292294883021  1.0000
  C   C16       1.0  0.6353366375338185  0.8206902848323024  0.18039436242895585  1.0000
  C   C17       1.0  0.37621527704810415  0.9325261315240494  0.312346299476701  1.0000
  C   C18       1.0  0.3606992609415587  0.8182684194380839  0.18155079995901247  1.0000
  C   C19       1.0  0.13871246611352486  0.9311981766483013  0.0687478464195621  1.0000
  C   C20       1.0  0.8805929919135451  0.18375937322961278  0.06109634525145682  1.0000
  C   C21       1.0  0.8610267387412662  0.9321413966742895  0.06924203920989673  1.0000
  C   C22       1.0  0.8622546786229249  0.06901707050572979  0.931275725478926  1.0000
  C   C23       1.0  0.12170995644262941  0.8152931805916876  0.9399903617701924  1.0000
  C   C24       1.0  0.13886132686536  0.06803511552480757  0.930719690610772  1.0000
  C   C25       1.0  0.7350974068870642  0.8040022052113824  0.6008768837689189  1.0000
  C   C26       1.0  0.7644753282725466  0.9451160440375115  0.6487465281767584  1.0000
  C   C27       1.0  0.8227687819546293  0.7584555206832915  0.5855868863439823  1.0000
  C   C28       1.0  0.6767954031601778  0.9908512157962831  0.6639325537591105  1.0000
  C   C29       1.0  0.7858253411083284  0.8771158793053286  0.6256733996435102  1.0000
  C   C30       1.0  0.713664989927274  0.8721643460302457  0.6238510347965658  1.0000
  C   C31       1.0  0.20205285183694602  0.22662793671817374  0.36911296666102084  1.0000
  C   C32       1.0  0.2979423416451041  0.0223298929712428  0.3819028249499041  1.0000
  C   C33       1.0  0.17324057960351524  0.24204954027961628  0.4131280235591888  1.0000
  C   C34       1.0  0.32696732667915285  0.006701022417345799  0.3379176240518689  1.0000
  C   C35       1.0  0.2524046301560645  0.10243092013164558  0.3933329370453649  1.0000
  C   C36       1.0  0.24759554660793984  0.14647403735857978  0.3577111555623631  1.0000
  C   C37       1.0  0.6961609529176942  0.3461219810966296  0.6528942555465916  1.0000
  C   C38       1.0  0.8105447501432651  0.39711334571583007  0.5972722802721009  1.0000
  C   C39       1.0  0.6661357321535492  0.4181061416489199  0.6363121541432405  1.0000
  C   C40       1.0  0.8406999481098577  0.3236749564419199  0.6144823192858483  1.0000
  C   C41       1.0  0.7218456768486163  0.44195584506415736  0.6095797270610532  1.0000
  C   C42       1.0  0.7849900278544341  0.29957004901287115  0.641239742934097  1.0000
  C   C43       1.0  0.5873136178726102  0.49220672331475857  0.6349859442939021  1.0000
  C   C44       1.0  0.6502110635462871  0.5195187110591701  0.6047266962675693  1.0000
  C   C45       1.0  0.3057794478873251  0.6526500585605102  0.3481428642459292  1.0000
  C   C46       1.0  0.19417520666283403  0.5966200540549094  0.4011836139426208  1.0000
  C   C47       1.0  0.27984024116831574  0.6643094649278963  0.3923864427768677  1.0000
  C   C48       1.0  0.22080684301941048  0.5850922102482626  0.3558644947189221  1.0000
  C   C49       1.0  0.22611249624360866  0.6369930945087104  0.4175703366211678  1.0000
  C   C50       1.0  0.27476800157693776  0.6123746353393568  0.330571689739557  1.0000
  C   C51       1.0  0.28608454859362825  0.6990673491281497  0.43016718424627237  1.0000
  C   C52       1.0  0.22540369068963184  0.6679554745103856  0.458851199493246  1.0000
  C   C53       1.0  0.6951728604129744  0.6524113520941554  0.3468979629388897  1.0000
  C   C54       1.0  0.8083882017667179  0.5959320941761702  0.4007311644150419  1.0000
  C   C55       1.0  0.6644867917933368  0.6641851484572141  0.3911612415727106  1.0000
  C   C56       1.0  0.8393502286956219  0.5843562251207854  0.35543243884372094  1.0000
  C   C57       1.0  0.7196956891504414  0.6366704300140994  0.41669750559162816  1.0000
  C   C58       1.0  0.7840335172479911  0.6118656475414068  0.3297767493878324  1.0000
  C   C59       1.0  0.585290067477331  0.6993669130029969  0.4286737735404458  1.0000
  C   C60       1.0  0.6476757025129205  0.66829729135803  0.457743569271848  1.0000
  C   C61       1.0  0.306081870109587  0.3472742157356592  0.6523698399824339  1.0000
  C   C62       1.0  0.19579006381381717  0.4070498357638782  0.5969800913226777  1.0000
  C   C63       1.0  0.27262710455729433  0.3048814457712154  0.6396682801287596  1.0000
  C   C64       1.0  0.2299521976013069  0.4501656198127719  0.6103158423760817  1.0000
  C   C65       1.0  0.2196543828497682  0.33422468621665036  0.612975914546233  1.0000
  C   C66       1.0  0.2830851057041458  0.42084379545939743  0.6370149617717756  1.0000
  C   C67       1.0  0.2691341040667723  0.22945334627917185  0.6430196483702842  1.0000
  C   C68       1.0  0.20910897362788466  0.26237057218150267  0.6127974850479275  1.0000
  C   C69       1.0  0.29789470063551  0.584101996161017  0.8207621276164474  1.0000
  C   C70       1.0  0.2016011205815006  0.6659303270194596  0.9295149424522933  1.0000
  C   C71       1.0  0.32740330232867637  0.5100760871548572  0.8346915756013971  1.0000
  C   C72       1.0  0.17177623217603635  0.7399509276877719  0.9155825215385603  1.0000
  C   C73       1.0  0.24752146137555567  0.6090470507110765  0.8949964109411822  1.0000
  C   C74       1.0  0.2519047137110705  0.6409582209168007  0.8552920156334878  1.0000
  C   C75       1.0  0.8048409444863154  0.09732706000602319  0.9031964844248249  1.0000
  C   C76       1.0  0.6891771628326424  0.15478623537053685  0.8504772018646561  1.0000
  C   C77       1.0  0.8341707222716509  0.08625012715317126  0.8589116575363889  1.0000
  C   C78       1.0  0.6596940337350929  0.16560874215057447  0.8957876684549787  1.0000
  C   C79       1.0  0.7778886855233367  0.11426300117788908  0.8338935817055527  1.0000
  C   C80       1.0  0.7160112860781283  0.1377981955322909  0.9209124212776844  1.0000
  C   C81       1.0  0.9126019136242077  0.05199204050762059  0.8209715673391357  1.0000
  C   C82       1.0  0.8491351508928346  0.0835902129062589  0.7924982549266628  1.0000
  C   C83       1.0  0.19482748155076735  0.09696161891908156  0.9021644362889987  1.0000
  C   C84       1.0  0.30401731976400737  0.1513065173744508  0.8447580558277465  1.0000
  C   C85       1.0  0.2274597813995385  0.13794827555736325  0.9170868986251719  1.0000
  C   C86       1.0  0.2701428409837732  0.1095691511101862  0.8297587718861548  1.0000
  C   C87       1.0  0.27992325513569943  0.1638209121417304  0.8891390404435809  1.0000
  C   C88       1.0  0.21756272488521233  0.08356747476241817  0.8577268217275174  1.0000
  C   C89       1.0  0.2307293174006305  0.1708476849010694  0.9564963662394845  1.0000
  C   C90       1.0  0.2904020308441347  0.20011818610957724  0.9249393104615677  1.0000
  C   C91       1.0  0.6435543007265424  0.446623883565877  0.14876450805222413  1.0000
  C   C92       1.0  0.860639631906416  0.303274697715203  0.1009241841761863  1.0000
  C   C93       1.0  0.6716488029257093  0.49155910516363116  0.16370159098097758  1.0000
  C   C94       1.0  0.8322535400314948  0.25850922145136923  0.08605769198518226  1.0000
  C   C95       1.0  0.7919969101827035  0.371940200049103  0.12383604689090791  1.0000
  C   C96       1.0  0.712452632681412  0.37803276501384886  0.12594857598679707  1.0000
  C   C97       1.0  0.19538091015345344  0.9026811885605212  0.09707066730251059  1.0000
  C   C98       1.0  0.3045615170856168  0.8439344321507247  0.15284815571595084  1.0000
  C   C99       1.0  0.228063623799635  0.9456222899204786  0.1099595358462579  1.0000
  C   C100      1.0  0.2711027521934356  0.8002499645412653  0.1394024531114084  1.0000
  C   C101      1.0  0.28055226705326  0.9167174470998345  0.1368504376645845  1.0000
  C   C102      1.0  0.21838182479991286  0.8292278393638738  0.1124945542668101  1.0000
  C   C103      1.0  0.23079107370717372  0.021414814995864596  0.10686752098042969  1.0000
  C   C104      1.0  0.2905146451650185  0.9888295881892969  0.13724058211941068  1.0000
  C   C105      1.0  0.8039554939538011  0.903711349824277  0.09715668771836757  1.0000
  C   C106      1.0  0.6895800455800443  0.8516804229089131  0.1518683971868172  1.0000
  C   C107      1.0  0.8339783526899541  0.8314564817339942  0.11345669872174818  1.0000
  C   C108      1.0  0.6594050106118842  0.9253987317907784  0.13493993505155538  1.0000
  C   C109      1.0  0.7783446448051169  0.8070898589761767  0.13977891457182773  1.0000
  C   C110      1.0  0.715085232890985  0.9500044879835201  0.10860245047025782  1.0000
  C   C111      1.0  0.9129389606208849  0.7576975662091737  0.11506827602954672  1.0000
  C   C112      1.0  0.8502118038189154  0.7298919189250977  0.1449491637191755  1.0000
  S   S1        1.0  0.8792820370103842  0.7989884293264921  0.599349469591843  1.0000
  S   S2        1.0  0.6202227845422715  0.9504749090244361  0.6500352429166227  1.0000
  S   S3        1.0  0.20163519668741975  0.15860378125674396  0.4406015872057409  1.0000
  S   S4        1.0  0.2984992491112449  0.0901929956093852  0.31046750239269727  1.0000
  S   S5        1.0  0.2990452240058447  0.5100165421634485  0.890140477903408  1.0000
  S   S6        1.0  0.20005916466356435  0.7399734985608075  0.8601225067511605  1.0000
  S   S7        1.0  0.7825330694340238  0.4499326058507193  0.14968024530722357  1.0000
  S   S8        1.0  0.7214017236765712  0.30038341298037335  0.10015463993777735  1.0000
  Br  Br1       1.0  0.6503922751503525  0.7829874049088443  0.5936856905352457  1.0000
  Br  Br2       1.0  0.8492930436811151  0.9658265968253015  0.6559465728006728  1.0000
  Br  Br3       1.0  0.18649974371186331  0.2982173528763851  0.32738489408409777  1.0000
  Br  Br4       1.0  0.3132488835665229  0.9508466263869335  0.4237958483879112  1.0000
  Br  Br5       1.0  0.31317259951337234  0.6117007172320752  0.7641884113177467  1.0000
  Br  Br6       1.0  0.18669344665966758  0.6383390876926711  0.9860640397976964  1.0000
  Br  Br7       1.0  0.5305864887485326  0.468478097382551  0.15583300817761636  1.0000
  Br  Br8       1.0  0.9740760664460169  0.2808664473679626  0.09327355286653469  1.0000
  Cl  Cl1       1.0  0.9478039426065835  0.2577755773006558  0.6039731722292032  1.0000
  Cl  Cl2       1.0  0.1891044151276804  0.5375283552850048  0.3280500444585712  1.0000
  Cl  Cl3       1.0  0.9465284619998328  0.5357870649369685  0.3280531910844857  1.0000
  Cl  Cl4       1.0  0.20936596366243537  0.5419283272164461  0.5949229750320342  1.0000
  Cl  Cl5       1.0  0.5527572146925979  0.2138994306452915  0.9237743444989945  1.0000
  Cl  Cl6       1.0  0.2900734918045558  0.08758978150741827  0.776175405177014  1.0000
  Cl  Cl7       1.0  0.2918347257775126  0.7085483828128359  0.15479169747634103  1.0000
  Cl  Cl8       1.0  0.5522725464696311  0.9910634979221696  0.14523452081342472  1.0000
  O   O1        1.0  0.9982097029233543  0.5005366182638724  0.5013873636475736  1.0000
  O   O2        1.0  0.8219407224815214  0.5822553892186163  0.47048797136744  1.0000
  O   O3        1.0  0.10172431769720457  0.37670080760194924  0.41845466811241033  1.0000
  O   O4        1.0  0.9450499479208291  0.38682464220695306  0.5589395149884524  1.0000
  O   O5        1.0  0.9422818199923597  0.5332331384976354  0.41483760859370733  1.0000
  O   O6        1.0  0.824186679661331  0.49452508368388226  0.5555943142542786  1.0000
  O   O7        1.0  0.10818014888794644  0.31263044733229606  0.4791985959375396  1.0000
  O   O8        1.0  0.11704775691313789  0.38437704175232296  0.55989527672088  1.0000
  O   O9        1.0  0.9542461630885128  0.657521141568523  0.5505118819894577  1.0000
  O   O10       1.0  0.11759824798215138  0.4998050063889605  0.5547569252031792  1.0000
  O   O11       1.0  0.8333676908400635  0.6524789473856032  0.5507764967752066  1.0000
  O   O12       1.0  0.11296749525799749  0.5298842451190993  0.4148457443578479  1.0000
  O   O13       1.0  0.11795380296368323  0.5884578415694504  0.4705032191665167  1.0000
  O   O14       1.0  0.5004985785436135  0.2496344160884475  0.7502258242555583  1.0000
  O   O15       1.0  0.6742967285616146  0.25227509283466526  0.6956886518528194  1.0000
  O   O16       1.0  0.39944425242034515  0.43462192961201396  0.7698067329721923  1.0000
  O   O17       1.0  0.5541783860360142  0.21808321896928357  0.8366017360431428  1.0000
  O   O18       1.0  0.559274380694639  0.363778061492411  0.6892486778793483  1.0000
  O   O19       1.0  0.6749294317113412  0.16705122959209714  0.7811617374587598  1.0000
  O   O20       1.0  0.3924783537567649  0.3758619075590842  0.8323358380059958  1.0000
  O   O21       1.0  0.3814617690981734  0.21963040409001874  0.8376042186450405  1.0000
  O   O22       1.0  0.5455055505149531  0.09438184428920239  0.6967793523659722  1.0000
  O   O23       1.0  0.3849345972172529  0.16561983138682015  0.7775705647792179  1.0000
  O   O24       1.0  0.6664255522952159  0.09518860652002559  0.7003047595193125  1.0000
  O   O25       1.0  0.3893514974058122  0.36310909869031593  0.6897747984922447  1.0000
  O   O26       1.0  0.3819343704190958  0.2504937701612562  0.6925492272975831  1.0000
  O   O27       1.0  0.5010873749379032  0.7505570459906604  0.2500499753040515  1.0000
  O   O28       1.0  0.38872566915442536  0.7162343222698054  0.33843047541989785  1.0000
  O   O29       1.0  0.5418225206374175  0.5952363625238631  0.19970826874614292  1.0000
  O   O30       1.0  0.6739811832183311  0.6679554308636424  0.2783257075469834  1.0000
  O   O31       1.0  0.3811347209261414  0.6667412129288833  0.2798696388726825  1.0000
  O   O32       1.0  0.5588151647502928  0.7150528897890706  0.3372231799060329  1.0000
  O   O33       1.0  0.6662107786983285  0.5953389680409841  0.19711994653128787  1.0000
  O   O34       1.0  0.6755944601638081  0.7526580653536424  0.191835679602562  1.0000
  O   O35       1.0  0.3924193300959974  0.9364804331197116  0.2718636389398057  1.0000
  O   O36       1.0  0.555069248085559  0.8628455694650298  0.1911109982898579  1.0000
  O   O37       1.0  0.3980141328433931  0.8717518413361489  0.33244860903528206  1.0000
  O   O38       1.0  0.382714471219714  0.7512566338362062  0.19478068524288264  1.0000
  O   O39       1.0  0.3823320013483809  0.8670226138874851  0.19059369610133106  1.0000
  O   O40       1.0  0.00022575665825999986  0.00018572252555060006  0.9998302659588914  1.0000
  O   O41       1.0  0.11071654371050269  0.8872927761151103  0.060450451036246  1.0000
  O   O42       1.0  0.9614430252755  0.15310005735410928  0.050645551684482384  1.0000
  O   O43       1.0  0.8259731335841921  0.9994556577393463  0.05635826779713685  1.0000
  O   O44       1.0  0.12293957452387645  0.9977052452177017  0.05528052728189437  1.0000
  O   O45       1.0  0.9408451677803741  0.8860430088702101  0.060667279849368975  1.0000
  O   O46       1.0  0.8358611263565551  0.15640311197796555  0.052206389791336995  1.0000
  O   O47       1.0  0.8271316058913812  0.08468457070137698  0.9712872876003189  1.0000
  O   O48       1.0  0.10312693930319511  0.8741752791602547  0.9178004300460642  1.0000
  O   O49       1.0  0.9419874076858292  0.0314069250059035  0.9125924289087523  1.0000
  O   O50       1.0  0.1014935588809041  0.8154740440346585  0.9804281236352921  1.0000
  O   O51       1.0  0.12253111481813056  0.08218831626700758  0.9706238021908362  1.0000
  O   O52       1.0  0.11221972944950662  0.031952227904511694  0.9131800983234867  1.0000
