data_image0
_chemical_formula_structural       Co4H12C28N4O16
_chemical_formula_sum              "Co4 H12 C28 N4 O16"
_cell_length_a       6.668356480191262
_cell_length_b       8.347892730003851
_cell_length_c       12.813152890372036
_cell_angle_alpha    90.00008177876481
_cell_angle_beta     90.0008681198761
_cell_angle_gamma    89.99994043352908

_space_group_name_H-M_alt    "P 1"
_space_group_IT_number       1

loop_
  _space_group_symop_operation_xyz
  'x, y, z'

loop_
  _atom_site_type_symbol
  _atom_site_label
  _atom_site_symmetry_multiplicity
  _atom_site_fract_x
  _atom_site_fract_y
  _atom_site_fract_z
  _atom_site_occupancy
  Co  Co1       1.0  0.9441162365262415  0.6801046641465972  0.4800311157574981  1.0000
  Co  Co2       1.0  0.0558824215714395  0.3198960356670852  0.9800284941249089  1.0000
  Co  Co3       1.0  0.555878483944447  0.18010558054648837  0.4800238675405523  1.0000
  Co  Co4       1.0  0.44411417557281396  0.8198927234485182  0.980028718284707  1.0000
  H   H1        1.0  0.1441290136615336  0.7248178637295412  0.27675952104326024  1.0000
  H   H2        1.0  0.855874209614761  0.2751812418507951  0.7767537809553174  1.0000
  H   H3        1.0  0.3558876787312286  0.2248353129229201  0.27674916961888124  1.0000
  H   H4        1.0  0.6441200432509859  0.7751721779954649  0.7767539865772617  1.0000
  H   H5        1.0  0.47496796417033244  0.5227379029053337  0.18573394185310826  1.0000
  H   H6        1.0  0.5250371016975137  0.47727420218919997  0.6857390754594448  1.0000
  H   H7        1.0  0.0250343498560923  0.02272926051709589  0.18573269455186642  1.0000
  H   H8        1.0  0.9749707158686078  0.9772588864247139  0.6857293964758282  1.0000
  H   H9        1.0  0.576719822940177  0.5770032338125758  0.3698295744499872  1.0000
  H   H10       1.0  0.42328161769906103  0.4229876678876963  0.8698330711435956  1.0000
  H   H11       1.0  0.9232838187482812  0.0769966714191952  0.3698259968170561  1.0000
  H   H12       1.0  0.0767191213253824  0.9229990218967218  0.8698241616163287  1.0000
  C   C1        1.0  0.9980902539484547  0.6778607421115977  0.2537115424560881  1.0000
  C   C2        1.0  0.0019062982827691  0.32214191225912703  0.7537092789966878  1.0000
  C   C3        1.0  0.5019203591176762  0.17787248247012133  0.2537030892754046  1.0000
  C   C4        1.0  0.49809118914161127  0.8221301718832451  0.753706025515825  1.0000
  C   C5        1.0  0.9572151083849292  0.6451817504448699  0.14898616474377488  1.0000
  C   C6        1.0  0.042776887998393  0.3548206997427527  0.6489834760924396  1.0000
  C   C7        1.0  0.5427909933609315  0.14517668769526887  0.1489819353190569  1.0000
  C   C8        1.0  0.45721299992863607  0.854819772948275  0.6489838033210801  1.0000
  C   C9        1.0  0.7660762201857522  0.5854026428545039  0.12314084540756198  1.0000
  C   C10       1.0  0.23391502195334374  0.4146093402000374  0.6231389415994782  1.0000
  C   C11       1.0  0.7339277089633641  0.0853998243417209  0.12313421731938937  1.0000
  C   C12       1.0  0.2660770296441227  0.9145905963712336  0.6231369848012206  1.0000
  C   C13       1.0  0.6249691662334769  0.5671957866845502  0.20309640178162164  1.0000
  C   C14       1.0  0.3750244092755253  0.4328079669101186  0.7030948463352187  1.0000
  C   C15       1.0  0.8750356214150654  0.0671892625497392  0.20308932281013625  1.0000
  C   C16       1.0  0.12496845128104889  0.9328037098661851  0.7030909990699357  1.0000
  C   C17       1.0  0.6797847456389832  0.5987738939650454  0.30553356011687777  1.0000
  C   C18       1.0  0.32020882016044544  0.4012276635441764  0.8055377844541168  1.0000
  C   C19       1.0  0.8202169901064024  0.09876980912086707  0.3055322935150286  1.0000
  C   C20       1.0  0.17978707291185708  0.9012245609332011  0.805530466165159  1.0000
  C   C21       1.0  0.1150468763127748  0.677731537637527  0.06841253572648749  1.0000
  C   C22       1.0  0.8849607640576308  0.32227554707333894  0.5684062925885982  1.0000
  C   C23       1.0  0.384957801510545  0.17772740145080226  0.0684078761530813  1.0000
  C   C24       1.0  0.6150378419211009  0.8222665062874411  0.5684117325560577  1.0000
  C   C25       1.0  0.7046532615881489  0.5309612785735637  0.015939794476089696  1.0000
  C   C26       1.0  0.2953543471840945  0.46904690174464037  0.5159407714505306  1.0000
  C   C27       1.0  0.7953476131727726  0.0309536197262759  0.015935210449981696  1.0000
  C   C28       1.0  0.2046494981268765  0.969032998258342  0.5159352095997675  1.0000
  N   N1        1.0  0.8649101518054252  0.6510924377410205  0.33060074525897676  1.0000
  N   N2        1.0  0.1350796466489541  0.34889838747736224  0.8306026788441727  1.0000
  N   N3        1.0  0.6350922442573365  0.15109808295683547  0.3305956810412667  1.0000
  N   N4        1.0  0.364908051311751  0.8489047213139642  0.8305929145966785  1.0000
  O   O1        1.0  0.12713978627726874  0.5923599855569959  0.9876882320367314  1.0000
  O   O2        1.0  0.8728620944672442  0.40766109360279756  0.4876829878749546  1.0000
  O   O3        1.0  0.372848346090727  0.092346275709005  0.9876826968170248  1.0000
  O   O4        1.0  0.6271460365470604  0.9076352725170622  0.4876861817006598  1.0000
  O   O5        1.0  0.2319634330901508  0.7979810183214296  0.08716176080137218  1.0000
  O   O6        1.0  0.7680492531895027  0.20201891549257306  0.5871474498053288  1.0000
  O   O7        1.0  0.268043127861894  0.2979805685655704  0.08715071838302178  1.0000
  O   O8        1.0  0.7319605606422998  0.7020181673410875  0.5871545899474951  1.0000
  O   O9        1.0  0.7822472803947278  0.4017104088542567  0.9819216384475025  1.0000
  O   O10       1.0  0.21775293253422495  0.5983034716261884  0.48192236397137117  1.0000
  O   O11       1.0  0.7177497884654755  0.9017084740454067  0.981913838338208  1.0000
  O   O12       1.0  0.2822474249837583  0.09828983362714891  0.48191299420404476  1.0000
  O   O13       1.0  0.5655488548595429  0.6008182136613768  0.9670486711234785  1.0000
  O   O14       1.0  0.43443742747150793  0.3991788671278158  0.46705011525956047  1.0000
  O   O15       1.0  0.934449688912366  0.10081882985475232  0.967045961798078  1.0000
  O   O16       1.0  0.0655350937694976  0.8991878341903429  0.4670512636879423  1.0000
