data_image0
_chemical_formula_structural       Hg4H36C36I8N12O8
_chemical_formula_sum              "Hg4 H36 C36 I8 N12 O8"
_cell_length_a       7.013242145657991
_cell_length_b       11.173857766694676
_cell_length_c       18.76146302714448
_cell_angle_alpha    107.32704201820825
_cell_angle_beta     95.69068376483699
_cell_angle_gamma    89.9694966676785

_space_group_name_H-M_alt    "P 1"
_space_group_IT_number       1

loop_
  _space_group_symop_operation_xyz
  'x, y, z'

loop_
  _atom_site_type_symbol
  _atom_site_label
  _atom_site_symmetry_multiplicity
  _atom_site_fract_x
  _atom_site_fract_y
  _atom_site_fract_z
  _atom_site_occupancy
  Hg  Hg1       1.0  0.9655489129124746  0.5769215633475897  0.4003993818248474  1.0000
  Hg  Hg2       1.0  0.5346594051468685  0.17684957501929696  0.5995307739608575  1.0000
  Hg  Hg3       1.0  0.0344584904815122  0.4230752834873926  0.5996023295559849  1.0000
  Hg  Hg4       1.0  0.46533943592475413  0.8231482029880937  0.40046972641903966  1.0000
  H   H1        1.0  0.08800319452637949  0.43452626629928665  0.0936806482896984  1.0000
  H   H2        1.0  0.41228591163653033  0.340673696929926  0.9062998814478715  1.0000
  H   H3        1.0  0.9119985124696937  0.565471513040471  0.9063199558903603  1.0000
  H   H4        1.0  0.5877117028938911  0.6593287672804422  0.09370033610750989  1.0000
  H   H5        1.0  0.6772466295948689  0.433352395168143  0.09890320068411285  1.0000
  H   H6        1.0  0.8230456694695789  0.334564628374423  0.9011251478267394  1.0000
  H   H7        1.0  0.3227522896702553  0.5666472559336813  0.9010965672643179  1.0000
  H   H8        1.0  0.1769519059640956  0.6654368992887358  0.09887543594437892  1.0000
  H   H9        1.0  0.7506354644491181  0.4591359345890779  0.22715794321355529  1.0000
  H   H10       1.0  0.7499584195747031  0.23238880888879979  0.7728126785905685  1.0000
  H   H11       1.0  0.24936631344894514  0.5408637150897208  0.7728408617655516  1.0000
  H   H12       1.0  0.2500361580612277  0.767609902289564  0.22718676648862862  1.0000
  H   H13       1.0  0.5135558328434796  0.16543766132269871  0.008924281324930013  1.0000
  H   H14       1.0  0.9867535728599888  0.1565097787571119  0.9910222551984373  1.0000
  H   H15       1.0  0.4864473816625647  0.8345619903999763  0.9910751089389929  1.0000
  H   H16       1.0  0.013245556471922304  0.8434945605915729  0.008977815210300822  1.0000
  H   H17       1.0  0.5257256434994274  0.0867348349385466  0.07922338391400527  1.0000
  H   H18       1.0  0.974567216038238  0.007526410256318198  0.9207042195265697  1.0000
  H   H19       1.0  0.47427900396884565  0.913264817450312  0.9207760582499983  1.0000
  H   H20       1.0  0.02543187419691861  0.9924769925451502  0.07929621709789814  1.0000
  H   H21       1.0  0.7264965256332941  0.1772486814040093  0.07226758228546967  1.0000
  H   H22       1.0  0.7738162605427943  0.1051625001058838  0.9276735565334558  1.0000
  H   H23       1.0  0.2735068171002765  0.8227537840934007  0.9277323094854776  1.0000
  H   H24       1.0  0.22618139308438154  0.8948409006517011  0.0723262948062029  1.0000
  H   H25       1.0  0.4026629582441571  0.12659332571572432  0.20111139982607534  1.0000
  H   H26       1.0  0.09751166912630539  0.9254304165442732  0.7987875322908022  1.0000
  H   H27       1.0  0.5973359719582375  0.8734063295191917  0.7988899682765759  1.0000
  H   H28       1.0  0.9024887685860603  0.0745711110735527  0.20121262189572775  1.0000
  H   H29       1.0  0.7318545614093422  0.32554523307516103  0.4096472114730786  1.0000
  H   H30       1.0  0.7682010609179171  0.9162486894674302  0.5903173322783457  1.0000
  H   H31       1.0  0.268150086058931  0.6744544193136974  0.5903522306909251  1.0000
  H   H32       1.0  0.2318049694785529  0.0837500229073029  0.4096809278472405  1.0000
  H   H33       1.0  0.5149860661662302  0.1451472264978761  0.3354608215822025  1.0000
  H   H34       1.0  0.985020857961679  0.8097746061394061  0.6644440366524831  1.0000
  H   H35       1.0  0.4850156872181087  0.8548514921444905  0.6645404831516044  1.0000
  H   H36       1.0  0.014980969970402203  0.19022598421969414  0.3355560022651147  1.0000
  C   C1        1.0  0.6934351137635275  0.3868575673748823  0.24819432143903694  1.0000
  C   C2        1.0  0.8070874126827261  0.1390223185592205  0.7517661986632829  1.0000
  C   C3        1.0  0.306563848244103  0.6131430216518512  0.7518056136784066  1.0000
  C   C4        1.0  0.1929100308776625  0.8609763939515036  0.24823335021606846  1.0000
  C   C5        1.0  0.27240030358929346  0.28952111948226644  0.11369860147041778  1.0000
  C   C6        1.0  0.22793735323418218  0.17576854027610983  0.8863246002353332  1.0000
  C   C7        1.0  0.727598537482322  0.7104766585251241  0.8863018989094797  1.0000
  C   C8        1.0  0.7720589101732783  0.8242357977402012  0.11367536637325061  1.0000
  C   C9        1.0  0.38730361798526036  0.46834931087573767  0.0955650189585597  1.0000
  C   C10       1.0  0.1130005237717953  0.3727563316032345  0.9044371297484869  1.0000
  C   C11       1.0  0.6126982135925798  0.5316512808610626  0.9044355533437736  1.0000
  C   C12       1.0  0.8869983381677854  0.6272423760628882  0.09556033749197469  1.0000
  C   C13       1.0  0.5691707301804597  0.1717787857839497  0.06668726631978217  1.0000
  C   C14       1.0  0.9311278715158693  0.1051472083136602  0.9332537641027511  1.0000
  C   C15       1.0  0.4308339209335656  0.8282208679826083  0.9333127092289569  1.0000
  C   C16       1.0  0.06886978575705878  0.8948561938216172  0.06674662062163607  1.0000
  C   C17       1.0  0.49551622670421835  0.28776531623528007  0.12267126972568579  1.0000
  C   C18       1.0  0.0048440997433800955  0.16515985326447688  0.8773109879490233  1.0000
  C   C19       1.0  0.5044841682656411  0.7122352734576369  0.8773287172918313  1.0000
  C   C20       1.0  0.9951520427280652  0.8348416737324981  0.1226895439220144  1.0000
  C   C21       1.0  0.5013499963903171  0.20237777019593758  0.23437765122593385  1.0000
  C   C22       1.0  0.9988715938689694  0.9680702775331582  0.7655343246945916  1.0000
  C   C23       1.0  0.4986488837780526  0.7976209443586697  0.7656224829382337  1.0000
  C   C24       1.0  0.0011244240207090998  0.03192843706677451  0.2344662390541642  1.0000
  C   C25       1.0  0.5651251166263191  0.2926658316952597  0.2032387991241577  1.0000
  C   C26       1.0  0.935352412837517  0.08960178086762481  0.7967015873553291  1.0000
  C   C27       1.0  0.4348738172218346  0.707333824917349  0.7967631023632433  1.0000
  C   C28       1.0  0.0646464636851007  0.9103969323092826  0.20329801342409579  1.0000
  C   C29       1.0  0.6844960926604955  0.31260850400792617  0.3505216623663258  1.0000
  C   C30       1.0  0.8157319778923194  0.9624208992368821  0.6494266783567395  1.0000
  C   C31       1.0  0.31550564614081367  0.6873902091236561  0.6494775088285109  1.0000
  C   C32       1.0  0.18426984274825026  0.037579688366825806  0.3505722937913801  1.0000
  C   C33       1.0  0.5615748720682916  0.21288515719686535  0.3089591321450555  1.0000
  C   C34       1.0  0.9385841497177408  0.9040788099974862  0.6909456432674687  1.0000
  C   C35       1.0  0.43842539831979366  0.7871126200990162  0.6910408867501798  1.0000
  C   C36       1.0  0.061411825429424  0.0959189666775373  0.3090547533122815  1.0000
  I   I1        1.0  0.7585012344276265  0.6258189212987801  0.5182778942723798  1.0000
  I   I2        1.0  0.7412663884054355  0.10718669118055864  0.4815624529437199  1.0000
  I   I3        1.0  0.24150051166519396  0.3741797945881942  0.48172234369194183  1.0000
  I   I4        1.0  0.25873100876668786  0.8928110820275564  0.518436395381883  1.0000
  I   I5        1.0  0.2536769224636686  0.5518069123185825  0.3115538564163244  1.0000
  I   I6        1.0  0.2465503382029937  0.2401429470828802  0.6884288293003136  1.0000
  I   I7        1.0  0.746321643924105  0.44818523125086074  0.6884429740258253  1.0000
  I   I8        1.0  0.7534646047540149  0.7598614188815846  0.311579279395623  1.0000
  N   N1        1.0  0.2252722409604715  0.39980993427872147  0.09912159031438961  1.0000
  N   N2        1.0  0.2750500262421767  0.30058597564895007  0.9008939461949408  1.0000
  N   N3        1.0  0.7747266892419231  0.6001897209561875  0.9008797777882688  1.0000
  N   N4        1.0  0.7249461052919982  0.699415547214933  0.09910498552187622  1.0000
  N   N5        1.0  0.5431648645123203  0.40367737125609443  0.10653711667653448  1.0000
  N   N6        1.0  0.9571617404667945  0.29721839121858556  0.8934689482806488  1.0000
  N   N7        1.0  0.4568327109213541  0.5963241564070643  0.8934634670945767  1.0000
  N   N8        1.0  0.04283581673809071  0.7027831295560818  0.1065289685667707  1.0000
  N   N9        1.0  0.7514315340085743  0.3961315033171149  0.31993127584490816  1.0000
  N   N10       1.0  0.7489635020181351  0.07660650266355161  0.6800396167928537  1.0000
  N   N11       1.0  0.24856876818475368  0.6038672077705841  0.6800673100651122  1.0000
  N   N12       1.0  0.2510368465634584  0.9233931477267561  0.31995966967091494  1.0000
  O   O1        1.0  0.16050680399107622  0.2086347837008589  0.11824746043195228  1.0000
  O   O2        1.0  0.3398499119056381  0.09023851420492691  0.881768054508974  1.0000
  O   O3        1.0  0.8394948847762079  0.7913629887504144  0.8817504768244006  1.0000
  O   O4        1.0  0.6601476562365176  0.9097630107028393  0.11823146249265902  1.0000
  O   O5        1.0  0.382378435888377  0.5729314946729644  0.0835531900174757  1.0000
  O   O6        1.0  0.11779925389267729  0.48937209015318933  0.9165002710984421  1.0000
  O   O7        1.0  0.6176207726436187  0.42707379637759857  0.9164523814076728  1.0000
  O   O8        1.0  0.8821968276074654  0.5106284920303852  0.0834974266798838  1.0000
