data_image0
_chemical_formula_structural       Mn2H22C32N4O12
_chemical_formula_sum              "Mn2 H22 C32 N4 O12"
_cell_length_a       8.64806874628728
_cell_length_b       8.713679160514168
_cell_length_c       10.217709153308371
_cell_angle_alpha    105.43757751631125
_cell_angle_beta     94.86752494939206
_cell_angle_gamma    103.02042098185534

_space_group_name_H-M_alt    "P 1"
_space_group_IT_number       1

loop_
  _space_group_symop_operation_xyz
  'x, y, z'

loop_
  _atom_site_type_symbol
  _atom_site_label
  _atom_site_symmetry_multiplicity
  _atom_site_fract_x
  _atom_site_fract_y
  _atom_site_fract_z
  _atom_site_occupancy
  Mn  Mn1       1.0  0.5223574372592026  0.23994492553999444  0.4112833180530799  1.0000
  Mn  Mn2       1.0  0.47764512224451044  0.7600581794892634  0.5887158236576865  1.0000
  H   H1        1.0  0.12621077374490852  0.10141587224325119  0.3215308526404499  1.0000
  H   H2        1.0  0.8737879817986569  0.8985860385150845  0.6784696891145927  1.0000
  H   H3        1.0  0.026602982372814735  0.6267603739217903  0.39085638726785976  1.0000
  H   H4        1.0  0.9734015713305625  0.37324149083640623  0.6091436131899925  1.0000
  H   H5        1.0  0.6382832256300193  0.8459195543793784  0.3228755168239274  1.0000
  H   H6        1.0  0.3617192175830581  0.15407862125027805  0.6771235059291882  1.0000
  H   H7        1.0  0.8541455802979885  0.35418799703374054  0.3322198583668694  1.0000
  H   H8        1.0  0.14585370465902517  0.6458114340152862  0.6677791978553315  1.0000
  H   H9        1.0  0.6911783440019692  0.499621179947951  0.6946152049710292  1.0000
  H   H10       1.0  0.3088186128422309  0.500378281397694  0.3053856356835211  1.0000
  H   H11       1.0  0.6362245358747175  0.9703719620395576  0.8960345023791304  1.0000
  H   H12       1.0  0.3637739078779276  0.0296287090029281  0.10396476277165329  1.0000
  H   H13       1.0  0.8529369985053422  0.8855776227225788  0.06689703230674836  1.0000
  H   H14       1.0  0.1470587998130028  0.11442184633602179  0.9331037206180567  1.0000
  H   H15       1.0  0.11243945503707667  0.7654594910300148  0.9563964444109557  1.0000
  H   H16       1.0  0.8875598354504889  0.2345399325836581  0.04360163186532866  1.0000
  H   H17       1.0  0.6188889165933061  0.2684629551696888  0.005776747319153179  1.0000
  H   H18       1.0  0.3811111985069644  0.7315352507565933  0.9942240598663118  1.0000
  H   H19       1.0  0.6089482738672984  0.2798787176486854  0.8343652794356798  1.0000
  H   H20       1.0  0.39104888953830413  0.7201170391425151  0.16563475897362415  1.0000
  H   H21       1.0  0.5860053743196403  0.4466931344721203  0.9674255113478267  1.0000
  H   H22       1.0  0.41399441239803997  0.5533038540443728  0.03257695907114311  1.0000
  C   C1        1.0  0.26991737044115643  0.878240540360693  0.38615861532852586  1.0000
  C   C2        1.0  0.730079798495005  0.1217552089951539  0.6138404431348548  1.0000
  C   C3        1.0  0.09291840679991036  0.8623814738322081  0.3534325464023594  1.0000
  C   C4        1.0  0.907082972055733  0.1376216686514198  0.6465704273623487  1.0000
  C   C5        1.0  0.03918990196120837  0.9922661511854329  0.3264862225817211  1.0000
  C   C6        1.0  0.9608105415216529  0.0077332721506380014  0.6735129213702322  1.0000
  C   C7        1.0  0.9818951402561993  0.7241270917775112  0.3653446601952267  1.0000
  C   C8        1.0  0.018109090595139328  0.27587354813554305  0.634656023550221  1.0000
  C   C9        1.0  0.8745116961861684  0.9835959104142445  0.3113795700953687  1.0000
  C   C10       1.0  0.12548905355706097  0.016404760073029902  0.6886218304067526  1.0000
  C   C11       1.0  0.8185094982055503  0.7185692717513987  0.3561299645827063  1.0000
  C   C12       1.0  0.1814935796504926  0.2814313684392573  0.6438696514870728  1.0000
  C   C13       1.0  0.7648216152070689  0.8472853233394557  0.3270504887884512  1.0000
  C   C14       1.0  0.2351799923321991  0.15271408484830573  0.6729477629473236  1.0000
  C   C15       1.0  0.8097468179723534  0.1214525091692309  0.2932457521032745  1.0000
  C   C16       1.0  0.1902547785058033  0.8785469138892309  0.7067544595243476  1.0000
  C   C17       1.0  0.7003140543444886  0.5884726201055274  0.39262278480531165  1.0000
  C   C18       1.0  0.29968471779073985  0.4115292683467402  0.6073748171119675  1.0000
  C   C19       1.0  0.7027395091875802  0.6168048178282604  0.770955787292685  1.0000
  C   C20       1.0  0.2972586006519152  0.38319464323978286  0.22904612103753408  1.0000
  C   C21       1.0  0.6807413483292921  0.8611436166744042  0.8798547821759328  1.0000
  C   C22       1.0  0.3192570843622421  0.1388570692387887  0.12014644286669807  1.0000
  C   C23       1.0  0.787868230777562  0.8226355041384679  0.9644980464609032  1.0000
  C   C24       1.0  0.21212756201023097  0.17736397235548645  0.03550368640982528  1.0000
  C   C25       1.0  0.8992016117927693  0.578393034748409  0.946916484802621  1.0000
  C   C26       1.0  0.10079799048572376  0.42160762858111417  0.05308286807791517  1.0000
  C   C27       1.0  0.06455652396290655  0.6491324628654597  0.9773862093674026  1.0000
  C   C28       1.0  0.9354442423719931  0.3508681853157469  0.02261225129696237  1.0000
  C   C29       1.0  0.8298176080095845  0.427151592498788  0.9693707604703619  1.0000
  C   C30       1.0  0.17018200533001965  0.5728490559600274  0.030626632518334383  1.0000
  C   C31       1.0  0.6517872960011388  0.3513372524941545  0.9427207687757075  1.0000
  C   C32       1.0  0.3482128190991318  0.6486609534321275  0.057280038409757546  1.0000
  N   N1        1.0  0.6291622957123124  0.7325330236851642  0.7593676181599631  1.0000
  N   N2        1.0  0.37083581965773504  0.26746642994752534  0.2406333102243394  1.0000
  N   N3        1.0  0.8001073436514974  0.6667954949577678  0.8948911234449496  1.0000
  N   N4        1.0  0.19988961319270265  0.33320396638788446  0.10510971720960068  1.0000
  O   O1        1.0  0.3689187318169332  0.0004810224722290989  0.3702630015893007  1.0000
  O   O2        1.0  0.6310811822524799  0.9995208805731439  0.629737627895487  1.0000
  O   O3        1.0  0.30743125802605686  0.7654140495298734  0.4304210903424631  1.0000
  O   O4        1.0  0.6925739413813902  0.23459026491860874  0.5695775435402126  1.0000
  O   O5        1.0  0.9175004747137339  0.2654589196871981  0.31897799002399546  1.0000
  O   O6        1.0  0.08250028609060683  0.7345417359293691  0.6810214505862859  1.0000
  O   O7        1.0  0.6629174110539964  0.10324563009521631  0.2613043942717468  1.0000
  O   O8        1.0  0.33708133342845775  0.8967562955338267  0.7386981073751427  1.0000
  O   O9        1.0  0.728599669917003  0.44862618261038284  0.38480484942052573  1.0000
  O   O10       1.0  0.2714025002190397  0.5513707012559407  0.6151860371068876  1.0000
  O   O11       1.0  0.5743552594959881  0.6240101454720417  0.4315925403917404  1.0000
  O   O12       1.0  0.4256457244614254  0.37598678328401297  0.5684031581355313  1.0000
