data_image0
_chemical_formula_structural       Re8Ag4H20C40N24O28
_chemical_formula_sum              "Re8 Ag4 H20 C40 N24 O28"
_cell_length_a       9.114547679715004
_cell_length_b       14.73262259106762
_cell_length_c       17.788516257083195
_cell_angle_alpha    89.99884339085528
_cell_angle_beta     97.77902929287687
_cell_angle_gamma    90.00164862537977

_space_group_name_H-M_alt    "P 1"
_space_group_IT_number       1

loop_
  _space_group_symop_operation_xyz
  'x, y, z'

loop_
  _atom_site_type_symbol
  _atom_site_label
  _atom_site_symmetry_multiplicity
  _atom_site_fract_x
  _atom_site_fract_y
  _atom_site_fract_z
  _atom_site_occupancy
  Re  Re1       1.0  0.003920689346479395  0.023390945344189604  0.23074410587727112  1.0000
  Re  Re2       1.0  0.4960727328969909  0.5233886415430575  0.26925398074119766  1.0000
  Re  Re3       1.0  0.9960640984833945  0.9766139415168169  0.7692544098952327  1.0000
  Re  Re4       1.0  0.5039531329888761  0.47662031829245427  0.7307431443098482  1.0000
  Re  Re5       1.0  0.369587920921525  0.9917391720015373  0.16632934332179874  1.0000
  Re  Re6       1.0  0.130406583991082  0.4917208949709105  0.3336719445810347  1.0000
  Re  Re7       1.0  0.6303924649804101  0.0082507819908528  0.8336677152331478  1.0000
  Re  Re8       1.0  0.8696069373951331  0.5082744893705994  0.6663309933523751  1.0000
  Ag  Ag1       1.0  0.4398595358056099  0.3101108613637821  0.4042495741414955  1.0000
  Ag  Ag2       1.0  0.0601505466917871  0.8101212762079656  0.09574985833759805  1.0000
  Ag  Ag3       1.0  0.5601573621039931  0.6898824867340282  0.5957513703792545  1.0000
  Ag  Ag4       1.0  0.9398497839289991  0.18989039845434516  0.9042481463456871  1.0000
  H   H1        1.0  0.25743462722351756  0.08472423572604268  0.9866447334741157  1.0000
  H   H2        1.0  0.24255312305663068  0.5847228730388708  0.5133448700946917  1.0000
  H   H3        1.0  0.7425589910625234  0.9152731847681466  0.013355574662277506  1.0000
  H   H4        1.0  0.7574607000870444  0.4152867655338285  0.48664572206204354  1.0000
  H   H5        1.0  0.8477698579485562  0.12501363859250597  0.06656338545169403  1.0000
  H   H6        1.0  0.6522299042738454  0.6250176278869828  0.43342794651119504  1.0000
  H   H7        1.0  0.1522160371486407  0.8749919270430695  0.9334352140631598  1.0000
  H   H8        1.0  0.3477871308780038  0.3749859017656049  0.5665673862668046  1.0000
  H   H9        1.0  0.5269767860238019  0.17793046970329132  0.2629494046115185  1.0000
  H   H10       1.0  0.9730117087794952  0.6779278474284283  0.23705083907210434  1.0000
  H   H11       1.0  0.4730225739284819  0.8220608420450831  0.7370429047970506  1.0000
  H   H12       1.0  0.026980788624676698  0.3220729668790342  0.7629499464603459  1.0000
  H   H13       1.0  0.11902420880382178  0.20573692443011987  0.3474544213511664  1.0000
  H   H14       1.0  0.3809804331775196  0.7057292598166782  0.15253966400742774  1.0000
  H   H15       1.0  0.8809926756813339  0.7942693202106242  0.6525470842458392  1.0000
  H   H16       1.0  0.6190231507191727  0.2942837723694964  0.8474613977432246  1.0000
  H   H17       1.0  0.20787765951479287  0.8880477922223947  0.25111029646594574  1.0000
  H   H18       1.0  0.292129874389282  0.38803303986397714  0.24890277092796262  1.0000
  H   H19       1.0  0.7920981331682172  0.1119523431397056  0.7488931610339551  1.0000
  H   H20       1.0  0.7078992721624431  0.6119765987432474  0.7510962888610211  1.0000
  C   C1        1.0  0.8548988610822265  0.9392874970332343  0.18886654933940872  1.0000
  C   C2        1.0  0.6450838206597425  0.43929241635439814  0.3111478355561914  1.0000
  C   C3        1.0  0.1450868010175554  0.06071535342341151  0.8111415900353196  1.0000
  C   C4        1.0  0.3549266121705088  0.5607151858605233  0.6888453112089936  1.0000
  C   C5        1.0  0.983751718226003  0.9831005820962134  0.33195819585609604  1.0000
  C   C6        1.0  0.5162510192566144  0.48309102418195254  0.16803839330707865  1.0000
  C   C7        1.0  0.016234204334260493  0.0169076986160945  0.6680392813054257  1.0000
  C   C8        1.0  0.48375825158489494  0.5169199718258001  0.8319569143554663  1.0000
  C   C9        1.0  0.8566007849572017  0.1129167115950693  0.24078644233150479  1.0000
  C   C10       1.0  0.6433960222263977  0.6129179123783358  0.259213871261693  1.0000
  C   C11       1.0  0.14339082448939422  0.8870868178757193  0.7592052807610447  1.0000
  C   C12       1.0  0.35661410921197506  0.38709240474979373  0.740791621160618  1.0000
  C   C13       1.0  0.515026835402999  0.945834583802231  0.24556466005600447  1.0000
  C   C14       1.0  0.984942254476259  0.44582243116860104  0.25442721965652043  1.0000
  C   C15       1.0  0.48493705131210857  0.05415469134700151  0.7544266529598506  1.0000
  C   C16       1.0  0.015080083839315295  0.5541736319885829  0.745578071750508  1.0000
  C   C17       1.0  0.4025554746320381  0.888780931826382  0.10480338097742964  1.0000
  C   C18       1.0  0.09743539959121249  0.38875381637920725  0.39521178697007303  1.0000
  C   C19       1.0  0.5974268654902845  0.11121173711724448  0.895204507227611  1.0000
  C   C20       1.0  0.902576003103263  0.6112368166319798  0.6047870553328141  1.0000
  C   C21       1.0  0.520226777086812  0.0508020016568551  0.11986573051176926  1.0000
  C   C22       1.0  0.9797784122304876  0.5507906560101504  0.38013685693059085  1.0000
  C   C23       1.0  0.4797458441830642  0.949180485843641  0.8801313030329116  1.0000
  C   C24       1.0  0.02024380253050139  0.4491945468332971  0.6198734850568643  1.0000
  C   C25       1.0  0.16954035316141614  0.0854171212588284  0.02207351397248661  1.0000
  C   C26       1.0  0.33045142184730747  0.5853940146447415  0.4779188745921845  1.0000
  C   C27       1.0  0.8304509959124289  0.9145850505509542  0.9779288713045777  1.0000
  C   C28       1.0  0.6695579720954542  0.41460679993769395  0.5220713826381598  1.0000
  C   C29       1.0  0.9616593542746797  0.10652579162979241  0.06263482641099931  1.0000
  C   C30       1.0  0.5383362758309859  0.606527672876723  0.4373570759641795  1.0000
  C   C31       1.0  0.03832856352511267  0.8934811314595309  0.9373717969279982  1.0000
  C   C32       1.0  0.4616752917004163  0.3934819656579479  0.5626350321995874  1.0000
  C   C33       1.0  0.41327230989484326  0.16858545091152885  0.2733142493975721  1.0000
  C   C34       1.0  0.0867237451400555  0.668574207326472  0.22669388610100336  1.0000
  C   C35       1.0  0.5867256964121239  0.8314173997235983  0.7266880771904243  1.0000
  C   C36       1.0  0.9132732223379207  0.3314245707392801  0.7733055509330315  1.0000
  C   C37       1.0  0.20611648628416654  0.18245707982356407  0.31621455517817054  1.0000
  C   C38       1.0  0.29387375605322325  0.6824539172254019  0.1837833425051799  1.0000
  C   C39       1.0  0.7938859489604866  0.8175423770178584  0.6837881064222773  1.0000
  C   C40       1.0  0.7061198624667995  0.3175543635212038  0.8162169655547162  1.0000
  N   N1        1.0  0.0495382241142934  0.0656872634377308  0.11834525175056144  1.0000
  N   N2        1.0  0.45046258393769284  0.5656692542480429  0.381651535475257  1.0000
  N   N3        1.0  0.9504454016244708  0.9343162658556781  0.8816554249527758  1.0000
  N   N4        1.0  0.5495566655733272  0.4343274877643708  0.618343964844833  1.0000
  N   N5        1.0  0.18339728368260919  0.05197225795227921  0.09238759109291553  1.0000
  N   N6        1.0  0.3165929961070831  0.5519804489973481  0.4076075131179949  1.0000
  N   N7        1.0  0.8165851113951135  0.9480271986763572  0.9076180523958972  1.0000
  N   N8        1.0  0.6834229593867533  0.4480319046151635  0.5923866135165031  1.0000
  N   N9        1.0  0.0323761086870462  0.12002167126106401  0.0013255700883973997  1.0000
  N   N10       1.0  0.46762049347640294  0.6200283251784952  0.4986660208040307  1.0000
  N   N11       1.0  0.9676163476979981  0.8799832156206122  0.9986768989166781  1.0000
  N   N12       1.0  0.5323977037226867  0.3799745257443661  0.5013271510574742  1.0000
  N   N13       1.0  0.19090747491677718  0.11343451361519641  0.2674748571488693  1.0000
  N   N14       1.0  0.3090896487252479  0.6134182397023269  0.23252925613367392  1.0000
  N   N15       1.0  0.8090873741034272  0.886570373372642  0.732520484178146  1.0000
  N   N16       1.0  0.690917119658053  0.3865832534239004  0.7674776686107025  1.0000
  N   N17       1.0  0.32400458792121617  0.10443558390004168  0.24001634937816632  1.0000
  N   N18       1.0  0.17598122639754624  0.6044298763429979  0.2599808803046529  1.0000
  N   N19       1.0  0.6759857907180943  0.895557085248214  0.7599803405476707  1.0000
  N   N20       1.0  0.8240223710113314  0.39557433189489905  0.740019620341059  1.0000
  N   N21       1.0  0.3436854302079482  0.2189466446626369  0.3215408915272492  1.0000
  N   N22       1.0  0.15632185848834013  0.7189411761264991  0.17845878687194275  1.0000
  N   N23       1.0  0.6563193975695042  0.7810480609245118  0.6784546424286123  1.0000
  N   N24       1.0  0.8436860857322231  0.2810637108714645  0.8215454157601416  1.0000
  O   O1        1.0  0.7682826118536712  0.8864974244005525  0.1600204778039186  1.0000
  O   O2        1.0  0.7316966879724873  0.3865011513019638  0.3399945671022167  1.0000
  O   O3        1.0  0.2317008768037069  0.11350338976161817  0.8399858105895679  1.0000
  O   O4        1.0  0.2682902729780707  0.6134908390064454  0.6600057997567179  1.0000
  O   O5        1.0  0.9730375302258238  0.9589404423881477  0.39356499139626794  1.0000
  O   O6        1.0  0.5269662434326392  0.45891761046879515  0.10643771741332134  1.0000
  O   O7        1.0  0.026956074825875493  0.04107869860405341  0.6064358777542227  1.0000
  O   O8        1.0  0.47303199607647173  0.5410974580661332  0.8935550692478603  1.0000
  O   O9        1.0  0.7679314174707841  0.16905112473065023  0.24832680200831458  1.0000
  O   O10       1.0  0.7320766253901498  0.6690533949247522  0.25167507418870383  1.0000
  O   O11       1.0  0.23204795716758753  0.8309422231295187  0.7516662446058648  1.0000
  O   O12       1.0  0.2679422680953111  0.3309542071629252  0.7483350163995512  1.0000
  O   O13       1.0  0.5982447433652638  0.9199567617847109  0.29694386028202774  1.0000
  O   O14       1.0  0.9017128826544579  0.4199497926296233  0.20306334293632494  1.0000
  O   O15       1.0  0.40169661463171735  0.08003251299788158  0.7030614904699634  1.0000
  O   O16       1.0  0.09831391174016349  0.5800306589635155  0.7969411612350119  1.0000
  O   O17       1.0  0.42807230654799605  0.8253685748658838  0.06864461288536462  1.0000
  O   O18       1.0  0.07193910135102038  0.3253415033663387  0.43137264598921393  1.0000
  O   O19       1.0  0.5719157069484737  0.17462816678450113  0.9313580823556439  1.0000
  O   O20       1.0  0.9280999413493802  0.6746396271233693  0.5686299735603414  1.0000
  O   O21       1.0  0.6129730560318123  0.08482360506799581  0.08936109561966535  1.0000
  O   O22       1.0  0.8870434273769662  0.5848078552210011  0.41064737792509504  1.0000
  O   O23       1.0  0.3870162559790913  0.9151466648213074  0.9106338272155202  1.0000
  O   O24       1.0  0.11297297667989879  0.415159020766268  0.5893737687978345  1.0000
  O   O25       1.0  0.18391066294597638  0.934678563532742  0.21310585992012684  1.0000
  O   O26       1.0  0.3160824908710468  0.43467418886103104  0.2868963155479421  1.0000
  O   O27       1.0  0.8160651298101415  0.06532496565823462  0.7868975975558715  1.0000
  O   O28       1.0  0.6839455758764219  0.5653374860483568  0.7131015381453525  1.0000
