data_image0
_chemical_formula_structural       Cd6H24C24N20
_chemical_formula_sum              "Cd6 H24 C24 N20"
_cell_length_a       7.8071463657956786
_cell_length_b       11.41648483073641
_cell_length_c       13.300533228000534
_cell_angle_alpha    89.99998198034596
_cell_angle_beta     90.0000315554034
_cell_angle_gamma    109.99202679330675

_space_group_name_H-M_alt    "P 1"
_space_group_IT_number       1

loop_
  _space_group_symop_operation_xyz
  'x, y, z'

loop_
  _atom_site_type_symbol
  _atom_site_label
  _atom_site_symmetry_multiplicity
  _atom_site_fract_x
  _atom_site_fract_y
  _atom_site_fract_z
  _atom_site_occupancy
  Cd  Cd1       1.0  0.2747145248170781  0.3132700075984474  0.2500005053125349  1.0000
  Cd  Cd2       1.0  0.9613111710367407  0.6867232542881396  0.2499990622190467  1.0000
  Cd  Cd3       1.0  0.038688391179519485  0.3132770782893459  0.75000072169928  1.0000
  Cd  Cd4       1.0  0.7252858522527744  0.6867293928715128  0.7500000304555953  1.0000
  Cd  Cd5       1.0  0.4999993044266163  0.999999001636006  0.9999997030194478  1.0000
  Cd  Cd6       1.0  0.4999990908522349  0.9999990431632568  0.49999944844314836  1.0000
  H   H1        1.0  0.9162356208778277  6.678215456000046e-07  0.8172433229109188  1.0000
  H   H2        1.0  0.08376481363767865  0.9999987214787257  0.3172435503097972  1.0000
  H   H3        1.0  0.08376347532030336  0.9999987326618436  0.1827557091578953  1.0000
  H   H4        1.0  0.9162342825607722  6.79004600100002e-07  0.6827562336085718  1.0000
  H   H5        1.0  0.18878733012267188  0.11291057251160201  0.9073719073044941  1.0000
  H   H6        1.0  0.07582091392902164  0.8870050534759458  0.9073702806835726  1.0000
  H   H7        1.0  0.9241800635996996  0.11299525294755598  0.40737101985232027  1.0000
  H   H8        1.0  0.8112141134254643  0.8870906660057473  0.40737315247913125  1.0000
  H   H9        1.0  0.8112139789821599  0.8870906921468062  0.0926271247644337  1.0000
  H   H10       1.0  0.9241794631405112  0.11299434699407841  0.0926295032350097  1.0000
  H   H11       1.0  0.07582124550577164  0.8870060117107316  0.5926295159157107  1.0000
  H   H12       1.0  0.18878719568032662  0.11291059865247628  0.5926281351384617  1.0000
  H   H13       1.0  0.3923514344483437  0.19637140446558732  0.840603929151321  1.0000
  H   H14       1.0  0.19584891702216825  0.8035240935181279  0.8405985523342636  1.0000
  H   H15       1.0  0.8041520034633223  0.19647622399681813  0.3405984782425193  1.0000
  H   H16       1.0  0.6076491372061597  0.803630777250106  0.3406036273189343  1.0000
  H   H17       1.0  0.6076490598035279  0.8036307923002183  0.159395854766899  1.0000
  H   H18       1.0  0.804151926065181  0.19647623904605643  0.159401231584269  1.0000
  H   H19       1.0  0.19585012049543607  0.8035241085540011  0.6594020575257743  1.0000
  H   H20       1.0  0.39235135704603163  0.19637141951564271  0.6593969084488408  1.0000
  H   H21       1.0  0.4712951681771854  0.9165634105031298  0.7499999582908572  1.0000
  H   H22       1.0  0.5546928933848464  0.08341237601980109  0.75000008441193  1.0000
  H   H23       1.0  0.4453076008670251  0.9165898207460117  0.2499996995062901  1.0000
  H   H24       1.0  0.5287040452035967  0.0834387862759911  0.2499998256271567  1.0000
  C   C1        1.0  0.10211873057495777  0.42802064436756376  0.2499997100250368  1.0000
  C   C2        1.0  0.6740060500193863  0.5721330552720545  0.24999978307379678  1.0000
  C   C3        1.0  0.32599304617906455  0.427866345211271  0.7500000008445795  1.0000
  C   C4        1.0  0.8978803656234932  0.5719787561157688  0.7500000738933323  1.0000
  C   C5        1.0  0.3488543378489837  0.2156048468760828  0.1208147324269859  1.0000
  C   C6        1.0  0.13318822532609437  0.7843869474741895  0.12083867982900638  1.0000
  C   C7        1.0  0.8668081987889663  0.21561247449041332  0.6208406336910244  1.0000
  C   C8        1.0  0.6511459288578222  0.7843945750527864  0.6208142071734245  1.0000
  C   C9        1.0  0.6511465052386783  0.7843954856880374  0.8791858033411017  1.0000
  C   C10       1.0  0.8668126177615748  0.21561338508993091  0.8791618559390811  1.0000
  C   C11       1.0  0.13319043139231482  0.7843859938986314  0.3791606539265118  1.0000
  C   C12       1.0  0.348854914229527  0.21560575751139774  0.3791855767451082  1.0000
  C   C13       1.0  0.9978049568764361  1.6903028026000036e-06  0.750000167382254  1.0000
  C   C14       1.0  0.0021954201931037934  0.9999977101672215  0.2499996165363285  1.0000
  C   C15       1.0  0.26951015511797044  0.11257884446134633  0.8398994375693078  1.0000
  C   C16       1.0  0.1568536570351711  0.8873546865768347  0.8398978109064217  1.0000
  C   C17       1.0  0.8431464479984001  0.11264656316197369  0.3398977720979985  1.0000
  C   C18       1.0  0.7304864561387775  0.88742054111556  0.339898400983472  1.0000
  C   C19       1.0  0.7304863793389416  0.887420556048468  0.16010185004775931  1.0000
  C   C20       1.0  0.843145905181082  0.11264564600065803  0.1601019730118978  1.0000
  C   C21       1.0  0.15685486110707111  0.8873547014963067  0.6601027636700323  1.0000
  C   C22       1.0  0.2695118252060738  0.1125797914752908  0.6601006310850862  1.0000
  C   C23       1.0  0.43169173780869136  0.999992275151108  0.7500006924545345  1.0000
  C   C24       1.0  0.5683086392611685  7.125318852299999e-06  0.24999984331360284  1.0000
  N   N1        1.0  0.040071672306673564  0.5075936485777177  0.2499996892290639  1.0000
  N   N2        1.0  0.5324445320036019  0.4924596351553063  0.2499997709398727  1.0000
  N   N3        1.0  0.4675563110837403  0.5075406974088781  0.7500000129786529  1.0000
  N   N4        1.0  0.9599287047628665  0.4924057518923065  0.7500000946895113  1.0000
  N   N5        1.0  0.39699068442636326  0.15114131638581094  0.0678228885344865  1.0000
  N   N6        1.0  0.24573141845876728  0.8488963547571017  0.0678475807720744  1.0000
  N   N7        1.0  0.7542675221273569  0.15110307598337866  0.5678472601083868  1.0000
  N   N8        1.0  0.6030082561388851  0.8488581143587267  0.5678230821248462  1.0000
  N   N9        1.0  0.6030084117720876  0.8488580840975146  0.9321768953838898  1.0000
  N   N10       1.0  0.7542689586110926  0.15110304571285837  0.9321529549960629  1.0000
  N   N11       1.0  0.24573157407109386  0.8488963244999539  0.4321525238099824  1.0000
  N   N12       1.0  0.3969925869487838  0.1511422182054005  0.4321774536432414  1.0000
  N   N13       1.0  0.3249572445871109  0.9999532959284991  0.8423526116837223  1.0000
  N   N14       1.0  0.6750446094328025  4.8885483337800004e-05  0.3423533007700925  1.0000
  N   N15       1.0  0.6750440645177208  4.796872990910001e-05  0.1576464203851984  1.0000
  N   N16       1.0  0.3249571656904777  0.9999533112691027  0.6576472349978886  1.0000
  N   N17       1.0  0.160771973347849  0.11349996316002381  0.7500000166089861  1.0000
  N   N18       1.0  0.04723015319150653  0.88648711648694  0.7499998937437694  1.0000
  N   N19       1.0  0.9527706898958358  0.11351321607724425  0.24999989017476312  1.0000
  N   N20       1.0  0.8392267740151241  0.8865013015249376  0.2499997673090775  1.0000
