data_image0
_chemical_formula_structural       Al2H18C26N2O12
_chemical_formula_sum              "Al2 H18 C26 N2 O12"
_cell_length_a       6.645696308738062
_cell_length_b       11.189410094925218
_cell_length_c       15.165850558266737
_cell_angle_alpha    81.8286124374173
_cell_angle_beta     79.23922322766947
_cell_angle_gamma    72.13848345725764

_space_group_name_H-M_alt    "P 1"
_space_group_IT_number       1

loop_
  _space_group_symop_operation_xyz
  'x, y, z'

loop_
  _atom_site_type_symbol
  _atom_site_label
  _atom_site_symmetry_multiplicity
  _atom_site_fract_x
  _atom_site_fract_y
  _atom_site_fract_z
  _atom_site_occupancy
  Al  Al1       1.0  0.49480825885541435  0.4961209456668244  0.5101710186966315  1.0000
  Al  Al2       1.0  0.9946322441766996  0.49633898042621627  0.5084577315704735  1.0000
  H   H1        1.0  0.2876314951296095  0.3453966403566469  0.5655688885986834  1.0000
  H   H2        1.0  0.6988838709016815  0.6387770445435877  0.4377071877674581  1.0000
  H   H3        1.0  0.8598211939684928  0.45596026001909007  0.9580290112490673  1.0000
  H   H4        1.0  0.19032776256458567  0.4536587743191022  0.060511042119770764  1.0000
  H   H5        1.0  0.6422143903817882  0.5626222540852981  0.24341885258563412  1.0000
  H   H6        1.0  0.7312199459307465  0.5816623881739601  0.07610837430280529  1.0000
  H   H7        1.0  0.28601602096698303  0.5874447283932939  0.76750598629269  1.0000
  H   H8        1.0  0.18958633586417056  0.5952603681408347  0.9336647501286848  1.0000
  H   H9        1.0  0.23657845175411304  0.2359812397468488  0.3829593074179413  1.0000
  H   H10       1.0  0.5636846662115784  0.12779013146509044  0.2877180643718659  1.0000
  H   H11       1.0  0.42448910783491545  0.7745967419309849  0.36992363201915174  1.0000
  H   H12       1.0  0.6581025330535155  0.8941765881634113  0.2798658230747079  1.0000
  H   H13       1.0  0.044855411060780274  0.45575800704415315  0.7184232204239578  1.0000
  H   H14       1.0  0.11440715453579735  0.43512683497504406  0.826755431341695  1.0000
  H   H15       1.0  0.996913485830959  0.44924589197933074  0.2996793159745863  1.0000
  H   H16       1.0  0.9588197038998773  0.4213561521757185  0.19458023096969862  1.0000
  H   H17       1.0  0.7680657483271742  0.7823253478920907  0.5622537202649622  1.0000
  H   H18       1.0  0.584956288526236  0.20699838829267486  0.5648168619945793  1.0000
  C   C1        1.0  0.8766479804678724  0.2668996279478577  0.5014803753893415  1.0000
  C   C2        1.0  0.6635311666499248  0.5077317028474653  0.6706042416583173  1.0000
  C   C3        1.0  0.12503873888707057  0.7257614699366002  0.4994003624320342  1.0000
  C   C4        1.0  0.32591664110278623  0.4945092463228989  0.34592125353145053  1.0000
  C   C5        1.0  0.6235823433400397  0.5178098308892701  0.7681216697224114  1.0000
  C   C6        1.0  0.3665206061473113  0.500851429921731  0.24685671283535268  1.0000
  C   C7        1.0  0.791495526982636  0.485651696860252  0.8217603389616241  1.0000
  C   C8        1.0  0.7324997422556119  0.4871357385698475  0.9163962350739466  1.0000
  C   C9        1.0  0.23033479813265967  0.4731718406186047  0.19514408854686846  1.0000
  C   C10       1.0  0.2884314585117097  0.47984264969219487  0.1004142398956063  1.0000
  C   C11       1.0  0.5460879299998496  0.537768827975107  0.20203631084054754  1.0000
  C   C12       1.0  0.5974007084985332  0.5465713920984355  0.10910769122685342  1.0000
  C   C13       1.0  0.4097396283102269  0.5573920976278899  0.8106952235729066  1.0000
  C   C14       1.0  0.3561100182683744  0.5601485377064465  0.9030457372537481  1.0000
  C   C15       1.0  0.5201938686086933  0.521474243568349  0.9575843414250256  1.0000
  C   C16       1.0  0.4676430207169062  0.5159334003459578  0.056937922572402  1.0000
  C   C17       1.0  0.9399316702008207  0.1314436902123006  0.4885922038207653  1.0000
  C   C18       1.0  0.14176229094387338  0.06819087253292372  0.4365368237120676  1.0000
  C   C19       1.0  0.7964235615047813  0.06305875486955159  0.5290137028236686  1.0000
  C   C20       1.0  0.27896324469256945  0.13443682803362828  0.38278592730712546  1.0000
  C   C21       1.0  0.46330970257407955  0.0733250491920714  0.3286894053395599  1.0000
  C   C22       1.0  0.05904798945178415  0.8644156434938565  0.48598667503015486  1.0000
  C   C23       1.0  0.8559805595933837  0.9285882841305053  0.5278596367487935  1.0000
  C   C24       1.0  0.19952794486389552  0.9340389508104605  0.4342358541850828  1.0000
  C   C25       1.0  0.38661420185778195  0.8749440181049336  0.3761289194963382  1.0000
  C   C26       1.0  0.5168462301373463  0.9425212148650605  0.3246479777113294  1.0000
  N   N1        1.0  0.002027902722758859  0.4504654074514036  0.7864477087384073  1.0000
  N   N2        1.0  0.05507840758389201  0.43568790665150897  0.2339261723064894  1.0000
  O   O1        1.0  0.673637721441615  0.3230859836310316  0.5232885008422841  1.0000
  O   O2        1.0  0.8582950629999786  0.4838594419044782  0.6300204629784429  1.0000
  O   O3        1.0  0.9758860341211882  0.6694805624727636  0.5191259884014557  1.0000
  O   O4        1.0  0.48496928737446143  0.4777453126552588  0.3870221947506778  1.0000
  O   O5        1.0  0.32192267052356266  0.6658350705507702  0.4937982684990698  1.0000
  O   O6        1.0  0.13207710251037943  0.5084959975309006  0.38553061855188275  1.0000
  O   O7        1.0  0.01694994031777243  0.3247295125529917  0.49407490731628195  1.0000
  O   O8        1.0  0.5036790934135524  0.5203373321198868  0.6306692173044011  1.0000
  O   O9        1.0  0.2565291075012724  0.43596597785599295  0.5517409565904146  1.0000
  O   O10       1.0  0.7341802816119127  0.5531687088061474  0.46609168843394844  1.0000
  O   O11       1.0  0.7084821053387954  0.8736079851325943  0.5722672067082967  1.0000
  O   O12       1.0  0.6016830126959078  0.1141013029543458  0.5743512542780351  1.0000
