data_image0
_chemical_formula_structural       Zn2H24C28N4O8
_chemical_formula_sum              "Zn2 H24 C28 N4 O8"
_cell_length_a       5.138207258085624
_cell_length_b       9.365789640272991
_cell_length_c       13.771691764988569
_cell_angle_alpha    109.83555592801679
_cell_angle_beta     90.00065109299713
_cell_angle_gamma    89.99968580896665

_space_group_name_H-M_alt    "P 1"
_space_group_IT_number       1

loop_
  _space_group_symop_operation_xyz
  'x, y, z'

loop_
  _atom_site_type_symbol
  _atom_site_label
  _atom_site_symmetry_multiplicity
  _atom_site_fract_x
  _atom_site_fract_y
  _atom_site_fract_z
  _atom_site_occupancy
  Zn  Zn1       1.0  0.999996859413521  0.9999976782365753  0.999999409437301  1.0000
  Zn  Zn2       1.0  0.49999671034591847  0.5000010801850437  1.3413820951970566e-06  1.0000
  H   H1        1.0  0.4346940075208748  0.08509242210841711  0.13085640959511843  1.0000
  H   H2        1.0  0.9346969185183056  0.4149083870337407  0.8691466203376877  1.0000
  H   H3        1.0  0.5652970132105467  0.9149074211895395  0.8691391208559125  1.0000
  H   H4        1.0  0.0653038333717291  0.5850939531501353  0.13085890251719687  1.0000
  H   H5        1.0  0.31064344596956056  0.2051441658485587  0.07538269128748  1.0000
  H   H6        1.0  0.8106492746023903  0.294861309179538  0.9246215668763682  1.0000
  H   H7        1.0  0.6893514671638242  0.7948590822191974  0.9246135913533639  1.0000
  H   H8        1.0  0.18935147727669488  0.7051410135395244  0.07538322590701088  1.0000
  H   H9        1.0  0.3750063547331521  0.12946069128172877  0.30656514761609094  1.0000
  H   H10       1.0  0.8749985735949295  0.3705379177969164  0.6934378680457769  1.0000
  H   H11       1.0  0.6249788273546456  0.8705322726165363  0.6934259581733074  1.0000
  H   H12       1.0  0.12500412454562593  0.6294690494054861  0.30657230807972274  1.0000
  H   H13       1.0  0.1325032846076297  0.2637255020270715  0.4678837681285088  1.0000
  H   H14       1.0  0.6324939601295795  0.2362778942248127  0.5321207238494595  1.0000
  H   H15       1.0  0.8674935747911476  0.7362562174165818  0.5321092108406802  1.0000
  H   H16       1.0  0.3675165227294244  0.7637346078748807  0.467884865356389  1.0000
  H   H17       1.0  0.7556749763053148  0.43050279119866997  0.464495861322547  1.0000
  H   H18       1.0  0.25566305158524466  0.0694993272441309  0.5355074209593269  1.0000
  H   H19       1.0  0.2443257755178934  0.5694880600283838  0.535501313687405  1.0000
  H   H20       1.0  0.7443513236834391  0.9305063478460411  0.46449593381916554  1.0000
  H   H21       1.0  0.626670109660779  0.4614022374434938  0.29812585802432784  1.0000
  H   H22       1.0  0.12667131878525587  0.03860462108232811  0.7018815526365432  1.0000
  H   H23       1.0  0.3733384270231639  0.5385943757233632  0.7018762209954235  1.0000
  H   H24       1.0  0.8733352716534595  0.9613964793863019  0.29811933907394217  1.0000
  C   C1        1.0  0.8201479230160373  0.32547950298405937  0.11138941504174231  1.0000
  C   C2        1.0  0.3201533728814496  0.17455204949717998  0.8886199184508785  1.0000
  C   C3        1.0  0.1798411515290326  0.67452264509204  0.8886080770029212  1.0000
  C   C4        1.0  0.6798473789680274  0.8254604700715901  0.11138640080666556  1.0000
  C   C5        1.0  0.9212372664905359  0.3107156090090371  0.20932289275872762  1.0000
  C   C6        1.0  0.4212318183128332  0.18928861670276828  0.7906808345841512  1.0000
  C   C7        1.0  0.0787693239798628  0.6892741596860431  0.7906762217503032  1.0000
  C   C8        1.0  0.578774772154567  0.8107148060079581  0.2093227487954152  1.0000
  C   C9        1.0  0.1339923883855647  0.2162300695551735  0.21119102019049057  1.0000
  C   C10       1.0  0.6339961720875991  0.28377339524504197  0.7888163981592202  1.0000
  C   C11       1.0  0.8659791701646995  0.783768411784969  0.7887947685642018  1.0000
  C   C12       1.0  0.3660045798379201  0.7162335544934066  0.21119304789083063  1.0000
  C   C13       1.0  0.20778810861514072  0.2005021594457332  0.305021871608318  1.0000
  C   C14       1.0  0.7077791619817402  0.29949879618428815  0.6949780448170559  1.0000
  C   C15       1.0  0.7922184819688595  0.7994855140497704  0.6949840421610889  1.0000
  C   C16       1.0  0.2922235360076613  0.7005067915869602  0.3050216595802056  1.0000
  C   C17       1.0  0.0714088304287017  0.27633124338734666  0.39535510797227164  1.0000
  C   C18       1.0  0.5713959903488827  0.22367004135494994  0.6046530143826274  1.0000
  C   C19       1.0  0.9285802439885982  0.7236627331793953  0.6046311380518646  1.0000
  C   C20       1.0  0.42861643880592465  0.776340330614694  0.39535791394455805  1.0000
  C   C21       1.0  0.8610845250734441  0.3703076401926637  0.3938174959976167  1.0000
  C   C22       1.0  0.36107606122099867  0.12968974137572084  0.606180831859355  1.0000
  C   C23       1.0  0.13894736621170978  0.6296778333033116  0.6061908366546546  1.0000
  C   C24       1.0  0.6389363677690483  0.8703146765378091  0.3938171616874158  1.0000
  C   C25       1.0  0.7892797783407841  0.388311338021623  0.30120836672949036  1.0000
  C   C26       1.0  0.28927430037917645  0.1116919557476947  0.698798223315052  1.0000
  C   C27       1.0  0.21069956502171291  0.6116894131627789  0.6987779234956266  1.0000
  C   C28       1.0  0.7107322901669164  0.8883104542928494  0.30121021983769236  1.0000
  N   N1        1.0  0.26785715887177014  0.1371640370017317  0.1189567658933228  1.0000
  N   N2        1.0  0.7678668063073532  0.36283578344177403  0.8810453344750473  1.0000
  N   N3        1.0  0.7321494315507024  0.8628279316817853  0.8810399297843077  1.0000
  N   N4        1.0  0.23213783796068546  0.6371710615061161  0.11895973115393589  1.0000
  O   O1        1.0  0.8133764316636132  0.2093439735584823  0.028870256081639  1.0000
  O   O2        1.0  0.31338317612441813  0.29065908950769176  0.9711276711778964  1.0000
  O   O3        1.0  0.18660875045495118  0.7906501776580515  0.9711232906495442  1.0000
  O   O4        1.0  0.6866117370855845  0.7093442808137239  0.028873721963421372  1.0000
  O   O5        1.0  0.7367330093099795  0.4557743738359007  0.11581895997090898  1.0000
  O   O6        1.0  0.23672799454868707  0.04422896598908469  0.8841874162643819  1.0000
  O   O7        1.0  0.2632580114954095  0.5442210345555623  0.8841799479999254  1.0000
  O   O8        1.0  0.7632708110804528  0.9557744217954325  0.11581470695634981  1.0000
