data_image0
_chemical_formula_structural       Cu4P4H90C114I4N6
_chemical_formula_sum              "Cu4 P4 H90 C114 I4 N6"
_cell_length_a       9.346472935705428
_cell_length_b       13.782903904110164
_cell_length_c       24.47466979334647
_cell_angle_alpha    77.92369484809693
_cell_angle_beta     82.72776610346929
_cell_angle_gamma    80.87028255026195

_space_group_name_H-M_alt    "P 1"
_space_group_IT_number       1

loop_
  _space_group_symop_operation_xyz
  'x, y, z'

loop_
  _atom_site_type_symbol
  _atom_site_label
  _atom_site_symmetry_multiplicity
  _atom_site_fract_x
  _atom_site_fract_y
  _atom_site_fract_z
  _atom_site_occupancy
  Cu  Cu1       1.0  0.477046823139176  0.0061613240261877  0.43467788196591056  1.0000
  Cu  Cu2       1.0  0.522951617312366  0.9938403721230455  0.565322386950335  1.0000
  Cu  Cu3       1.0  0.11277443091358215  0.9194536223972277  0.008131709346919497  1.0000
  Cu  Cu4       1.0  0.8872237882172627  0.08054358392067941  0.9918690883294017  1.0000
  P   P1        1.0  0.6083923653762755  0.06961473938580547  0.3582524382333502  1.0000
  P   P2        1.0  0.39161023835897874  0.9303876822289607  0.6417487776193552  1.0000
  P   P3        1.0  0.1910850196903411  0.7917985633081416  0.9656435561098532  1.0000
  P   P4        1.0  0.8089141430833993  0.20819939387331485  0.03435629347332279  1.0000
  H   H1        1.0  0.3882328260688652  0.8995468430247084  0.35203320491142875  1.0000
  H   H2        1.0  0.6117620831061643  0.10045635652198825  0.6479678730719697  1.0000
  H   H3        1.0  0.9604783923967872  0.8197968613099604  0.41554523354326983  1.0000
  H   H4        1.0  0.0395167991148142  0.18020483754353483  0.584456413070505  1.0000
  H   H5        1.0  0.9770796065657024  0.8935884923327604  0.4982582549754824  1.0000
  H   H6        1.0  0.0229166679258839  0.10641320561931879  0.5017429324057898  1.0000
  H   H7        1.0  0.1996201051531515  0.9728645809965142  0.5027806454409499  1.0000
  H   H8        1.0  0.8003804866087948  0.027137102003010193  0.49722034137384685  1.0000
  H   H9        1.0  0.0912965609756426  0.8442774819061966  0.12858582454780526  1.0000
  H   H10       1.0  0.9087015861521551  0.1557257064260895  0.8714151030107473  1.0000
  H   H11       1.0  0.45631110908030365  0.9224589767217775  0.19481912766902804  1.0000
  H   H12       1.0  0.5436829457602317  0.07754871923111038  0.8051810626050295  1.0000
  H   H13       1.0  0.5275518370252996  0.012931867654387497  0.09754308530613538  1.0000
  H   H14       1.0  0.4724440194550113  0.9870720855925795  0.9024566354932302  1.0000
  H   H15       1.0  0.3751371840094393  0.012915748798889098  0.020529760234175885  1.0000
  H   H16       1.0  0.6248618357648185  0.9870829573108109  0.9794700095792521  1.0000
  H   H17       1.0  0.13533043484541452  0.5539276245011492  0.21015767414478145  1.0000
  H   H18       1.0  0.8646797204505817  0.44607476810993046  0.7898435998074901  1.0000
  H   H19       1.0  0.89322737148094  0.604998519343411  0.366293706950742  1.0000
  H   H20       1.0  0.10677423226454864  0.39499792966855535  0.6337066109795727  1.0000
  H   H21       1.0  0.7794036325685597  0.45168693027755313  0.3687409470474563  1.0000
  H   H22       1.0  0.22060395807476857  0.5483065185143587  0.6312573937992736  1.0000
  H   H23       1.0  0.8478965563993842  0.35841324255927265  0.2899441625945299  1.0000
  H   H24       1.0  0.15211658115616444  0.6415794442871386  0.7100531891320685  1.0000
  H   H25       1.0  0.27121768755579023  0.9278387424029757  0.2696780514875953  1.0000
  H   H26       1.0  0.7287700270538977  0.0721682213770549  0.7303233375876985  1.0000
  H   H27       1.0  0.1391866185162912  0.7075651862696332  0.19279307326385003  1.0000
  H   H28       1.0  0.8608146272271856  0.292438742613207  0.8072072150092138  1.0000
  H   H29       1.0  0.0677540940805343  0.6842006295874369  0.37221922151990566  1.0000
  H   H30       1.0  0.9322567981872186  0.3157980354027428  0.6277799967357252  1.0000
  H   H31       1.0  0.6555046301352121  0.21219068022499948  0.42079458351157223  1.0000
  H   H32       1.0  0.3444974699427662  0.7878087522516493  0.5792065924708323  1.0000
  H   H33       1.0  0.8743806168907327  0.2817823038159659  0.4354547155094791  1.0000
  H   H34       1.0  0.12562105785119826  0.7182193782821359  0.5645458120728007  1.0000
  H   H35       1.0  0.11871725052824193  0.21912872980686157  0.39362257757289126  1.0000
  H   H36       1.0  0.8812838558781524  0.7808759508409364  0.6063772218395369  1.0000
  H   H37       1.0  0.1432397221387234  0.08741185820542799  0.33520946379907457  1.0000
  H   H38       1.0  0.8567627459218345  0.9125913180110312  0.6647908541021079  1.0000
  H   H39       1.0  0.9253115086551136  0.019737552244961893  0.3192819182643091  1.0000
  H   H40       1.0  0.07469246039669038  0.9802633677751796  0.6807194069862701  1.0000
  H   H41       1.0  0.7292165714402828  0.23122358225656814  0.27074766436864905  1.0000
  H   H42       1.0  0.27078877391524975  0.7687758446791121  0.7292525430071137  1.0000
  H   H43       1.0  0.608837087072054  0.38011772490673934  0.20970890754817617  1.0000
  H   H44       1.0  0.39116437367395224  0.6198794730334781  0.7902913306123975  1.0000
  H   H45       1.0  0.33743386900002303  0.4178488613263907  0.21725647358405098  1.0000
  H   H46       1.0  0.6625715959696522  0.5821446204722847  0.7827382857278877  1.0000
  H   H47       1.0  0.18869134694849526  0.307544992803379  0.28751786809475977  1.0000
  H   H48       1.0  0.8113141487313059  0.6924536908774995  0.7124816008689621  1.0000
  H   H49       1.0  0.31247543849730874  0.15778899242102537  0.3497624225699879  1.0000
  H   H50       1.0  0.687529037874164  0.842214919573955  0.6502385334600048  1.0000
  H   H51       1.0  0.6780888980666121  0.09472762280456946  0.23258676888369217  1.0000
  H   H52       1.0  0.3219161539651765  0.9052732963141491  0.7674140971343701  1.0000
  H   H53       1.0  0.7528116697166356  0.970793714154098  0.17080271628524452  1.0000
  H   H54       1.0  0.2471901590119502  0.029207227525923  0.8291966637941072  1.0000
  H   H55       1.0  0.7807648337091282  0.7891393523720819  0.2110268233962742  1.0000
  H   H56       1.0  0.21923268141148367  0.21086160709721463  0.7889723481586584  1.0000
  H   H57       1.0  0.7335331037195872  0.7306110670809572  0.31451298564545727  1.0000
  H   H58       1.0  0.2664594438115202  0.26938766429429956  0.685486675926789  1.0000
  H   H59       1.0  0.6615333652822388  0.8546846295889025  0.37722670804585323  1.0000
  H   H60       1.0  0.3384610585474805  0.14531559500328226  0.6227722846127789  1.0000
  H   H61       1.0  0.43626405104897265  0.784962414972682  0.026327459104947968  1.0000
  H   H62       1.0  0.5637357803558701  0.21503779943897428  0.9736700555729169  1.0000
  H   H63       1.0  0.70256953632466  0.7774702489656986  0.00045363881660169747  1.0000
  H   H64       1.0  0.2974301594054793  0.22253072004764352  0.9995429779097406  1.0000
  H   H65       1.0  0.804205793962382  0.7755979059102599  0.9017423404537294  1.0000
  H   H66       1.0  0.19579296911204844  0.22440232074969652  0.09825399709307449  1.0000
  H   H67       1.0  0.6381886304018923  0.7790375656721622  0.8288947681859751  1.0000
  H   H68       1.0  0.3618050147587653  0.22096117614855607  0.17110279779019066  1.0000
  H   H69       1.0  0.372413960433363  0.7847582206335486  0.8547876758971282  1.0000
  H   H70       1.0  0.6275831903670693  0.21523899793265847  0.1452119446481319  1.0000
  H   H71       1.0  0.04095296909012094  0.9481186118117362  0.8871912671194763  1.0000
  H   H72       1.0  0.9590400074394274  0.05187787277877478  0.11280863376200043  1.0000
  H   H73       1.0  0.9386817203101007  0.9522257158751013  0.7975479938445815  1.0000
  H   H74       1.0  0.061311681555508805  0.047768519093963804  0.20245255543701285  1.0000
  H   H75       1.0  0.944104452986906  0.7929555678545765  0.7631736609496824  1.0000
  H   H76       1.0  0.0558965041018382  0.20703864094751623  0.2368265373405832  1.0000
  H   H77       1.0  0.05042209780334162  0.6322107567398161  0.8178918069497954  1.0000
  H   H78       1.0  0.9495853461781113  0.3677834381436184  0.1821068632180881  1.0000
  H   H79       1.0  0.15891899925531308  0.6284007117015735  0.9067917219213228  1.0000
  H   H80       1.0  0.8410847631253592  0.3715957298341265  0.09320849572575436  1.0000
  H   H81       1.0  0.38744456325216003  0.5961787958681409  0.9739622538167152  1.0000
  H   H82       1.0  0.6125527305477548  0.4038176737698221  0.026037446498285984  1.0000
  H   H83       1.0  0.3667492488322139  0.4291709955831704  0.03465631877188711  1.0000
  H   H84       1.0  0.6332457543202139  0.5708262389694738  0.9653421747839271  1.0000
  H   H85       1.0  0.15248297124104943  0.404590398132278  0.10433781525797056  1.0000
  H   H86       1.0  0.8475118852495028  0.5954075825118962  0.8956610076189975  1.0000
  H   H87       1.0  0.9539284008572725  0.5465759261661914  0.11197711611386295  1.0000
  H   H88       1.0  0.046066158647143106  0.45342354382430716  0.8880227744962994  1.0000
  H   H89       1.0  0.9734541317816865  0.7135789925782136  0.051070222157932194  1.0000
  H   H90       1.0  0.026546907290665417  0.28642045782017783  0.9489289585116294  1.0000
  C   C1        1.0  0.2938691464024573  0.8978012606818808  0.38327116448934356  1.0000
  C   C2        1.0  0.7061248337792493  0.10220119934815132  0.6167292252236294  1.0000
  C   C3        1.0  0.17463909281420342  0.8523986791535593  0.3768500790289763  1.0000
  C   C4        1.0  0.8253574640139549  0.14760151810530425  0.6231516769826654  1.0000
  C   C5        1.0  0.05828949795524351  0.8511011157751082  0.4191689288160205  1.0000
  C   C6        1.0  0.9417066225496885  0.1489013225950444  0.5808334060681799  1.0000
  C   C7        1.0  0.06625388236719938  0.893856200774934  0.46505258023346113  1.0000
  C   C8        1.0  0.933742102463036  0.10614699219690489  0.5349488566992162  1.0000
  C   C9        1.0  0.18865911662972934  0.9377811514680585  0.46780427457610324  1.0000
  C   C10       1.0  0.8113391808223372  0.06222129360942568  0.5321959145704084  1.0000
  C   C11       1.0  0.19126035633173194  0.8782055918245957  0.12365657636330946  1.0000
  C   C12       1.0  0.8087365721413846  0.1217983520107921  0.8763439124762228  1.0000
  C   C13       1.0  0.2682413528764229  0.8743143145369172  0.16965196567556257  1.0000
  C   C14       1.0  0.7317505360041495  0.12569338321880957  0.8303491430635148  1.0000
  C   C15       1.0  0.3918698246410274  0.9238116323689451  0.16042991869772993  1.0000
  C   C16       1.0  0.608120334602802  0.07619382607831678  0.8395715296338082  1.0000
  C   C17       1.0  0.43236051441000717  0.973661719788353  0.10648686018309655  1.0000
  C   C18       1.0  0.5676338300918857  0.026344481144761293  0.8935130805395485  1.0000
  C   C19       1.0  0.3490562778096092  0.9733879292442678  0.0632339761323379  1.0000
  C   C20       1.0  0.6509427309774696  0.026610768355276097  0.9367670209537662  1.0000
  C   C21       1.0  0.05520360342115543  0.5349205198574365  0.24590568966235787  1.0000
  C   C22       1.0  0.9448038969071679  0.4650788967652417  0.7540948265210614  1.0000
  C   C23       1.0  0.024492619613106073  0.5938581202810412  0.2875593639783317  1.0000
  C   C24       1.0  0.9755128614171299  0.40614055205294614  0.7124417413489608  1.0000
  C   C25       1.0  0.9231720388708883  0.5622858111648481  0.3327902530275891  1.0000
  C   C26       1.0  0.07683818110336922  0.4377105937584174  0.66721170922424  1.0000
  C   C27       1.0  0.8587431548793206  0.4773251679316813  0.33426262305363247  1.0000
  C   C28       1.0  0.14126980671521494  0.5226682423124912  0.6657383307212541  1.0000
  C   C29       1.0  0.8964448286135396  0.42537454208971326  0.2902060045021314  1.0000
  C   C30       1.0  0.10357151393325385  0.5746181080117977  0.7097948786176431  1.0000
  C   C31       1.0  0.16984656703254336  0.8102993659749059  0.32657036851978205  1.0000
  C   C32       1.0  0.8301515837576477  0.18970382519410112  0.6734301499478689  1.0000
  C   C33       1.0  0.22533735449367506  0.8583703945672808  0.2737000813277035  1.0000
  C   C34       1.0  0.7746525187511893  0.14163656173647607  0.7263012074643524  1.0000
  C   C35       1.0  0.2154856586816862  0.8211459408326077  0.22545460810787424  1.0000
  C   C36       1.0  0.7845073095164707  0.17886175318497521  0.7745464504895876  1.0000
  C   C37       1.0  0.14903299541803963  0.7349894018097841  0.23061901999663081  1.0000
  C   C38       1.0  0.8509648803603655  0.2650152957258739  0.7693801116588614  1.0000
  C   C39       1.0  0.09424542073007566  0.6846136325473322  0.2830964965818835  1.0000
  C   C40       1.0  0.9057564116609033  0.3153873119694096  0.7169024744065737  1.0000
  C   C41       1.0  0.10609052547044945  0.7232166029614289  0.3307572185830026  1.0000
  C   C42       1.0  0.8939159028650684  0.27678282307282837  0.6692425295602504  1.0000
  C   C43       1.0  0.7764554606674496  0.11204314836643897  0.36861943169566297  1.0000
  C   C44       1.0  0.22354972703903545  0.8879570161506006  0.6313823322739295  1.0000
  C   C45       1.0  0.7626805599196587  0.186318556542922  0.40131215160399586  1.0000
  C   C46       1.0  0.23732326247027669  0.8136831095687425  0.5986895029677296  1.0000
  C   C47       1.0  0.8852935132225428  0.22505043477346484  0.40955107874435726  1.0000
  C   C48       1.0  0.1147081541946022  0.7749512416511947  0.5904502670197116  1.0000
  C   C49       1.0  0.022933061738172018  0.18986115118112673  0.385862898512471  1.0000
  C   C50       1.0  0.9770695456594684  0.8101412732703603  0.6141379082493472  1.0000
  C   C51       1.0  0.03656034335815411  0.11590145087954076  0.3536620074355098  1.0000
  C   C52       1.0  0.9634433470194784  0.8841009726705307  0.6463383400937984  1.0000
  C   C53       1.0  0.9139742048461983  0.07701244896328767  0.3448649017239943  1.0000
  C   C54       1.0  0.08602948186904064  0.9229899717500627  0.6551358548962013  1.0000
  C   C55       1.0  0.5270871682117716  0.1834109752478454  0.3133195032458501  1.0000
  C   C56       1.0  0.4729174218600463  0.8165921651251297  0.6866848052810254  1.0000
  C   C57       1.0  0.6106715300478811  0.2475073901433262  0.27446222519115077  1.0000
  C   C58       1.0  0.38933322133537734  0.7524950154850031  0.7255401176510005  1.0000
  C   C59       1.0  0.5426935690499874  0.33162551081040453  0.24016575301904194  1.0000
  C   C60       1.0  0.4573076020346677  0.6683731821495797  0.7598347346929372  1.0000
  C   C61       1.0  0.3907415882407932  0.3527795718460922  0.2444890477201084  1.0000
  C   C62       1.0  0.6092634637909954  0.6472213472726337  0.7555118182979612  1.0000
  C   C63       1.0  0.3070174139725169  0.2903086724298162  0.283675528256694  1.0000
  C   C64       1.0  0.6929862727427223  0.7096937482835342  0.7163252283635089  1.0000
  C   C65       1.0  0.37536626761746567  0.20627868879162745  0.3180004225295362  1.0000
  C   C66       1.0  0.6246391304225443  0.7937259570465753  0.682002039952664  1.0000
  C   C67       1.0  0.6658891835478189  0.9832140085576596  0.30932980579026986  1.0000
  C   C68       1.0  0.33411034720849403  0.016787692363607196  0.690669185711684  1.0000
  C   C69       1.0  0.691044727215875  0.0151460275287505  0.25104211152146405  1.0000
  C   C70       1.0  0.30895709418792455  0.9848549084778281  0.7489580867396768  1.0000
  C   C71       1.0  0.7326266476726104  0.9454762874542765  0.21606075373276212  1.0000
  C   C72       1.0  0.2673739550765078  0.0545254040554042  0.7839390058093583  1.0000
  C   C73       1.0  0.7486987097620812  0.8430520736154179  0.23874315507926974  1.0000
  C   C74       1.0  0.25129476309996335  0.15694739443977565  0.7612576038542895  1.0000
  C   C75       1.0  0.7228234954469673  0.8104983326553633  0.29668893016422254  1.0000
  C   C76       1.0  0.2771740050240795  0.1895026154670489  0.7033118777542811  1.0000
  C   C77       1.0  0.6820973613590129  0.8799369911258733  0.3318705782458408  1.0000
  C   C78       1.0  0.3178978448021539  0.12006471907450587  0.6681294320043704  1.0000
  C   C79       1.0  0.3857829863188655  0.7858352842109181  0.9422600247432552  1.0000
  C   C80       1.0  0.6142153831362479  0.21416117885218702  0.05774003452101788  1.0000
  C   C81       1.0  0.4805467042864963  0.7834215041155725  0.9830218434164307  1.0000
  C   C82       1.0  0.5194555607653158  0.21657719645315854  0.016976957790362193  1.0000
  C   C83       1.0  0.6302508214516251  0.7784838940301666  0.9685815658517284  1.0000
  C   C84       1.0  0.3697487386038247  0.2215178295848617  0.03141415292308378  1.0000
  C   C85       1.0  0.6874421063522362  0.777597039962714  0.9130183971907895  1.0000
  C   C86       1.0  0.3125569353963727  0.22240168316731257  0.0869789180772926  1.0000
  C   C87       1.0  0.5943813163844356  0.7803834999927799  0.8722596021500733  1.0000
  C   C88       1.0  0.4056090981482328  0.2196152587157911  0.12773729606916354  1.0000
  C   C89       1.0  0.4441361374202305  0.7840941634481453  0.8867443160982942  1.0000
  C   C90       1.0  0.5558585614212747  0.21590455477738857  0.11325606337249636  1.0000
  C   C91       1.0  0.10946938203742464  0.7885760766373618  0.9020475370093235  1.0000
  C   C92       1.0  0.8905308673786867  0.21142188247939933  0.09795144425044806  1.0000
  C   C93       1.0  0.045382513091837565  0.8792678385263172  0.8712944608926347  1.0000
  C   C94       1.0  0.9546115427553091  0.12072864232605698  0.1287053898472194  1.0000
  C   C95       1.0  0.9874670160731046  0.8811518375433492  0.8211577412805579  1.0000
  C   C96       1.0  0.012528548090074304  0.11884239278615638  0.178842298626904  1.0000
  C   C97       1.0  0.9907177189835821  0.7921977777166163  0.801944768884489  1.0000
  C   C98       1.0  0.0092822944622668  0.20779568022193465  0.19805637749892205  1.0000
  C   C99       1.0  0.052310433923182104  0.7013204192147525  0.832803220320727  1.0000
  C   C100      1.0  0.9476937611183304  0.2986737783729296  0.16719682754468576  1.0000
  C   C101      1.0  0.1120294256674583  0.6995070929747343  0.8825312581842933  1.0000
  C   C102      1.0  0.8879743330508209  0.30048934572423747  0.11746936855367804  1.0000
  C   C103      1.0  0.18172853087778412  0.6662230865438373  0.008440836637433302  1.0000
  C   C104      1.0  0.8182723505455202  0.3337771014359134  0.9915599006259509  1.0000
  C   C105      1.0  0.29228905638152014  0.5855268169997031  0.004171461086229988  1.0000
  C   C106      1.0  0.7077068867514031  0.41447116557976926  0.9958264934673337  1.0000
  C   C107      1.0  0.2813159790008585  0.4918727337596208  0.038502101451506086  1.0000
  C   C108      1.0  0.7186788738273081  0.5081252440478323  0.9614971305163561  1.0000
  C   C109      1.0  0.16022344883042197  0.47771740506028215  0.0775404581335124  1.0000
  C   C110      1.0  0.8397718476457499  0.5222783373093165  0.9224573767800094  1.0000
  C   C111      1.0  0.04904800638102097  0.5573349702596033  0.08165511416488158  1.0000
  C   C112      1.0  0.9509534543649852  0.4426622276806141  0.9183451239956921  1.0000
  C   C113      1.0  0.05955220939939923  0.6510705574326535  0.047366043370082864  1.0000
  C   C114      1.0  0.940446024381018  0.348926660232145  0.9526331179426677  1.0000
  I   I1        1.0  0.6320619181044905  0.856285104402687  0.5022666071967947  1.0000
  I   I2        1.0  0.3679365296718445  0.14371659741999568  0.497732843537669  1.0000
  I   I3        1.0  0.8445772006157174  0.9086994114351368  0.06088740277466802  1.0000
  I   I4        1.0  0.15541965319857812  0.091299296477402  0.9391132855037795  1.0000
  N   N1        1.0  0.30112346683518615  0.940364455684893  0.4274582010166269  1.0000
  N   N2        1.0  0.6988743196348256  0.0596349945810317  0.5725427664413586  1.0000
  N   N3        1.0  0.22974208263745785  0.9266184320305296  0.07154462906652978  1.0000
  N   N4        1.0  0.770256354151698  0.07338326128198956  0.9284560489406031  1.0000
  N   N5        1.0  0.9933027615648203  0.4535051560520527  0.24665642372117694  1.0000
  N   N6        1.0  0.00670935302000691  0.5464927562717463  0.7533428241625796  1.0000
