data_image0
_chemical_formula_structural       Zn16H32C72O56
_chemical_formula_sum              "Zn16 H32 C72 O56"
_cell_length_a       11.501271062016222
_cell_length_b       16.48050392800186
_cell_length_c       16.480528934022946
_cell_angle_alpha    90.0000539182221
_cell_angle_beta     89.99981212546234
_cell_angle_gamma    89.99999211702274

_space_group_name_H-M_alt    "P 1"
_space_group_IT_number       1

loop_
  _space_group_symop_operation_xyz
  'x, y, z'

loop_
  _atom_site_type_symbol
  _atom_site_label
  _atom_site_symmetry_multiplicity
  _atom_site_fract_x
  _atom_site_fract_y
  _atom_site_fract_z
  _atom_site_occupancy
  Zn  Zn1       1.0  0.13915854527252952  0.37663609605809967  0.3578823384892046  1.0000
  Zn  Zn2       1.0  0.1391578699962324  0.6233641222332126  0.6421172639369813  1.0000
  Zn  Zn3       1.0  0.1391576078279186  0.6421158510804547  0.3766355022693445  1.0000
  Zn  Zn4       1.0  0.1391570685039483  0.3578849739882273  0.6233634933825198  1.0000
  Zn  Zn5       1.0  0.3608442239218449  0.12336311825546892  0.8578853293557527  1.0000
  Zn  Zn6       1.0  0.3608423173594416  0.876635864204182  0.14211193354542218  1.0000
  Zn  Zn7       1.0  0.36083976452241734  0.8578819289858187  0.8766356799086947  1.0000
  Zn  Zn8       1.0  0.3608432988793878  0.14211948058483156  0.12336279655097827  1.0000
  Zn  Zn9       1.0  0.8608398436979314  0.6233640859732362  0.6421133849509957  1.0000
  Zn  Zn10      1.0  0.8608422578971542  0.3766360598011786  0.3578851340442454  1.0000
  Zn  Zn11      1.0  0.8608442590108323  0.35788251061973847  0.62336386182578  1.0000
  Zn  Zn12      1.0  0.8608413204536447  0.6421188487110498  0.37663769104916867  1.0000
  Zn  Zn13      1.0  0.6391567734392679  0.8766370637791638  0.14211767540109574  1.0000
  Zn  Zn14      1.0  0.6391595494860454  0.12336492460482869  0.8578843966676358  1.0000
  Zn  Zn15      1.0  0.6391603633769947  0.14211339882692894  0.12336429096367843  1.0000
  Zn  Zn16      1.0  0.6391568290234062  0.8578843421129391  0.8766353539954677  1.0000
  H   H1        1.0  0.18640143059290176  0.15543345964956504  0.244538122766201  1.0000
  H   H2        1.0  0.1864054104855484  0.8445685742270755  0.7554613690108238  1.0000
  H   H3        1.0  0.18640244808435114  0.7554593661459776  0.15543507553394414  1.0000
  H   H4        1.0  0.1864061319297221  0.24454084739846146  0.8445656297934716  1.0000
  H   H5        1.0  0.31359490291639247  0.3445650412027064  0.7445396120770338  1.0000
  H   H6        1.0  0.31359773467561786  0.6554357663377459  0.25545897503236137  1.0000
  H   H7        1.0  0.313595069753184  0.7445357786071014  0.6554316165199052  1.0000
  H   H8        1.0  0.3135975678433951  0.2554607814895533  0.3445651502575727  1.0000
  H   H9        1.0  0.8135943499622584  0.8445624749406803  0.755461241334906  1.0000
  H   H10       1.0  0.8135921090032737  0.15543160780687512  0.2445398154201683  1.0000
  H   H11       1.0  0.8135959408692983  0.24454202944390604  0.844567929226528  1.0000
  H   H12       1.0  0.8135922570350047  0.7554611549667103  0.15543252075415376  1.0000
  H   H13       1.0  0.6864069639167382  0.6554339272761923  0.25546217912494024  1.0000
  H   H14       1.0  0.6864050016404377  0.34456441569337665  0.7445367484027512  1.0000
  H   H15       1.0  0.6864076665548565  0.25546076276035734  0.3445677475733432  1.0000
  H   H16       1.0  0.6864042989883429  0.7445381869896295  0.6554372477210463  1.0000
  H   H17       1.0  0.9999980681708039  0.48678379810191796  0.40287569055956135  1.0000
  H   H18       1.0  1.2471492567999998e-06  0.9386431041143267  0.17590863065657195  1.0000
  H   H19       1.0  0.9999976200432316  0.5132187608009247  0.5971249296330965  1.0000
  H   H20       1.0  0.9999954028761238  0.06135586436339931  0.8240901266683023  1.0000
  H   H21       1.0  0.9999996042375158  0.5971257305291716  0.48678385036373567  1.0000
  H   H22       1.0  0.9999994157254193  0.8240923039402688  0.9386438476671086  1.0000
  H   H23       1.0  1.3931303826000006e-06  0.4028762718367175  0.5132161205107619  1.0000
  H   H24       1.0  2.4511088199000005e-06  0.1759096984261532  0.06135733675964869  1.0000
  H   H25       1.0  0.5000009243702763  0.0132160150960985  0.9028757822358597  1.0000
  H   H26       1.0  0.499999654620261  0.5613544870200826  0.6759069898361785  1.0000
  H   H27       1.0  0.4999974645890575  0.9867841669375178  0.09712479541747847  1.0000
  H   H28       1.0  0.4999996038109769  0.4386456950129229  0.3240923742628538  1.0000
  H   H29       1.0  0.5000006482558206  0.9028745300803112  0.9867818815525449  1.0000
  H   H30       1.0  0.5000054049959672  0.6759139791337887  0.4386422074016635  1.0000
  H   H31       1.0  0.5000020880519925  0.09712443839739393  0.013217482541840294  1.0000
  H   H32       1.0  0.49999993971857043  0.3240916638969722  0.5613571566928072  1.0000
  C   C1        1.0  0.1052695552492509  0.12298966934169192  0.23412227467903785  1.0000
  C   C2        1.0  0.1055156834055992  0.042299163056057396  0.20761519883863136  1.0000
  C   C3        1.0  0.21720329010555867  0.9999767824477744  0.18964461477724365  1.0000
  C   C4        1.0  0.1052734812525244  0.8770111591319535  0.7658768003346521  1.0000
  C   C5        1.0  0.10551077792293737  0.9576992382836238  0.7923850891611008  1.0000
  C   C6        1.0  0.21720282953941708  2.58551112893e-05  0.8103541980895412  1.0000
  C   C7        1.0  0.1052723581919395  0.76587469181041  0.12298900807689954  1.0000
  C   C8        1.0  0.10551425323044579  0.7923847655243819  0.042299862451706395  1.0000
  C   C9        1.0  0.2172014488857101  0.810351287454658  0.9999741001566773  1.0000
  C   C10       1.0  0.10527328671567912  0.23412735021851463  0.8770106737109555  1.0000
  C   C11       1.0  0.1055191638518451  0.2076197035902894  0.9576998187660946  1.0000
  C   C12       1.0  0.217204670760772  0.18965013654899823  2.4105932894299994e-05  1.0000
  C   C13       1.0  0.3947276955226613  0.37700821492886405  0.7341229977233752  1.0000
  C   C14       1.0  0.3944816889943823  0.45769869626433046  0.7076141780484376  1.0000
  C   C15       1.0  0.28279667915798257  0.500025069060598  0.6896476723846658  1.0000
  C   C16       1.0  0.394729616118262  0.622990157348589  0.265874792593344  1.0000
  C   C17       1.0  0.39448437259505187  0.542300889592937  0.2923836128441123  1.0000
  C   C18       1.0  0.282796679868774  0.49997634835226284  0.3103509868589  1.0000
  C   C19       1.0  0.3947279169193152  0.7341210291823971  0.6229889899106735  1.0000
  C   C20       1.0  0.3944890005188739  0.7076151269638871  0.5422998199080026  1.0000
  C   C21       1.0  0.2827979659499888  0.6896453951467691  0.4999742376049382  1.0000
  C   C22       1.0  0.3947293947173732  0.26587794987347724  0.37701062073625735  1.0000
  C   C23       1.0  0.3944840168153263  0.29238263856205293  0.45770161163539297  1.0000
  C   C24       1.0  0.2827953930757161  0.3103523816010067  0.5000250284135531  1.0000
  C   C25       1.0  0.8947253558406841  0.8770092991355514  0.7658752690945929  1.0000
  C   C26       1.0  0.8944809666185095  0.9576985918668298  0.7923841652623125  1.0000
  C   C27       1.0  0.7827933599308424  2.3399582794100008e-05  0.8103492883350679  1.0000
  C   C28       1.0  0.8947266466437043  0.1229884161243007  0.23412438409300043  1.0000
  C   C29       1.0  0.8944823942192455  0.042297303085462104  0.20761670204991123  1.0000
  C   C30       1.0  0.7827981678219871  0.9999712930355288  0.18964880666587894  1.0000
  C   C31       1.0  0.8947260307629818  0.23412791733431965  0.8770133899075032  1.0000
  C   C32       1.0  0.8944858746639354  0.20761966395266282  0.9577019287548791  1.0000
  C   C33       1.0  0.7827986790119184  0.18964828780131876  2.6477494330399992e-05  1.0000
  C   C34       1.0  0.8947224938443057  0.7658764724788938  0.1229862632873022  1.0000
  C   C35       1.0  0.894485311392181  0.7923859394408057  0.04230015210603709  1.0000
  C   C36       1.0  0.7827945876699404  0.8103555064820683  0.9999752581687101  1.0000
  C   C37       1.0  0.6052767797207821  0.6229889332166394  0.2658775799214084  1.0000
  C   C38       1.0  0.605517569434234  0.5422996654365662  0.2923863996030249  1.0000
  C   C39       1.0  0.717203448731226  0.49997511297464586  0.3103565459264813  1.0000
  C   C40       1.0  0.6052722507285608  0.37701123823769933  0.7341209308433604  1.0000
  C   C41       1.0  0.6055157553093551  0.45770050599429624  0.7076139309245446  1.0000
  C   C42       1.0  0.7172025785693563  0.5000244404568761  0.6896453433572132  1.0000
  C   C43       1.0  0.6052722109813188  0.26587611896275126  0.3770103741859144  1.0000
  C   C44       1.0  0.6055189526021394  0.2923850550689693  0.4577001509574855  1.0000
  C   C45       1.0  0.7172047703551525  0.31035235977638104  0.5000263400421614  1.0000
  C   C46       1.0  0.6052750805241587  0.7341246592703713  0.6229905636877362  1.0000
  C   C47       1.0  0.6055187194867457  0.7076181502494804  0.5423001795664176  1.0000
  C   C48       1.0  0.7172056042948539  0.689650834319437  0.4999737289082303  1.0000
  C   C49       1.0  0.9999932368026592  0.16306607541996238  0.24812747101493213  1.0000
  C   C50       1.0  1.2898297541000001e-06  0.0016517406206802  0.19569214226659423  1.0000
  C   C51       1.0  0.9999966366870795  0.24859017363014155  0.2786192510430609  1.0000
  C   C52       1.0  0.9999981040663072  0.8369310224850396  0.7518731491802482  1.0000
  C   C53       1.0  0.9999970991299776  0.9983441939700057  0.8043084353847403  1.0000
  C   C54       1.0  1.7522712525000006e-06  0.7514057609608288  0.7213819333849185  1.0000
  C   C55       1.0  0.9999977239512743  0.7518720599128843  0.16306676448737525  1.0000
  C   C56       1.0  0.9999998282657926  0.8043090941124618  0.0016563143647302997  1.0000
  C   C57       1.0  0.9999949222024681  0.7213797073204234  0.24859070424025015  1.0000
  C   C58       1.0  3.2734180238e-06  0.2481299424527208  0.8369325996104775  1.0000
  C   C59       1.0  1.1690948653999993e-06  0.19569594214267036  0.998346690394399  1.0000
  C   C60       1.0  0.9999998965440113  0.278621031249493  0.7514093091759262  1.0000
  C   C61       1.0  0.4999960321563748  0.33693177179038963  0.7481248333827678  1.0000
  C   C62       1.0  0.5000013540901663  0.4983436803672845  0.695692126147655  1.0000
  C   C63       1.0  0.5000011870517297  0.25140830905804284  0.7786183532721863  1.0000
  C   C64       1.0  0.5000023568085865  0.6630678034645285  0.2518733171637138  1.0000
  C   C65       1.0  0.4999996432779099  0.50165650166592  0.3043078447259829  1.0000
  C   C66       1.0  0.5000032881942005  0.7485918729746999  0.22138101082073547  1.0000
  C   C67       1.0  0.5000022749245973  0.7481254688952605  0.6630695042880885  1.0000
  C   C68       1.0  0.5000026501686462  0.6956943505439739  0.5016541506207942  1.0000
  C   C69       1.0  0.4999977285044466  0.778614868098565  0.7485940795075263  1.0000
  C   C70       1.0  0.5000074171333182  0.25187410636023333  0.336931073351728  1.0000
  C   C71       1.0  0.4999974777315258  0.3043076518216736  0.4983452134780817  1.0000
  C   C72       1.0  0.500003268857121  0.22138045971556863  0.25140892524703407  1.0000
  O   O1        1.0  0.0988579455387679  0.2815218631784476  0.2905859571593936  1.0000
  O   O2        1.0  0.311461679141054  0.03924462165782929  0.1804119458344928  1.0000
  O   O3        1.0  0.2144323136954114  0.9224300003894541  0.18337718560935903  1.0000
  O   O4        1.0  0.0988647688027484  0.7184741117236656  0.7094234480677526  1.0000
  O   O5        1.0  0.3114601261516937  0.9607543657633641  0.8195842191687033  1.0000
  O   O6        1.0  0.21443094032588317  0.0775708171154008  0.8166216337473668  1.0000
  O   O7        1.0  0.09885618717293451  0.7094147213413323  0.281523949312998  1.0000
  O   O8        1.0  0.31146279913159697  0.8195823444170429  0.03924390690926319  1.0000
  O   O9        1.0  0.21442801971115696  0.8166174429872302  0.9224304786496302  1.0000
  O   O10       1.0  0.0988647882464235  0.2905879281106323  0.7184781745996247  1.0000
  O   O11       1.0  0.3114650924407414  0.18041724978225906  0.9607540784170181  1.0000
  O   O12       1.0  0.214432625901388  0.18338337451804423  0.07756894748679598  1.0000
  O   O13       1.0  0.4011338293442463  0.21847728779264486  0.7905859092600308  1.0000
  O   O14       1.0  0.1885358180677343  0.4607544256150079  0.6804150509115131  1.0000
  O   O15       1.0  0.28556768432127194  0.5775694181104356  0.6833821300170724  1.0000
  O   O16       1.0  0.4011420654895801  0.7815247245072996  0.2094142931541683  1.0000
  O   O17       1.0  0.188536638508026  0.5392470012683361  0.3195814019869018  1.0000
  O   O18       1.0  0.2855685403280077  0.4224313922466649  0.3166171295120462  1.0000
  O   O19       1.0  0.4011355352967315  0.7905756878730942  0.7815257895786798  1.0000
  O   O20       1.0  0.18853959916972943  0.6804139045297362  0.5392443211145376  1.0000
  O   O21       1.0  0.28557088145659293  0.6833779530718759  0.4224293901535033  1.0000
  O   O22       1.0  0.401142098469343  0.2094160092096331  0.21847744671184435  1.0000
  O   O23       1.0  0.18853807421539412  0.31958509524423556  0.4607545588831953  1.0000
  O   O24       1.0  0.28556795159770587  0.31661800306517307  0.5775710829235621  1.0000
  O   O25       1.0  0.9011395739585168  0.7184771052986603  0.7094115866111748  1.0000
  O   O26       1.0  0.6885332319629711  0.9607525264838657  0.8195795301718645  1.0000
  O   O27       1.0  0.7855669447471813  0.0775677545310174  0.8166173242753983  1.0000
  O   O28       1.0  0.9011318811965836  0.28152060931654443  0.2905868380113218  1.0000
  O   O29       1.0  0.68853826281633  0.03924217560317089  0.18041271782306714  1.0000
  O   O30       1.0  0.7855683180888704  0.9224269378107834  0.18338501167022503  1.0000
  O   O31       1.0  0.9011395933748079  0.2905860674708407  0.7184784486736076  1.0000
  O   O32       1.0  0.6885399371723864  0.18041298339614537  0.9607572775133375  1.0000
  O   O33       1.0  0.7855703692427696  0.1833809187148461  0.07757252610941377  1.0000
  O   O34       1.0  0.9011301228404989  0.7094134674774324  0.2815205827284259  1.0000
  O   O35       1.0  0.6885359049297222  0.8195871796933076  0.039244678905340884  1.0000
  O   O36       1.0  0.7855692409394663  0.8166222685123188  0.9224292030584704  1.0000
  O   O37       1.0  0.5988697764270582  0.781522287463723  0.20941588194019534  1.0000
  O   O38       1.0  0.8114625708791791  0.5392445428660577  0.3195909877310256  1.0000
  O   O39       1.0  0.7144298351607005  0.42242955036981306  0.3166220882965546  1.0000
  O   O40       1.0  0.5988606708164994  0.21847788463607293  0.7905856777185745  1.0000
  O   O41       1.0  0.8114617504648791  0.4607568214278074  0.6804131079017279  1.0000
  O   O42       1.0  0.714428109704109  0.5775700033398791  0.6833785939307616  1.0000
  O   O43       1.0  0.5988680704686971  0.2094123586110186  0.21847903549932815  1.0000
  O   O44       1.0  0.8114648760749288  0.3195850639481676  0.4607556497544606  1.0000
  O   O45       1.0  0.7144335937870138  0.3166173747409431  0.5775711874904204  1.0000
  O   O46       1.0  0.5988597683637309  0.7905835660468269  0.781524344490421  1.0000
  O   O47       1.0  0.8114655315626464  0.6804169071209571  0.5392441984349572  1.0000
  O   O48       1.0  0.7144321762980681  0.6833864264115875  0.4224301015063786  1.0000
  O   O49       1.0  0.9999998111299394  0.4264682884080245  0.40359408572683003  1.0000
  O   O50       1.0  0.9999993549620712  0.5735330569392331  0.596405927684543  1.0000
  O   O51       1.0  0.9999988732104865  0.5964066707323639  0.4264684315114876  1.0000
  O   O52       1.0  1.2546898063e-06  0.40359411807816065  0.573530932586813  1.0000
  O   O53       1.0  0.5000009170515939  0.0735315254664002  0.9035948409307434  1.0000
  O   O54       1.0  0.5000009497856581  0.9264680497892002  0.09640512994159417  1.0000
  O   O55       1.0  0.49999817815405107  0.9035929263291252  0.9264670701552118  1.0000
  O   O56       1.0  0.5000010802771797  0.09640725570388751  0.07353229394382767  1.0000
