data_image0
_chemical_formula_structural       Al4H10C10O16
_chemical_formula_sum              "Al4 H10 C10 O16"
_cell_length_a       7.141429874572403
_cell_length_b       7.481772983677297
_cell_length_c       11.11111265289279
_cell_angle_alpha    107.5130760294677
_cell_angle_beta     106.49506747754944
_cell_angle_gamma    96.39112934122997

_space_group_name_H-M_alt    "P 1"
_space_group_IT_number       1

loop_
  _space_group_symop_operation_xyz
  'x, y, z'

loop_
  _atom_site_type_symbol
  _atom_site_label
  _atom_site_symmetry_multiplicity
  _atom_site_fract_x
  _atom_site_fract_y
  _atom_site_fract_z
  _atom_site_occupancy
  Al  Al1       1.0  0.291798080817351  0.2918057229096647  0.5836427377555322  1.0000
  Al  Al2       1.0  0.7082055434818172  0.70819817088325  0.41635757949956786  1.0000
  Al  Al3       1.0  0.5000049306375373  4.5672586707992235e-06  0.5000019041231452  1.0000
  Al  Al4       1.0  3.993522000182765e-06  0.49999822319418286  0.4999960429165354  1.0000
  H   H1        1.0  0.45132208926334977  0.6654599016309033  0.9999413368088593  1.0000
  H   H2        1.0  0.548676435213082  0.3345339241098627  5.780915930128157e-05  1.0000
  H   H3        1.0  0.6536862066049238  0.33073912950823814  0.6711781184362947  1.0000
  H   H4        1.0  0.017480100174438507  0.34050876740554503  0.6712460956614804  1.0000
  H   H5        1.0  0.34631643820506497  0.6692733351501443  0.32883367264817304  1.0000
  H   H6        1.0  0.9825137868019097  0.6594907744443645  0.3287479841418133  1.0000
  H   H7        1.0  0.32341740635462907  0.5234939774486306  0.4611590480153395  1.0000
  H   H8        1.0  0.13766011722417903  0.9375845981488309  0.46120679359339783  1.0000
  H   H9        1.0  0.6765892748512883  0.4765170911891941  0.5388477830370775  1.0000
  H   H10       1.0  0.8623499434740366  0.06242221410231959  0.5387898754695398  1.0000
  C   C1        1.0  0.3293898259891249  0.6802566620128939  0.750260088465282  1.0000
  C   C2        1.0  0.42131012088122327  0.07012559287942112  0.7503706851858708  1.0000
  C   C3        1.0  0.6706023178877204  0.319741425724338  0.2497378814555588  1.0000
  C   C4        1.0  0.5786861102987757  0.9298710829945802  0.2496295306968007  1.0000
  C   C5        1.0  0.426113748101038  0.845137841352745  0.878778639483336  1.0000
  C   C6        1.0  0.4530108822320429  0.0337115607589951  0.8788474374787397  1.0000
  C   C7        1.0  0.5738727775731577  0.15485447267657543  0.12121984269369784  1.0000
  C   C8        1.0  0.5469814929350247  0.9662807895787678  0.12115210279027616  1.0000
  C   C9        1.0  0.4749830633728748  0.811991004084909  0.9999558232485197  1.0000
  C   C10       1.0  0.5250034623013207  0.1880013099444113  4.26589285140855e-05  1.0000
  O   O1        1.0  0.5571567929403045  0.2763154965711934  0.5811706930568192  1.0000
  O   O2        1.0  0.024046542336996872  0.3049552929302591  0.5812552198118934  1.0000
  O   O3        1.0  0.4428522070156475  0.7236927140120597  0.4188386710780349  1.0000
  O   O4        1.0  0.9759531941322164  0.6950442852280927  0.41873991808338923  1.0000
  O   O5        1.0  0.22455715304280938  0.423628857195581  0.4638597718404681  1.0000
  O   O6        1.0  0.2392811094945984  0.0401851410044927  0.4640104104053221  1.0000
  O   O7        1.0  0.7754490707326837  0.5763736235783268  0.5361389238565265  1.0000
  O   O8        1.0  0.7607304453938539  0.9598216704220944  0.5359910269267871  1.0000
  O   O9        1.0  0.4077771312175996  0.5338959438654811  0.7335394836682737  1.0000
  O   O10       1.0  0.3259063566881792  0.19953252796985044  0.7335438654009535  1.0000
  O   O11       1.0  0.5922223563423543  0.46610217935563  0.26646431261371356  1.0000
  O   O12       1.0  0.6740903737815174  0.8004598595009113  0.26645196469088  1.0000
  O   O13       1.0  0.1694247490511884  0.6952616462522413  0.6700434893075523  1.0000
  O   O14       1.0  0.5012285736747514  0.9750404836178033  0.6702104922219687  1.0000
  O   O15       1.0  0.8305743623314186  0.30473506163831837  0.329950950376471  1.0000
  O   O16       1.0  0.49878175649411105  0.024960579351869686  0.32979315168455503  1.0000
