data_image0
_chemical_formula_structural       Zn4H48C56N16O16
_chemical_formula_sum              "Zn4 H48 C56 N16 O16"
_cell_length_a       10.983433045331772
_cell_length_b       11.473459654269965
_cell_length_c       12.647753754410981
_cell_angle_alpha    90.00073515147189
_cell_angle_beta     111.30849541819032
_cell_angle_gamma    89.99998849208606

_space_group_name_H-M_alt    "P 1"
_space_group_IT_number       1

loop_
  _space_group_symop_operation_xyz
  'x, y, z'

loop_
  _atom_site_type_symbol
  _atom_site_label
  _atom_site_symmetry_multiplicity
  _atom_site_fract_x
  _atom_site_fract_y
  _atom_site_fract_z
  _atom_site_occupancy
  Zn  Zn1       1.0  0.020726272604626707  0.07244379466487061  0.2593581057084862  1.0000
  Zn  Zn2       1.0  0.5207283553969831  0.4275555198524686  0.7593655739812561  1.0000
  Zn  Zn3       1.0  0.9792712722981207  0.9275501433203956  0.7406383900941975  1.0000
  Zn  Zn4       1.0  0.4792740264419494  0.5724471338983221  0.24063077041202516  1.0000
  H   H1        1.0  0.04530666350265731  0.637768192523083  0.34208200455299215  1.0000
  H   H2        1.0  0.5453039876305682  0.8622349294753562  0.8420706870328161  1.0000
  H   H3        1.0  0.9546892872262236  0.36222748869595034  0.657925883235805  1.0000
  H   H4        1.0  0.4546996589954518  0.13776423803810903  0.1579355220580183  1.0000
  H   H5        1.0  0.4222926239982172  0.28787851075009036  0.5292946275845125  1.0000
  H   H6        1.0  0.9222950468597518  0.21212360920547724  0.029288900848769072  1.0000
  H   H7        1.0  0.5777000360400707  0.7121223998388476  0.47070042376230237  1.0000
  H   H8        1.0  0.07770542900289  0.7878816592826895  0.9707084617310499  1.0000
  H   H9        1.0  0.8668884483094744  0.9459423503030422  0.396325768219171  1.0000
  H   H10       1.0  0.3668946008670774  0.5540658519302113  0.8963328568792901  1.0000
  H   H11       1.0  0.1331062136496541  0.05405768872439148  0.6036714568928544  1.0000
  H   H12       1.0  0.6331008701691587  0.4459324439064574  0.10365907122637444  1.0000
  H   H13       1.0  0.8947054364970984  0.7080667332535455  0.44240853251209  1.0000
  H   H14       1.0  0.394708561285377  0.7919447294921439  0.9424048751099788  1.0000
  H   H15       1.0  0.10528743941063821  0.29193592053937323  0.5575937007116352  1.0000
  H   H16       1.0  0.6052910814827613  0.20805008010749051  0.057596986409677774  1.0000
  H   H17       1.0  0.10819755821746922  0.8038210955425882  0.2348644045785022  1.0000
  H   H18       1.0  0.6081942159125405  0.6961744059862625  0.7348580509223552  1.0000
  H   H19       1.0  0.8918022044686182  0.19617109935507676  0.7651414468488438  1.0000
  H   H20       1.0  0.3918063558830698  0.3038282477943142  0.2651425035801225  1.0000
  H   H21       1.0  0.2040548273024712  0.3035735353372857  0.3569731236644315  1.0000
  H   H22       1.0  0.7040469372425947  0.19643061717724916  0.8569765006606643  1.0000
  H   H23       1.0  0.7959406197348928  0.6964195310336124  0.6430180064212793  1.0000
  H   H24       1.0  0.2959497986108275  0.8035755229190755  0.1430252922182262  1.0000
  H   H25       1.0  0.46641197615412733  0.0802938499169699  0.6010565282946274  1.0000
  H   H26       1.0  0.9664270577855447  0.4197084041156032  0.10105145515591112  1.0000
  H   H27       1.0  0.5335791616698629  0.9197105470759867  0.3989523090050183  1.0000
  H   H28       1.0  0.0335810420054088  0.5802951211899768  0.8989418347359431  1.0000
  H   H29       1.0  0.2585581644109141  0.9495258402925798  0.4528270743384581  1.0000
  H   H30       1.0  0.7585691103586429  0.5504779431192189  0.9528366738282087  1.0000
  H   H31       1.0  0.7414368573205863  0.05047332724249289  0.5471821205431979  1.0000
  H   H32       1.0  0.24143722736358345  0.44952732538077816  0.04716242215454261  1.0000
  H   H33       1.0  0.2781847586019382  0.9378452940615105  0.004367438528369411  1.0000
  H   H34       1.0  0.7781819689901113  0.5621495511165335  0.5043691594422127  1.0000
  H   H35       1.0  0.7218136913595218  0.0621625891359159  0.9956269523128469  1.0000
  H   H36       1.0  0.22181953177972966  0.43784090058110076  0.4956300879091983  1.0000
  H   H37       1.0  0.3860982717456737  0.016049248157820308  0.8742931345933371  1.0000
  H   H38       1.0  0.8860954679380203  0.48394553715981914  0.3742946021939417  1.0000
  H   H39       1.0  0.61389922522185  0.983957763466563  0.1257017653266032  1.0000
  H   H40       1.0  0.11390688990666581  0.5160536302785843  0.6257009441910242  1.0000
  H   H41       1.0  0.22542124712132514  0.3530784581207058  0.8856887774771349  1.0000
  H   H42       1.0  0.7254208483193595  0.1469138942742063  0.38569647482174224  1.0000
  H   H43       1.0  0.7745784676318481  0.6469276819927785  0.11431547807328712  1.0000
  H   H44       1.0  0.2745885162447905  0.8530809153338978  0.6143066797327419  1.0000
  H   H45       1.0  0.11323823129833242  0.2755403324565719  0.012033406005770091  1.0000
  H   H46       1.0  0.6132363520297162  0.2244580986552976  0.5120388908031259  1.0000
  H   H47       1.0  0.8867594815270581  0.7244640644883374  0.9879686757619766  1.0000
  H   H48       1.0  0.3867711545142072  0.7755340962412731  0.48796687787303467  1.0000
  C   C1        1.0  0.9211943395946633  0.8804667062355308  0.37011248707110395  1.0000
  C   C2        1.0  0.4211967642372301  0.6195411193434097  0.8701137087825117  1.0000
  C   C3        1.0  0.07880134731102119  0.11953333280511907  0.6298866229114706  1.0000
  C   C4        1.0  0.5788007087175303  0.380455433355067  0.12988039308254432  1.0000
  C   C5        1.0  0.9335444550972343  0.7632398009480069  0.3928828673688471  1.0000
  C   C6        1.0  0.43354833565866363  0.7367674723478502  0.8928811558537502  1.0000
  C   C7        1.0  0.0664503267891092  0.23676110968422387  0.6071183476741453  1.0000
  C   C8        1.0  0.5664522121403907  0.2632308235436511  0.10711860063459262  1.0000
  C   C9        1.0  0.0460105062912461  0.8101787286505483  0.2843345533459214  1.0000
  C   C10       1.0  0.5460110381242631  0.689820964639395  0.784329270401514  1.0000
  C   C11       1.0  0.9539853245104268  0.18981608096368774  0.7156693445119088  1.0000
  C   C12       1.0  0.4539914156626566  0.3101790743981852  0.21566946792938776  1.0000
  C   C13       1.0  0.2459440443717753  0.2241958748841597  0.40207730159777805  1.0000
  C   C14       1.0  0.7459452009552978  0.2758071646759035  0.9020787530344448  1.0000
  C   C15       1.0  0.7540515465777774  0.7757980630971629  0.5979186164039305  1.0000
  C   C16       1.0  0.25405339291140194  0.7241989754018759  0.09792042570531118  1.0000
  C   C17       1.0  0.38252282941303417  0.10468876730693209  0.5273102860672195  1.0000
  C   C18       1.0  0.8825331603823162  0.3953142015442949  0.027312220425926712  1.0000
  C   C19       1.0  0.6174700464877603  0.8953112717559147  0.4726919471390403  1.0000
  C   C20       1.0  0.1174721284083731  0.6046910669368657  0.9726841927012443  1.0000
  C   C21       1.0  0.2787510338928598  0.042046307768892205  0.455449040728432  1.0000
  C   C22       1.0  0.7787580911386344  0.45795922291920027  0.9554559656059567  1.0000
  C   C23       1.0  0.7212447729377234  0.9579537312998668  0.5445540591792905  1.0000
  C   C24       1.0  0.22124531565611252  0.5420469171515664  0.044542263681151405  1.0000
  C   C25       1.0  0.13230607188950932  0.054971902511212506  0.0990075953695921  1.0000
  C   C26       1.0  0.6323081995426917  0.4450268803863366  0.5990137010388921  1.0000
  C   C27       1.0  0.8676934989445259  0.9450307512617684  0.900991872247367  1.0000
  C   C28       1.0  0.3676991870763402  0.5549653144821249  0.40098807771212813  1.0000
  C   C29       1.0  0.18854497659453537  0.10155621593262508  0.01593513643275911  1.0000
  C   C30       1.0  0.6885448787932021  0.39844138867515255  0.515939244086631  1.0000
  C   C31       1.0  0.8114556191930049  0.8984490525836508  0.9840662160722145  1.0000
  C   C32       1.0  0.3114635327816445  0.601554292513292  0.4840644195582157  1.0000
  C   C33       1.0  0.26572736849362144  0.0283679722084926  0.9768507871805878  1.0000
  C   C34       1.0  0.7657284551139725  0.47162827447957073  0.4768548418231261  1.0000
  C   C35       1.0  0.7342731313540016  0.9716372962852943  0.023147373384262027  1.0000
  C   C36       1.0  0.23427507157557412  0.5283665351223304  0.5231473773134637  1.0000
  C   C37       1.0  0.3262298306111121  0.0715375321425356  0.9057358997337344  1.0000
  C   C38       1.0  0.826227780907182  0.42845508951151606  0.40573930902456806  1.0000
  C   C39       1.0  0.6737697162541566  0.9284712226616634  0.09426276993893622  1.0000
  C   C40       1.0  0.17377762777829991  0.5715388485007651  0.5942610939520846  1.0000
  C   C41       1.0  0.3131440224937023  0.189201032745828  0.8737911141591325  1.0000
  C   C42       1.0  0.8131452315389682  0.3107920119488838  0.3737933094512869  1.0000
  C   C43       1.0  0.6868576462196148  0.8108077221016714  0.12621371920972993  1.0000
  C   C44       1.0  0.18685626924013124  0.6892019260555174  0.626205937923416  1.0000
  C   C45       1.0  0.23453061929407681  0.2618280438331837  0.911167572278991  1.0000
  C   C46       1.0  0.7345286074645047  0.2381646664475525  0.41117112273657597  1.0000
  C   C47       1.0  0.7654690714787479  0.7381798394280566  0.08883588529803894  1.0000
  C   C48       1.0  0.26547782615826787  0.761825785271178  0.5888311650873419  1.0000
  C   C49       1.0  0.1722328137806457  0.2183612686167536  0.9811829076156329  1.0000
  C   C50       1.0  0.6722329388975367  0.28163679458232593  0.4811860205208162  1.0000
  C   C51       1.0  0.8277678539595215  0.7816431283396952  0.01882083883860722  1.0000
  C   C52       1.0  0.3277734707472035  0.7183562718608627  0.5188154693355357  1.0000
  C   C53       1.0  0.39200573965294444  0.2373325155830059  0.8080696574031804  1.0000
  C   C54       1.0  0.8920008550758639  0.2626552345200324  0.30807027435515266  1.0000
  C   C55       1.0  0.6079938551776466  0.7626744960790575  0.19193060822791347  1.0000
  C   C56       1.0  0.10799962075204664  0.7373369603177622  0.6919270881373549  1.0000
  N   N1        1.0  0.9917278884877376  0.9083671372054026  0.302367144524311  1.0000
  N   N2        1.0  0.4917292358634669  0.5916336232160333  0.8023693005951172  1.0000
  N   N3        1.0  0.008269728374585799  0.09162854395011522  0.6976317452451041  1.0000
  N   N4        1.0  0.5082712159979864  0.40836554422967464  0.1976272639589283  1.0000
  N   N5        1.0  0.0118714227383236  0.7208381382036108  0.33769131390249635  1.0000
  N   N6        1.0  0.5118743592380142  0.7791657979357822  0.8376870041148049  1.0000
  N   N7        1.0  0.9881243840922525  0.279161900865141  0.662311786005226  1.0000
  N   N8        1.0  0.4881292154307531  0.22083249798411944  0.16231681101511697  1.0000
  N   N9        1.0  0.19387784538080416  0.11768032383935892  0.37837192009865106  1.0000
  N   N10       1.0  0.6938797358046501  0.3823241316575264  0.8783803801564715  1.0000
  N   N11       1.0  0.8061196995242599  0.8823144857225955  0.621624575709852  1.0000
  N   N12       1.0  0.3061207880279468  0.6176811368418812  0.1216185783934094  1.0000
  N   N13       1.0  0.35992771319697436  0.218850249171112  0.4919286895864302  1.0000
  N   N14       1.0  0.8599317091889349  0.2811531702101391  0.9919270892028819  1.0000
  N   N15       1.0  0.6400650187939406  0.7811497898579987  0.508068755709651  1.0000
  N   N16       1.0  0.14006874268640965  0.7188512266957118  0.008069475386093901  1.0000
  O   O1        1.0  0.0378043594285415  0.11534089125397881  0.1124306019419521  1.0000
  O   O2        1.0  0.5378052373281861  0.38466070800656393  0.6124372083576972  1.0000
  O   O3        1.0  0.9621932574476733  0.8846600193616821  0.8875682878623862  1.0000
  O   O4        1.0  0.4621991703934043  0.6153323584214332  0.3875621077276179  1.0000
  O   O5        1.0  0.17854627390904204  0.9649593660097228  0.1544512465142844  1.0000
  O   O6        1.0  0.6785513239564339  0.5350410940144315  0.6544605024050725  1.0000
  O   O7        1.0  0.8214542259362649  0.035045030907369296  0.8455469140447462  1.0000
  O   O8        1.0  0.3214589696097222  0.46495197243101666  0.34554134506820583  1.0000
  O   O9        1.0  0.47160443267631547  0.1729350406434307  0.786173696300274  1.0000
  O   O10       1.0  0.9716017242876518  0.3270532619271976  0.2861717612817499  1.0000
  O   O11       1.0  0.5283971400947608  0.8270728426048919  0.2138279451226452  1.0000
  O   O12       1.0  0.028399584620871103  0.6729441623389862  0.7138211022359897  1.0000
  O   O13       1.0  0.37389429137881797  0.34760248112439746  0.7831740141490967  1.0000
  O   O14       1.0  0.8738918238003849  0.152386663633564  0.2831764189031531  1.0000
  O   O15       1.0  0.6261062564433929  0.6524045305340138  0.21682574239745384  1.0000
  O   O16       1.0  0.12610777099547482  0.8476072743781345  0.7168238466406291  1.0000
