data_image0
_chemical_formula_structural       Zn2H26C42N2O8
_chemical_formula_sum              "Zn2 H26 C42 N2 O8"
_cell_length_a       14.777327558882625
_cell_length_b       16.126158947662336
_cell_length_c       17.193243477684995
_cell_angle_alpha    90.88603947421731
_cell_angle_beta     95.53657218434219
_cell_angle_gamma    89.11196733001921

_space_group_name_H-M_alt    "P 1"
_space_group_IT_number       1

loop_
  _space_group_symop_operation_xyz
  'x, y, z'

loop_
  _atom_site_type_symbol
  _atom_site_label
  _atom_site_symmetry_multiplicity
  _atom_site_fract_x
  _atom_site_fract_y
  _atom_site_fract_z
  _atom_site_occupancy
  Zn  Zn1       1.0  0.4059916858863986  0.5062671654807005  0.4992156705110347  1.0000
  Zn  Zn2       1.0  0.5956202397279712  0.5025927490075901  0.5051926681508621  1.0000
  H   H1        1.0  0.6161924748920882  0.4129933924558458  0.27289883523550884  1.0000
  H   H2        1.0  0.3780299234635934  0.4712260149916645  0.7373260102638143  1.0000
  H   H3        1.0  0.0618568345085961  0.3634400064785126  0.5251864439874228  1.0000
  H   H4        1.0  0.9393688406204959  0.643938399075729  0.47464076640135744  1.0000
  H   H5        1.0  0.064098120689593  0.5985457685521922  0.6034465316240516  1.0000
  H   H6        1.0  0.9371623829422261  0.40885210943768874  0.3964376477455574  1.0000
  H   H7        1.0  0.6688595103456549  0.45565625397022563  0.7528628065978467  1.0000
  H   H8        1.0  0.33166465441244236  0.47309249483787136  0.24832923379114655  1.0000
  H   H9        1.0  0.6011972099202652  0.4007339284581306  0.0077647596592882165  1.0000
  H   H10       1.0  0.39197428458928835  0.40313707723596076  0.9938338294031795  1.0000
  H   H11       1.0  0.32357840072589983  0.4351665908550331  0.1063310389745027  1.0000
  H   H12       1.0  0.6724372237221984  0.4122338674387294  0.8920193398461012  1.0000
  H   H13       1.0  0.3794893055241744  0.42910062599051446  0.8754188414851003  1.0000
  H   H14       1.0  0.609735962742235  0.37312416922936353  0.132213194478453  1.0000
  H   H15       1.0  0.581607529222957  0.0530824713809466  0.6230016172154934  1.0000
  H   H16       1.0  0.41914551247213433  0.955412956799428  0.377117978536198  1.0000
  H   H17       1.0  0.42409861124821896  0.9528502238490687  0.6100543238906158  1.0000
  H   H18       1.0  0.5764355881343235  0.05577800928544718  0.3901497376920133  1.0000
  H   H19       1.0  0.9574422602840258  0.4573752471086578  0.626264452759763  1.0000
  H   H20       1.0  0.0437683151041455  0.549991387474108  0.37363128371321613  1.0000
  H   H21       1.0  0.7322805556804114  0.9943928076551953  0.5152841636427895  1.0000
  H   H22       1.0  0.6983760751960802  0.9040284161294139  0.5628391456570014  1.0000
  H   H23       1.0  0.696060711343975  0.9047955951780506  0.459262679143052  1.0000
  H   H24       1.0  0.2675989866423619  0.0171574232889213  0.4847287598621294  1.0000
  H   H25       1.0  0.3064775235789697  0.10587709968167049  0.5409142634031312  1.0000
  H   H26       1.0  0.3042623308171528  0.10670178470833491  0.4374688067712853  1.0000
  C   C1        1.0  0.5015862952976845  0.3421234747489592  0.5066960888370033  1.0000
  C   C2        1.0  0.4993506745638924  0.6656550363999756  0.49684043244651843  1.0000
  C   C3        1.0  0.45815645201637517  0.9764260259614019  0.5612756048241678  1.0000
  C   C4        1.0  0.5424740655608317  0.0319869093941278  0.4389082205734099  1.0000
  C   C5        1.0  0.5453141010137728  0.030480576837327095  0.5684466561882645  1.0000
  C   C6        1.0  0.45538098573471325  0.9778682329523816  0.4317533832323193  1.0000
  C   C7        1.0  0.5012608762393072  0.2526053598982685  0.5059370577677811  1.0000
  C   C8        1.0  0.5002383044845472  0.7553402796117652  0.49578641688212605  1.0000
  C   C9        1.0  0.4125572876997978  0.0331788389879719  0.4948830049346  1.0000
  C   C10       1.0  0.5882038085298901  0.9753572053132016  0.5052811497998847  1.0000
  C   C11       1.0  0.5007344517730132  0.08936250811668597  0.5022389960520003  1.0000
  C   C12       1.0  0.5001031204683954  0.918845987458283  0.4980461939667081  1.0000
  C   C13       1.0  0.5014698246701386  0.17700141792975896  0.5042992082778639  1.0000
  C   C14       1.0  0.49960509056796104  0.8310283275354919  0.49629930602543487  1.0000
  C   C15       1.0  0.03371808711609962  0.42560515177739683  0.5139892029253091  1.0000
  C   C16       1.0  0.9675314346345087  0.5818052013854854  0.48589595398751584  1.0000
  C   C17       1.0  0.9777036429821848  0.4779619687852303  0.5703456123070438  1.0000
  C   C18       1.0  0.023528378129931603  0.5294568661399666  0.4295795333602257  1.0000
  C   C19       1.0  0.9662146236198623  0.4509288731972133  0.4423085029147203  1.0000
  C   C20       1.0  0.0349296011297611  0.5565022331071958  0.5576133427932177  1.0000
  C   C21       1.0  0.9081251220955551  0.5033123260010441  0.4986481293556367  1.0000
  C   C22       1.0  0.09308283773118835  0.5041564992920937  0.5013069135391532  1.0000
  C   C23       1.0  0.4819532184844348  0.4785070621156891  0.3515801891066914  1.0000
  C   C24       1.0  0.5197477640441618  0.4944947458761817  0.6537957218257731  1.0000
  C   C25       1.0  0.8123265708487892  0.503002885454471  0.4985296165648166  1.0000
  C   C26       1.0  0.1889630013271884  0.5052068568100195  0.5023249645776816  1.0000
  C   C27       1.0  0.4752070003433815  0.44855946463540863  0.26835535036935454  1.0000
  C   C28       1.0  0.523254594756139  0.46753602037836123  0.7370601520048795  1.0000
  C   C29       1.0  0.5526456228057484  0.4179355780605647  0.23534244194156176  1.0000
  C   C30       1.0  0.4420650300209131  0.45807317815118853  0.772136515850285  1.0000
  C   C31       1.0  0.548520255757289  0.3960164491718885  0.1567100121117164  1.0000
  C   C32       1.0  0.4435453104967593  0.43388506152162876  0.8492613963259075  1.0000
  C   C33       1.0  0.46673270329608124  0.4053095610736364  0.1077765193189677  1.0000
  C   C34       1.0  0.5265800046255507  0.4181913683065374  0.894817659290787  1.0000
  C   C35       1.0  0.3879657426977161  0.429861999218616  0.1429932065567954  1.0000
  C   C36       1.0  0.6074995452142957  0.42510568411346833  0.8580939588355039  1.0000
  C   C37       1.0  0.39202943719890726  0.4515432606922828  0.2218487726303735  1.0000
  C   C38       1.0  0.6060805576349396  0.4495968149769495  0.7806713674513049  1.0000
  C   C39       1.0  0.4611812611106956  0.40006909320884887  0.022810222078149405  1.0000
  C   C40       1.0  0.5320710581395075  0.40286757503550064  0.9784864142218979  1.0000
  C   C41       1.0  0.6838422211628412  0.9429286118107212  0.5109631696575934  1.0000
  C   C42       1.0  0.31758166989486364  0.06734044858058749  0.4891827342122356  1.0000
  N   N1        1.0  0.7338887527590428  0.5027132632943535  0.4996667537377704  1.0000
  N   N2        1.0  0.2675443614806667  0.5066133427473217  0.5027755623090115  1.0000
  O   O1        1.0  0.42410532320037925  0.37840007371261203  0.49777511171343763  1.0000
  O   O2        1.0  0.575990021872876  0.6282960063362139  0.49580223035755483  1.0000
  O   O3        1.0  0.5792594497142148  0.3760714448349561  0.5159658804394881  1.0000
  O   O4        1.0  0.42199549146461374  0.6323604549087134  0.49903216493611074  1.0000
  O   O5        1.0  0.40804045770322966  0.4985088237578592  0.3802205210504114  1.0000
  O   O6        1.0  0.5947722779939468  0.5067845393837446  0.6251463261016923  1.0000
  O   O7        1.0  0.5615256808445892  0.4819920562452395  0.3874457686177025  1.0000
  O   O8        1.0  0.44069244627880266  0.5018516759958016  0.6172712675051883  1.0000
