data_image0
_chemical_formula_structural       Cd2H28C32N16O12
_chemical_formula_sum              "Cd2 H28 C32 N16 O12"
_cell_length_a       7.091598928001756
_cell_length_b       11.861135877929874
_cell_length_c       11.75273704180175
_cell_angle_alpha    116.90663700896849
_cell_angle_beta     89.99992061159602
_cell_angle_gamma    90.00000660061905

_space_group_name_H-M_alt    "P 1"
_space_group_IT_number       1

loop_
  _space_group_symop_operation_xyz
  'x, y, z'

loop_
  _atom_site_type_symbol
  _atom_site_label
  _atom_site_symmetry_multiplicity
  _atom_site_fract_x
  _atom_site_fract_y
  _atom_site_fract_z
  _atom_site_occupancy
  Cd  Cd1       1.0  2.4888674229999995e-07  0.999998020065924  0.9999993605900105  1.0000
  Cd  Cd2       1.0  0.500005118731842  1.798770483700056e-06  0.5000008486244596  1.0000
  H   H1        1.0  0.5628680373961642  0.6360515975272419  0.6822639455791377  1.0000
  H   H2        1.0  0.0628607402816428  0.3639482018748623  0.8177362043316238  1.0000
  H   H3        1.0  0.43713659301727154  0.363950998747228  0.3177320014244245  1.0000
  H   H4        1.0  0.9371481204806288  0.636045877658333  0.1822669093631789  1.0000
  H   H5        1.0  0.6708461857143675  0.4820889428064135  0.9469771210202254  1.0000
  H   H6        1.0  0.1708381212498722  0.5179136589261261  0.553025074613906  1.0000
  H   H7        1.0  0.3291570345748055  0.5179155419430258  0.053023093014935845  1.0000
  H   H8        1.0  0.8291509978453462  0.48208420476126435  0.4469763660556438  1.0000
  H   H9        1.0  0.6145030907987136  0.8694252199336461  0.08806573636407941  1.0000
  H   H10       1.0  0.114508244091887  0.1305745937313958  0.4119330746143036  1.0000
  H   H11       1.0  0.3854930788973689  0.1305792666172962  0.911931925900298  1.0000
  H   H12       1.0  0.885490745839377  0.8694204336415225  0.588067069052407  1.0000
  H   H13       1.0  0.4899633388155777  0.3020297414112321  0.777062937249795  1.0000
  H   H14       1.0  0.9899620821709478  0.6979718162244523  0.7229385249933955  1.0000
  H   H15       1.0  0.5100384713559195  0.697975689976353  0.22293600793601337  1.0000
  H   H16       1.0  0.010041138111461097  0.3020260444600709  0.27706716862635267  1.0000
  H   H17       1.0  0.6698696083945279  0.22884649515476957  0.4081027145416698  1.0000
  H   H18       1.0  0.16987133880888194  0.7711542450309425  0.09189902831241178  1.0000
  H   H19       1.0  0.33013361189566137  0.7711579901948086  0.5918966489021218  1.0000
  H   H20       1.0  0.8301290612380257  0.22883983450355316  0.9081040853863841  1.0000
  H   H21       1.0  0.0636687914852061  0.010307024997125302  0.7635740344550827  1.0000
  H   H22       1.0  0.563668932232389  0.989693720794193  0.7364248458467274  1.0000
  H   H23       1.0  0.9363287883278916  0.9896898944515795  0.23642527269501568  1.0000
  H   H24       1.0  0.43632864758089346  0.010310764556258796  0.26357451759972156  1.0000
  H   H25       1.0  0.2337869875843452  0.931065324322077  0.7873145621803489  1.0000
  H   H26       1.0  0.733788533629138  0.06893536767505279  0.7126858588140976  1.0000
  H   H27       1.0  0.7662105922287453  0.06893159512662811  0.2126847449697493  1.0000
  H   H28       1.0  0.2662132765382452  0.9310681698365356  0.2873164746631005  1.0000
  C   C1        1.0  0.5827576539593906  0.6479725403700128  0.778973944767394  1.0000
  C   C2        1.0  0.0827534073548932  0.3520300891955018  0.7210274833762541  1.0000
  C   C3        1.0  0.4172441562131156  0.3520328916177107  0.22102414982705204  1.0000
  C   C4        1.0  0.9172469926985515  0.6479611570267425  0.27897008036751475  1.0000
  C   C5        1.0  0.5906880447678448  0.7679142093102483  0.8825469294516212  1.0000
  C   C6        1.0  0.0906882679741585  0.23208369061456574  0.6174523295447544  1.0000
  C   C7        1.0  0.40930812493163427  0.2320836591771496  0.11744770648365943  1.0000
  C   C8        1.0  0.9093135421935727  0.7679132270330697  0.3825495293774566  1.0000
  C   C9        1.0  0.6100927842027846  0.5435964342616729  0.8019829269282895  1.0000
  C   C10       1.0  0.11008859955022389  0.4564042953774676  0.6980184613532929  1.0000
  C   C11       1.0  0.3899090259715692  0.45640143302457403  0.19801341018707327  1.0000
  C   C12       1.0  0.8899075701325998  0.5435982918962452  0.3019902445247808  1.0000
  C   C13       1.0  0.6407049143052533  0.5614455065567013  0.9265357788192433  1.0000
  C   C14       1.0  0.14070102605811743  0.43855426998112546  0.5734625964758922  1.0000
  C   C15       1.0  0.3592954857580537  0.43855425700630235  0.07345376763992559  1.0000
  C   C16       1.0  0.8592937335099438  0.5614435913048439  0.4265422465564726  1.0000
  C   C17       1.0  0.6150545435746508  0.777121655827152  0.004993188544588727  1.0000
  C   C18       1.0  0.11505386407122842  0.22288099278097212  0.49500862009722385  1.0000
  C   C19       1.0  0.38494444635732356  0.22288188348528587  0.995006593159829  1.0000
  C   C20       1.0  0.884940895505011  0.777118764781534  0.5049894322782863  1.0000
  C   C21       1.0  0.5838969400484404  0.8835634040354351  0.8611065334311265  1.0000
  C   C22       1.0  0.08389992453513173  0.11643733490157622  0.6388931783774867  1.0000
  C   C23       1.0  0.416097819526918  0.11644202735323718  0.13889241175800746  1.0000
  C   C24       1.0  0.9161018856370973  0.8835567482335237  0.36110483177243696  1.0000
  C   C25       1.0  0.5483057097406886  0.310324876558809  0.6952471278904327  1.0000
  C   C26       1.0  0.0483041058928038  0.6896758715818692  0.8047551692712035  1.0000
  C   C27       1.0  0.4516975105561301  0.689680558429373  0.3047467137465105  1.0000
  C   C28       1.0  0.9516977042682984  0.3103200964271551  0.1952522114578485  1.0000
  C   C29       1.0  0.6400877707918867  0.27737666832539537  0.5095095132340718  1.0000
  C   C30       1.0  0.14008290512646232  0.7226249986785332  0.990490577900566  1.0000
  C   C31       1.0  0.35991685962561343  0.7226259303496221  0.49048303140402544  1.0000
  C   C32       1.0  0.8599146746769579  0.2773709693311446  0.009516802830482613  1.0000
  N   N1        1.0  0.6374556678998289  0.676526352196923  0.027055097093224838  1.0000
  N   N2        1.0  0.1374479972376221  0.32347250713602455  0.47294581167913213  1.0000
  N   N3        1.0  0.36254473215384314  0.3234743514024885  0.9729425370209841  1.0000
  N   N4        1.0  0.8625411218530916  0.6765281910638947  0.5270594777627055  1.0000
  N   N5        1.0  0.608736368998784  0.4202339430601469  0.6985090977913871  1.0000
  N   N6        1.0  0.1087347656000688  0.5797677330357303  0.8014918735099812  1.0000
  N   N7        1.0  0.3912612108145481  0.5797724337657328  0.30149027972915127  1.0000
  N   N8        1.0  0.8912571737309847  0.42022729193772074  0.19851167252553378  1.0000
  N   N9        1.0  0.6673636272042954  0.40024717794054976  0.5797439131392964  1.0000
  N   N10       1.0  0.16735751101948892  0.5997525897556812  0.9202552875984368  1.0000
  N   N11       1.0  0.33264523356638886  0.5997582552463497  0.42025248026908474  1.0000
  N   N12       1.0  0.8326442991461109  0.40024054374081436  0.07974824435832775  1.0000
  N   N13       1.0  0.5662101327025654  0.21856873020753648  0.5762163038869872  1.0000
  N   N14       1.0  0.06620825058610082  0.7814329578355059  0.9237864087164812  1.0000
  N   N15       1.0  0.4337987280720342  0.7814310309536051  0.42377664493366035  1.0000
  N   N16       1.0  0.9337949696907373  0.2185658452859727  0.07622397019282803  1.0000
  O   O1        1.0  0.4734099715160555  0.8820838300617808  0.7746159231170537  1.0000
  O   O2        1.0  0.9734129006122956  0.1179167872532361  0.7253851224078718  1.0000
  O   O3        1.0  0.5265946588923923  0.11792254616287325  0.22538430499152182  1.0000
  O   O4        1.0  0.026597370276221003  0.882073513529825  0.2746120089985099  1.0000
  O   O5        1.0  0.6919839138861191  0.9750944683041141  0.9264859923538894  1.0000
  O   O6        1.0  0.19198986870303972  0.024908127491464403  0.5735153327409392  1.0000
  O   O7        1.0  0.30801507604435596  0.02491001584584041  0.0735150722746312  1.0000
  O   O8        1.0  0.8080161718304526  0.9750869034811914  0.42647970737424157  1.0000
  O   O9        1.0  0.09642021402761711  0.9469860000455411  0.7953257680959638  1.0000
  O   O10       1.0  0.5964231882695828  0.053014735019779394  0.7046739318982063  1.0000
  O   O11       1.0  0.9035759556707107  0.053006193415413315  0.20466967620843232  1.0000
  O   O12       1.0  0.4035786218958536  0.9469925842424092  0.29533013090990334  1.0000
