data_image0
_chemical_formula_structural       Zr6H70C126O32
_chemical_formula_sum              "Zr6 H70 C126 O32"
_cell_length_a       19.25563484248427
_cell_length_b       19.305451379206456
_cell_length_c       19.321634385437903
_cell_angle_alpha    92.84717948097389
_cell_angle_beta     93.24275802724858
_cell_angle_gamma    93.0516265176557

_space_group_name_H-M_alt    "P 1"
_space_group_IT_number       1

loop_
  _space_group_symop_operation_xyz
  'x, y, z'

loop_
  _atom_site_type_symbol
  _atom_site_label
  _atom_site_symmetry_multiplicity
  _atom_site_fract_x
  _atom_site_fract_y
  _atom_site_fract_z
  _atom_site_occupancy
  Zr  Zr1       1.0  0.8597138185436394  0.8128825921578482  0.9417402284767604  1.0000
  Zr  Zr2       1.0  0.0016859557934339117  0.768584385947662  0.8435293935840277  1.0000
  Zr  Zr3       1.0  0.9321892924489532  0.9837078941050169  0.9699472454840148  1.0000
  Zr  Zr4       1.0  0.9027840363312052  0.9100194391218113  0.7983993984895505  1.0000
  Zr  Zr5       1.0  0.0324413604391651  0.8421372815417811  0.013866083484984375  1.0000
  Zr  Zr6       1.0  0.0743125301253258  0.9409551849586036  0.8713650685105847  1.0000
  H   H1        1.0  0.5043428552130179  0.9579881616524024  0.11856369818030289  1.0000
  H   H2        1.0  0.3716189080397072  0.9061619554545928  0.2833463971186135  1.0000
  H   H3        1.0  0.594182888449687  0.8982425079007613  0.3137362596654398  1.0000
  H   H4        1.0  0.4270435373111781  0.8037916122617332  0.694885704415306  1.0000
  H   H5        1.0  0.5618468822864314  0.8574698645817449  0.5323412774401177  1.0000
  H   H6        1.0  0.33925176025206116  0.8601688311793579  0.4975226118228234  1.0000
  H   H7        1.0  0.9874134067710257  0.2807301088836169  0.5311012410193143  1.0000
  H   H8        1.0  0.9936937306875533  0.2528725317593796  0.3091702187108893  1.0000
  H   H9        1.0  0.04674204280915009  0.08666973646074887  0.44042686125687414  1.0000
  H   H10       1.0  0.9491396092456128  0.46882054687725366  0.2803649414683065  1.0000
  H   H11       1.0  0.9485885914105907  0.500271393038055  0.502485851258264  1.0000
  H   H12       1.0  0.896682808017516  0.6658837268580982  0.3700783315844305  1.0000
  H   H13       1.0  0.37317257360001577  0.5013740984812642  0.9283936067341755  1.0000
  H   H14       1.0  0.3414594327685164  0.27928543276567563  0.9331036453792976  1.0000
  H   H15       1.0  0.1780652487329633  0.4122058740465917  0.9890924902818341  1.0000
  H   H16       1.0  0.5571828138668663  0.24732315127493373  0.8829735353753277  1.0000
  H   H17       1.0  0.5907575921868612  0.4702313054450046  0.8866374904766232  1.0000
  H   H18       1.0  0.7582755434804935  0.33892859290885724  0.8413895694626916  1.0000
  H   H19       1.0  0.8592525068645855  0.7667016177150432  0.8003977975089996  1.0000
  H   H20       1.0  0.9094867991270874  0.8824244978390398  0.07013327284091991  1.0000
  H   H21       1.0  0.9721767972018469  0.0398463170198653  0.846830523248336  1.0000
  H   H22       1.0  0.1318907822864972  0.8187762159375325  0.9123265695516167  1.0000
  H   H23       1.0  0.719995914223027  0.22730637499057588  0.7483550542835999  1.0000
  H   H24       1.0  0.6733186484159572  0.1938988233254975  0.9599049750911846  1.0000
  H   H25       1.0  0.7516355846572863  0.09471582088786334  0.9607188302066517  1.0000
  H   H26       1.0  0.7918511989884464  0.12298272791471021  0.7472089054712541  1.0000
  H   H27       1.0  0.6873915097380988  0.5199596147438971  0.9563234192337546  1.0000
  H   H28       1.0  0.785258986943944  0.4405330309080354  0.775932795077253  1.0000
  H   H29       1.0  0.8693012459432123  0.5438980259251451  0.7847599635692716  1.0000
  H   H30       1.0  0.7688185400452809  0.6244932539103091  0.9622145442084147  1.0000
  H   H31       1.0  0.2863763902568195  0.20433945440944262  0.9878710446184301  1.0000
  H   H32       1.0  0.11107398704725568  0.3308502791100025  0.9506752461276804  1.0000
  H   H33       1.0  0.031031569037118307  0.22637611937779673  0.950462501830536  1.0000
  H   H34       1.0  0.20646098057892454  0.09922915440132839  0.9766127422374353  1.0000
  H   H35       1.0  0.21663483074411255  0.5273658315788197  0.0705611166986131  1.0000
  H   H36       1.0  0.2514206556585775  0.5485359349644766  0.8542207180563679  1.0000
  H   H37       1.0  0.17053244183608027  0.6453738091682054  0.8512308849242344  1.0000
  H   H38       1.0  0.1417002879621805  0.6293602940465703  0.06888245416431718  1.0000
  H   H39       1.0  0.02521589667713191  0.5869282593208001  0.22977779271450055  1.0000
  H   H40       1.0  0.8109408445907674  0.6292579393482641  0.257662386278156  1.0000
  H   H41       1.0  0.8104566765154502  0.7020046920833636  0.1538989661467625  1.0000
  H   H42       1.0  0.026278852669939606  0.6656957485390366  0.1308410994480482  1.0000
  H   H43       1.0  0.8969734374590956  0.5572722513352276  0.5777277346717185  1.0000
  H   H44       1.0  0.9360290924452599  0.7316182950254699  0.45102652239476276  1.0000
  H   H45       1.0  0.9344273704098427  0.8118127902384131  0.5546632805368574  1.0000
  H   H46       1.0  0.9062454357509464  0.6373459793344695  0.6820982012536021  1.0000
  H   H47       1.0  0.0337462892182359  0.1175785850678963  0.12797410623668531  1.0000
  H   H48       1.0  0.014641627738441798  0.9419780920942883  0.2554433925260327  1.0000
  H   H49       1.0  0.012936209220512798  0.021273817460461  0.3595228408241269  1.0000
  H   H50       1.0  0.043073060851554594  0.19718904166106907  0.23264505397531823  1.0000
  H   H51       1.0  0.1290385165429697  0.12453753055959992  0.556814320946792  1.0000
  H   H52       1.0  0.9113260609720369  0.15750148269100353  0.5755779789605597  1.0000
  H   H53       1.0  0.9088178581911703  0.07649559251981232  0.672448113200943  1.0000
  H   H54       1.0  0.12779183635549174  0.049631683106525805  0.658925964370532  1.0000
  H   H55       1.0  0.28951154914499  0.9354718232982082  0.6187170462042673  1.0000
  H   H56       1.0  0.3124509683346944  0.7189759147831298  0.6531935776761131  1.0000
  H   H57       1.0  0.2089307368311708  0.7183676547517807  0.7260068021927708  1.0000
  H   H58       1.0  0.1909952867240037  0.9360924739515685  0.6976128405721839  1.0000
  H   H59       1.0  0.5088137362339394  0.8413441865304634  0.7624062171840436  1.0000
  H   H60       1.0  0.6364594515543586  0.805015750161111  0.5889475657895673  1.0000
  H   H61       1.0  0.7411052694742538  0.814745581037073  0.6693161866528001  1.0000
  H   H62       1.0  0.6130561102410468  0.8403604549484739  0.8430970853113138  1.0000
  H   H63       1.0  0.1904599177219026  0.9463567285655826  0.146335519445806  1.0000
  H   H64       1.0  0.31858771929865526  0.9238333469232102  0.9722445642460542  1.0000
  H   H65       1.0  0.4229828266135128  0.9233426909859048  0.05246641544029268  1.0000
  H   H66       1.0  0.2954675723561238  0.9568677068431272  0.2266219831897089  1.0000
  H   H67       1.0  0.6208860358198081  0.039689615239908  0.1576172839550054  1.0000
  H   H68       1.0  0.6394576808237317  0.822291878908139  0.19058212479024664  1.0000
  H   H69       1.0  0.7356029956188834  0.8193827043219103  0.1090784726119125  1.0000
  H   H70       1.0  0.722233121865976  0.037917424450512306  0.0820111683805465  1.0000
  C   C1        1.0  0.5560267031591123  0.9285675112419794  0.21267130113361787  1.0000
  C   C2        1.0  0.49685166164420014  0.9424033371917421  0.1711766251113005  1.0000
  C   C3        1.0  0.42940651514944506  0.9334167401617752  0.19437377583703608  1.0000
  C   C4        1.0  0.42281888433380027  0.9145549184772079  0.2629875942634428  1.0000
  C   C5        1.0  0.481699250520073  0.9036436648417167  0.3070454211211739  1.0000
  C   C6        1.0  0.5486141798811487  0.9088894828247547  0.2806693235712672  1.0000
  C   C7        1.0  0.37626676970405276  0.8314669567206965  0.5995235074379651  1.0000
  C   C8        1.0  0.43509294514451813  0.8192653984068486  0.6423109064205335  1.0000
  C   C9        1.0  0.5028707099832275  0.8293472462721284  0.6202167184033982  1.0000
  C   C10       1.0  0.5103191705893335  0.8481303402009247  0.5516785725042652  1.0000
  C   C11       1.0  0.4519253347783874  0.8575889176752369  0.5064781982614122  1.0000
  C   C12       1.0  0.384535383512315  0.8508772385952811  0.5315713245647302  1.0000
  C   C13       1.0  0.017462866161189097  0.18012297316396092  0.4924488718442888  1.0000
  C   C14       1.0  0.9977076352127767  0.2481912790727918  0.48548328484215375  1.0000
  C   C15       1.0  0.9919472778163508  0.27536662406826196  0.41899879697970727  1.0000
  C   C16       1.0  0.0024406035418494004  0.231977173220038  0.3600635629273654  1.0000
  C   C17       1.0  0.021500728816299407  0.16329390072337452  0.3662271843082435  1.0000
  C   C18       1.0  0.030978579083402694  0.13932828416779594  0.43328021742264167  1.0000
  C   C19       1.0  0.9224882080552773  0.5707691090255622  0.318386389394071  1.0000
  C   C20       1.0  0.9408360366840898  0.5023251453089229  0.32590298036974724  1.0000
  C   C21       1.0  0.9475938684095055  0.476070219003944  0.3927352746458723  1.0000
  C   C22       1.0  0.939257050151397  0.5205859278174216  0.45140443722662127  1.0000
  C   C23       1.0  0.9215894774658863  0.5896247262333318  0.4446784649196971  1.0000
  C   C24       1.0  0.91140075677351  0.6129023181807298  0.3774364212107457  1.0000
  C   C25       1.0  0.272209524502685  0.4636471158421502  0.9593678127550048  1.0000
  C   C26       1.0  0.33997809353591885  0.455989992124131  0.9387939632871607  1.0000
  C   C27       1.0  0.36589295785708487  0.3890615840347921  0.932046023386569  1.0000
  C   C28       1.0  0.321692572282295  0.33047728823159167  0.9427194483262583  1.0000
  C   C29       1.0  0.25341863558151795  0.3373672908027672  0.9627584460606897  1.0000
  C   C30       1.0  0.23056670111268568  0.40469442147712453  0.9729311394625385  1.0000
  C   C31       1.0  0.660268483760916  0.2857811517880861  0.8592401495371291  1.0000
  C   C32       1.0  0.5913536580919043  0.2931290171187939  0.8764661200258814  1.0000
  C   C33       1.0  0.5654562943364209  0.35994210669394283  0.8849691133486814  1.0000
  C   C34       1.0  0.6107647142617623  0.4188323746151426  0.8788883195576105  1.0000
  C   C35       1.0  0.6803231884635323  0.412025222228067  0.8632281765567171  1.0000
  C   C36       1.0  0.7037574005267757  0.34521496501374577  0.8515505024898432  1.0000
  C   C37       1.0  0.7868807971937883  0.9230709491756031  0.03699012596604229  1.0000
  C   C38       1.0  0.86724230851609  0.6577376143829384  0.8779708417962125  1.0000
  C   C39       1.0  0.749568784646847  0.8410211120482672  0.8060992482031822  1.0000
  C   C40       1.0  0.9232398792821284  0.7416574829571233  0.0836944658729308  1.0000
  C   C41       1.0  0.1422250548479056  0.8317937825597781  0.7704691217056521  1.0000
  C   C42       1.0  0.06889811303607021  0.0913755238322764  0.9471465030287263  1.0000
  C   C43       1.0  0.9326854238577624  0.774293280055467  0.6903675274833105  1.0000
  C   C44       1.0  0.0981240288442322  0.6961600866940857  0.9542452412663351  1.0000
  C   C45       1.0  0.009405582407104917  0.9796714188122451  0.1204351622786035  1.0000
  C   C46       1.0  0.8299943980627941  0.05055885212667733  0.859563697296629  1.0000
  C   C47       1.0  0.013061636639925201  0.0056574043228678995  0.7249461992531465  1.0000
  C   C48       1.0  0.18289722151882157  0.9192156789645056  0.008990688678444799  1.0000
  C   C49       1.0  0.7254870520259827  0.1969169057554438  0.7942730863097651  1.0000
  C   C50       1.0  0.6927308140872696  0.21786718860767712  0.8543758261915642  1.0000
  C   C51       1.0  0.698911991528206  0.17807958018823913  0.9131381786322308  1.0000
  C   C52       1.0  0.7421790213551844  0.1226650545582331  0.9137324064721567  1.0000
  C   C53       1.0  0.7768132003618645  0.10365804672598948  0.8542950128384491  1.0000
  C   C54       1.0  0.7659118325272232  0.1391443160508103  0.7935745276262267  1.0000
  C   C55       1.0  0.7260879849109898  0.5257728580557739  0.9176123934938971  1.0000
  C   C56       1.0  0.7297244547798626  0.473456299519242  0.8649118116183985  1.0000
  C   C57       1.0  0.7822394665117613  0.48038111741465883  0.817551297299211  1.0000
  C   C58       1.0  0.8291556231745787  0.5383166741094669  0.8220486408263952  1.0000
  C   C59       1.0  0.8237906523531322  0.5909868024869953  0.8736879645794317  1.0000
  C   C60       1.0  0.7720530876485868  0.5837403269204773  0.9217090101588353  1.0000
  C   C61       1.0  0.2306573229349667  0.20970993072090496  0.9780703798548203  1.0000
  C   C62       1.0  0.20521491210150336  0.2757721991293778  0.9683361173121625  1.0000
  C   C63       1.0  0.1325450216644555  0.2807394799768305  0.9596697729235473  1.0000
  C   C64       1.0  0.0871261309387137  0.22198199873949426  0.9585037470799805  1.0000
  C   C65       1.0  0.11379605291843829  0.1562368605508411  0.9625887581328599  1.0000
  C   C66       1.0  0.18595772065938826  0.15061917850889023  0.9732776133705131  1.0000
  C   C67       1.0  0.207838054326956  0.5545189494920493  0.02292535409888069  1.0000
  C   C68       1.0  0.23830492459220656  0.5308696314928768  0.9623651167407488  1.0000
  C   C69       1.0  0.22777265299961869  0.5665786515953287  0.9013857911835501  1.0000
  C   C70       1.0  0.18283672266817766  0.6205973726136378  0.899572271443489  1.0000
  C   C71       1.0  0.1506392620211443  0.6424058387636932  0.959676352212732  1.0000
  C   C72       1.0  0.16559571100044226  0.6109121955605448  0.02209175486571271  1.0000
  C   C73       1.0  0.435390349775261  0.37952106179739087  0.9142179844512555  1.0000
  C   C74       1.0  0.49522064013867606  0.3690067091417575  0.9004913325399784  1.0000
  C   C75       1.0  0.9779974184132455  0.6117303274213555  0.21278307808613312  1.0000
  C   C76       1.0  0.9182523315151911  0.6039685071322083  0.2508057844651077  1.0000
  C   C77       1.0  0.8575808912368714  0.6358688117215935  0.228584867477764  1.0000
  C   C78       1.0  0.857225348846292  0.6767475537899514  0.17115277128996811  1.0000
  C   C79       1.0  0.9186567864275687  0.6889010248836769  0.1372110653885485  1.0000
  C   C80       1.0  0.9787733995924552  0.6553290355058864  0.15761920560525056  1.0000
  C   C81       1.0  0.9067257253277887  0.61280551654351  0.5720851461123714  1.0000
  C   C82       1.0  0.9171038337308841  0.6379265529891711  0.5060949402169612  1.0000
  C   C83       1.0  0.9262077107115162  0.7103751591645491  0.5009914264122415  1.0000
  C   C84       1.0  0.9263566247596771  0.7559284835540083  0.5592888052522936  1.0000
  C   C85       1.0  0.9206938050854063  0.7296571377906675  0.6249866565912754  1.0000
  C   C86       1.0  0.9103565628358297  0.657647798254189  0.6307243937981752  1.0000
  C   C87       1.0  0.0316335410036928  0.09694323202649713  0.17937879164998094  1.0000
  C   C88       1.0  0.023621284848907503  0.0247721267941188  0.1851299533927175  1.0000
  C   C89       1.0  0.020764182722047102  0.9980284667226726  0.2509129590617079  1.0000
  C   C90       1.0  0.020861847620693704  0.0431432458264425  0.3094683932405289  1.0000
  C   C91       1.0  0.027273278223688607  0.11574168793612932  0.3044703285969916  1.0000
  C   C92       1.0  0.03536213051076939  0.1414550275659465  0.23831353179185297  1.0000
  C   C93       1.0  0.0812066295107385  0.11528557589526404  0.5834569434169481  1.0000
  C   C94       1.0  0.020189832745515408  0.14538676179358132  0.5592499461713771  1.0000
  C   C95       1.0  0.9588501199720624  0.1341665746426131  0.5941167271744661  1.0000
  C   C96       1.0  0.9573073078428961  0.08926899469314262  0.6481813355716284  1.0000
  C   C97       1.0  0.017991411907821893  0.057695775205409895  0.6707341373824178  1.0000
  C   C98       1.0  0.0806036124399228  0.07306330487254091  0.6398533080481954  1.0000
  C   C99       1.0  0.9755015483155773  0.3454188912253429  0.4105334471553803  1.0000
  C   C100      1.0  0.9631585834558435  0.4058499221469846  0.40156972534956736  1.0000
  C   C101      1.0  0.2714956716190855  0.8877528677736278  0.6417801721864578  1.0000
  C   C102      1.0  0.3081813409334657  0.8273925612308946  0.6318873283809339  1.0000
  C   C103      1.0  0.2845095538268794  0.7660975097448459  0.6614831706009809  1.0000
  C   C104      1.0  0.2272430900201456  0.7656374672449503  0.7024626889272696  1.0000
  C   C105      1.0  0.19488306634011818  0.8274668277771299  0.7170019859472418  1.0000
  C   C106      1.0  0.2165037700733023  0.8882685471359653  0.6854326938882238  1.0000
  C   C107      1.0  0.5591275055722847  0.83237909845122  0.7414238896106015  1.0000
  C   C108      1.0  0.5643160326963398  0.8241134034032455  0.6690590271307073  1.0000
  C   C109      1.0  0.6306521978517522  0.814359622216628  0.6443698537325133  1.0000
  C   C110      1.0  0.689580864874813  0.8182958000997829  0.689473456871184  1.0000
  C   C111      1.0  0.6838291202768686  0.8282869909602727  0.7613958143887203  1.0000
  C   C112      1.0  0.6177762304488327  0.8328524296262291  0.787267728077893  1.0000
  C   C113      1.0  0.24207201558452598  0.9437733903660614  0.12616187233106047  1.0000
  C   C114      1.0  0.24787480457931813  0.9343589915795578  0.05421543112066729  1.0000
  C   C115      1.0  0.31395319058278653  0.9309820398016057  0.02811435967076647  1.0000
  C   C116      1.0  0.372707278216076  0.9317314159638316  0.0737300578073388  1.0000
  C   C117      1.0  0.3675984838191154  0.9392335395647611  0.1461527580873891  1.0000
  C   C118      1.0  0.30119150994787697  0.9481145816408941  0.1710969424495943  1.0000
  C   C119      1.0  0.6473110850432916  0.9917880815533594  0.14824693006201525  1.0000
  C   C120      1.0  0.6231075039753193  0.9309819515235137  0.1784067607304038  1.0000
  C   C121      1.0  0.6578995418640972  0.8696516385414911  0.1671350188535072  1.0000
  C   C122      1.0  0.7115183780951638  0.8678857359883878  0.121871258345422  1.0000
  C   C123      1.0  0.7337658626543018  0.9282730673240281  0.0899385682717551  1.0000
  C   C124      1.0  0.7032782399385197  0.9909263850799025  0.1056103442661112  1.0000
  C   C125      1.0  0.4619504455346117  0.874157997778397  0.43679104058312385  1.0000
  C   C126      1.0  0.47237986177614716  0.8870155385804493  0.3768450346119465  1.0000
  O   O1        1.0  0.8278048484325494  0.9749810196628347  0.027082180676387697  1.0000
  O   O2        1.0  0.9242925590259147  0.6649590649395449  0.8487268478927276  1.0000
  O   O3        1.0  0.7569690585748245  0.8183401112791843  0.8663645586223366  1.0000
  O   O4        1.0  0.870369248473956  0.7523177300021545  0.04420027026926478  1.0000
  O   O5        1.0  0.9832645540814652  0.7743828942601142  0.0837614377176479  1.0000
  O   O6        1.0  0.7963902406461543  0.8766164696116121  0.7757278237988103  1.0000
  O   O7        1.0  0.8390189631127497  0.7064206423785322  0.9128525287368987  1.0000
  O   O8        1.0  0.7868401826873921  0.8630304190903433  0.004887745006676911  1.0000
  O   O9        1.0  0.964202178805145  0.7904140535201025  0.939548625186937  1.0000
  O   O10       1.0  0.8810848366513966  0.9084903972730274  0.9024952764711074  1.0000
  O   O11       1.0  0.8897312504583464  0.7984628184751089  0.830159448587871  1.0000
  O   O12       1.0  0.9245497132804701  0.8812394611547704  0.023064559342969925  1.0000
  O   O13       1.0  0.10225670156564348  0.7794468846195032  0.7811212574221713  1.0000
  O   O14       1.0  0.008225215267508199  0.08429653252465391  0.969304303013992  1.0000
  O   O15       1.0  0.9092928739767456  0.8342517247977169  0.6968968699902405  1.0000
  O   O16       1.0  0.08921131255262078  0.7374533907187056  0.005790581712794589  1.0000
  O   O17       1.0  0.03256876899298791  0.9194893273913465  0.114046155785708  1.0000
  O   O18       1.0  0.8407174055755817  0.0105067006888717  0.8076154061209664  1.0000
  O   O19       1.0  0.065173505126559  0.9969570151118677  0.766284792189758  1.0000
  O   O20       1.0  0.17577735432182348  0.9418452167789082  0.9485820911976504  1.0000
  O   O21       1.0  0.952987956810915  0.973100404462656  0.7253411587381038  1.0000
  O   O22       1.0  0.13764936924395954  0.880386310824271  0.03774249970153679  1.0000
  O   O23       1.0  0.9681983829894347  0.7442988008096877  0.7376174760855392  1.0000
  O   O24       1.0  0.863091663745841  0.051733264432947096  0.9194251155534302  1.0000
  O   O25       1.0  0.9706940530927639  0.008149503769715198  0.0747298131267158  1.0000
  O   O26       1.0  0.0653364263426539  0.696231828829589  0.8942364246501527  1.0000
  O   O27       1.0  0.1435717729110237  0.8912743204538318  0.8039248277923576  1.0000
  O   O28       1.0  0.09796115502464889  0.04628645301994539  0.9087987937308168  1.0000
  O   O29       1.0  0.02465241005337053  0.9339142394215333  0.9632582302506093  1.0000
  O   O30       1.0  0.99935896629826  0.8724144571923558  0.8206334228415456  1.0000
  O   O31       1.0  0.9711385086500072  0.9928131837866375  0.8623392454198182  1.0000
  O   O32       1.0  0.08451819929688749  0.8335902552674739  0.9112375622951489  1.0000
