data_image0
_chemical_formula_structural       Cu2H36C40N12Cl4O8
_chemical_formula_sum              "Cu2 H36 C40 N12 Cl4 O8"
_cell_length_a       7.514160405293436
_cell_length_b       7.605664077830386
_cell_length_c       19.761914487357732
_cell_angle_alpha    84.09404910769722
_cell_angle_beta     80.02966818520359
_cell_angle_gamma    70.67484650949568

_space_group_name_H-M_alt    "P 1"
_space_group_IT_number       1

loop_
  _space_group_symop_operation_xyz
  'x, y, z'

loop_
  _atom_site_type_symbol
  _atom_site_label
  _atom_site_symmetry_multiplicity
  _atom_site_fract_x
  _atom_site_fract_y
  _atom_site_fract_z
  _atom_site_occupancy
  Cu  Cu1       1.0  0.9999987489976261  0.5000014597571862  3.6863282560663855e-07  1.0000
  Cu  Cu2       1.0  0.9999997479752806  1.3580619863996504e-06  5.974328624000447e-09  1.0000
  H   H1        1.0  0.2568508392408333  0.2946359755722412  0.4820746042154552  1.0000
  H   H2        1.0  0.7431465450438282  0.7053656803811065  0.5179258219132734  1.0000
  H   H3        1.0  0.2010162320384978  0.1267206804075585  0.3911409212329033  1.0000
  H   H4        1.0  0.7989829520599085  0.8732795697127214  0.6088594495380092  1.0000
  H   H5        1.0  0.06015952100801064  0.6387943112323524  0.2654860866614612  1.0000
  H   H6        1.0  0.9398423881584959  0.3612059104629353  0.7345136100252532  1.0000
  H   H7        1.0  0.12086625827840446  0.8037632956969816  0.35543285444877876  1.0000
  H   H8        1.0  0.8791342962100754  0.1962369368948202  0.6445669258978127  1.0000
  H   H9        1.0  0.1700294436382563  0.12018183053438489  0.27051074147422577  1.0000
  H   H10       1.0  0.8299760337316682  0.8798155927586963  0.729489858025751  1.0000
  H   H11       1.0  0.9341227269227587  0.27624131975098726  0.2781770541582489  1.0000
  H   H12       1.0  0.06588051765088918  0.7237547171346748  0.7218227274346631  1.0000
  H   H13       1.0  0.8600412600758957  0.3801113878275898  0.15799467453803834  1.0000
  H   H14       1.0  0.13996153936204084  0.6198860439946043  0.8420050787528056  1.0000
  H   H15       1.0  0.38870850150846775  0.4361029266398617  0.06720926556879188  1.0000
  H   H16       1.0  0.611292517386616  0.5639000849285052  0.9327903745137859  1.0000
  H   H17       1.0  0.6567299723862449  0.7259801911296436  0.3991397560049137  1.0000
  H   H18       1.0  0.3432665337801737  0.274020067519757  0.6008597685568801  1.0000
  H   H19       1.0  0.5708867214468043  0.5650392720428812  0.3129455737906923  1.0000
  H   H20       1.0  0.4291133686350647  0.43495818157235533  0.6870543468199131  1.0000
  H   H21       1.0  0.5326992444805755  0.0414789086234677  0.17095597652566139  1.0000
  H   H22       1.0  0.4672990457875486  0.9585199508248293  0.8290439994427601  1.0000
  H   H23       1.0  0.6065148925248921  0.20658270860626965  0.2587500976672814  1.0000
  H   H24       1.0  0.3934856462515484  0.7934175306174964  0.7412501894437539  1.0000
  H   H25       1.0  0.6172587837794907  0.66111204834435  0.1388711504611848  1.0000
  H   H26       1.0  0.3827413412853105  0.3388895725520342  0.8611280948188947  1.0000
  H   H27       1.0  0.47626933214717576  0.5629986764625842  0.2041096454341726  1.0000
  H   H28       1.0  0.5237294539516312  0.4370029486983498  0.7958891767413475  1.0000
  H   H29       1.0  0.42663108707915853  0.814693854491793  0.0439762828802301  1.0000
  H   H30       1.0  0.5733694902390737  0.18531473255817593  0.9560236670986411  1.0000
  H   H31       1.0  0.8853000705953916  0.0004792618194997987  0.1642433934455383  1.0000
  H   H32       1.0  0.11469864909641102  0.9995182093242294  0.8357571175893881  1.0000
  H   H33       1.0  0.28432709762307706  0.6499336147871021  0.5707304800609805  1.0000
  H   H34       1.0  0.7156739177131469  0.3500652162361958  0.42926882182322856  1.0000
  H   H35       1.0  0.742411644348138  0.06604656130672741  0.47890786807261065  1.0000
  H   H36       1.0  0.25759115508979147  0.9339508705154669  0.5210918852182331  1.0000
  C   C1        1.0  0.22686180934341157  0.6640183804520559  0.4776064083138252  1.0000
  C   C2        1.0  0.7731428091791629  0.3359818194501898  0.5223931210531276  1.0000
  C   C3        1.0  0.19273381806227266  0.5604605980979686  0.4246008463912431  1.0000
  C   C4        1.0  0.8072658461547776  0.43954242436691265  0.575398877351212  1.0000
  C   C5        1.0  0.21445609706072588  0.3694359066581186  0.4344495775518027  1.0000
  C   C6        1.0  0.7855440122920425  0.6305657208702299  0.5655501744927277  1.0000
  C   C7        1.0  0.18232866993993463  0.27557451544645056  0.383267463213862  1.0000
  C   C8        1.0  0.8176700847348003  0.7244271229784118  0.6167323724905387  1.0000
  C   C9        1.0  0.12625086259686213  0.37134223369601227  0.32200682298586963  1.0000
  C   C10       1.0  0.8737492624679389  0.628659387200365  0.67799242229421  1.0000
  C   C11       1.0  0.10264222249583811  0.5619983996691715  0.3127474461239998  1.0000
  C   C12       1.0  0.897358792840386  0.43800043135412636  0.6872518557602092  1.0000
  C   C13       1.0  0.136881151273613  0.6558165554622523  0.3632734113705283  1.0000
  C   C14       1.0  0.8631189737911882  0.34418506543412514  0.6367258339095514  1.0000
  C   C15       1.0  0.08515581752024562  0.26879732725716815  0.2683866088724685  1.0000
  C   C16       1.0  0.914844288273663  0.7312001197261039  0.7316128049736931  1.0000
  C   C17       1.0  0.004332147386897096  0.3858322478184846  0.1501413661973316  1.0000
  C   C18       1.0  0.995669746067577  0.6141679805087605  0.849858837253819  1.0000
  C   C19       1.0  0.2750052716774291  0.4115780128698531  0.1049106301875895  1.0000
  C   C20       1.0  0.7249939316918771  0.5884264111635317  0.8950895720172483  1.0000
  C   C21       1.0  0.6854600305871942  0.07687354349803849  0.3852899514977679  1.0000
  C   C22       1.0  0.314543198274414  0.9231225000195805  0.6147103368595879  1.0000
  C   C23       1.0  0.6400300941491893  0.9757100163891154  0.3341098716862021  1.0000
  C   C24       1.0  0.35997088976296243  0.0242888278981042  0.6658904437268944  1.0000
  C   C25       1.0  0.6292701019652045  0.7949797880710109  0.34925140721578873  1.0000
  C   C26       1.0  0.3707286020145588  0.2050176897046683  0.6507496105835812  1.0000
  C   C27       1.0  0.5822260823308483  0.7044451692960934  0.3004630551352463  1.0000
  C   C28       1.0  0.4177722079372757  0.29555369015220384  0.699536920833175  1.0000
  C   C29       1.0  0.5474748901303953  0.7920981084304161  0.236040493192931  1.0000
  C   C30       1.0  0.4525243411041231  0.20790212179398537  0.7639583572846574  1.0000
  C   C31       1.0  0.5590636141725014  0.9725480363366826  0.22100297640498917  1.0000
  C   C32       1.0  0.44093329355237637  0.027455027817126196  0.7789984349505517  1.0000
  C   C33       1.0  0.6032719256570616  0.06424538109975939  0.2697564945747358  1.0000
  C   C34       1.0  0.39673355527172294  0.9357562227383909  0.7302444431236025  1.0000
  C   C35       1.0  0.5009030996656492  0.6935431145678949  0.1825982532452031  1.0000
  C   C36       1.0  0.49909745482283074  0.3064571180239072  0.8174015271013882  1.0000
  C   C37       1.0  0.3105325300346707  0.8459612040930863  0.08655396715337099  1.0000
  C   C38       1.0  0.6894671341823793  0.15404181837179462  0.9134457565890839  1.0000
  C   C39       1.0  0.037958575769160105  0.9414460360613148  0.1495821795039944  1.0000
  C   C40       1.0  0.9620396987869313  0.05855283001894659  0.8504183032288636  1.0000
  N   N1        1.0  0.12053071447434856  0.34311502963058876  0.1980959087769492  1.0000
  N   N2        1.0  0.8794734396416218  0.6568823912950918  0.8019037608540174  1.0000
  N   N3        1.0  0.29434301682685776  0.35882727481352106  0.17007213563235268  1.0000
  N   N4        1.0  0.7056606921534011  0.6411715410486992  0.8299275056965456  1.0000
  N   N5        1.0  0.09792460510408318  0.4301883770251109  0.09036974698607028  1.0000
  N   N6        1.0  0.9020768432146796  0.5698132462386811  0.9096304281630123  1.0000
  N   N7        1.0  0.15873514877298328  0.8675226278362586  0.19426666360768505  1.0000
  N   N8        1.0  0.8412622319528182  0.13247484757201994  0.8057334243226818  1.0000
  N   N9        1.0  0.3311868557493014  0.8064055577936458  0.15318603494566926  1.0000
  N   N10       1.0  0.6688109736710713  0.19359470322316244  0.8468144194851204  1.0000
  N   N11       1.0  0.12524374668134186  0.931165336043655  0.0829525358962968  1.0000
  N   N12       1.0  0.8747545471456419  0.0688377039497112  0.9170477782704864  1.0000
  Cl  Cl1       1.0  0.7688963109450809  0.866955283270215  0.04965953111850038  1.0000
  Cl  Cl2       1.0  0.23110381411972014  0.133046337626169  0.9503397141615793  1.0000
  Cl  Cl3       1.0  0.7512910989754642  0.37934979401869384  0.04376640157985892  1.0000
  Cl  Cl4       1.0  0.24870582446145306  0.6206532635031506  0.9562345030112454  1.0000
  O   O1        1.0  0.2743512244483314  0.565532105357029  0.5346885373951196  1.0000
  O   O2        1.0  0.7256479596500753  0.434468144763251  0.4653118333757931  1.0000
  O   O3        1.0  0.21085479237548546  0.833644988097859  0.4684491747591721  1.0000
  O   O4        1.0  0.7891529963509073  0.16635378844283374  0.5315497088256436  1.0000
  O   O5        1.0  0.7083136855783959  0.9879164373117107  0.445598994733146  1.0000
  O   O6        1.0  0.29168685319804416  0.012083801912055499  0.5544012923778893  1.0000
  O   O7        1.0  0.7004828283881037  0.2366484418797725  0.37143406906925236  1.0000
  O   O8        1.0  0.2995199710498254  0.7633489899424221  0.6285656842215914  1.0000
