data_image0
_chemical_formula_structural       Cd2H52C80S8N2O18
_chemical_formula_sum              "Cd2 H52 C80 S8 N2 O18"
_cell_length_a       8.847735037268382
_cell_length_b       12.478367028168051
_cell_length_c       19.85654641051832
_cell_angle_alpha    82.1164696590395
_cell_angle_beta     77.76199167340599
_cell_angle_gamma    87.75059815233556

_space_group_name_H-M_alt    "P 1"
_space_group_IT_number       1

loop_
  _space_group_symop_operation_xyz
  'x, y, z'

loop_
  _atom_site_type_symbol
  _atom_site_label
  _atom_site_symmetry_multiplicity
  _atom_site_fract_x
  _atom_site_fract_y
  _atom_site_fract_z
  _atom_site_occupancy
  Cd  Cd1       1.0  0.6256602467729734  0.6571407990997428  0.019862612737703993  1.0000
  Cd  Cd2       1.0  0.37433404085082594  0.3428509796418594  0.9801346741677504  1.0000
  H   H1        1.0  0.045214483225827  0.7620391841463741  0.7721779735107857  1.0000
  H   H2        1.0  0.9547784142640551  0.2379590570770205  0.22782039432795634  1.0000
  H   H3        1.0  0.03088678628547108  0.8822430575363496  0.6633914668147296  1.0000
  H   H4        1.0  0.9690909824793077  0.11775668609248408  0.3366101471152517  1.0000
  H   H5        1.0  0.6964996059601345  0.0843906183489196  0.779915491474824  1.0000
  H   H6        1.0  0.3034930275940794  0.9156076158373023  0.22009398077162956  1.0000
  H   H7        1.0  0.7080996047912007  0.961339146232305  0.8881753392519298  1.0000
  H   H8        1.0  0.29190126945461253  0.03865591470017189  0.11183164985384048  1.0000
  H   H9        1.0  0.049963218363579594  0.13974259721742746  0.7312705046555761  1.0000
  H   H10       1.0  0.9500332632761966  0.860247576582253  0.2687337737223031  1.0000
  H   H11       1.0  0.0955640455560385  0.2652463930198791  0.8111171650059031  1.0000
  H   H12       1.0  0.9044509458710265  0.734746350877856  0.18888170254601275  1.0000
  H   H13       1.0  0.7954562446268412  0.502680187790382  0.7273969477912343  1.0000
  H   H14       1.0  0.20457231520545344  0.49731994071454005  0.272603590802646  1.0000
  H   H15       1.0  0.7406386675429458  0.37575643684876076  0.6503892621219618  1.0000
  H   H16       1.0  0.25936898230889927  0.624245150071239  0.3496150462627908  1.0000
  H   H17       1.0  0.5164992024122697  0.8596696468121505  0.3962615746909605  1.0000
  H   H18       1.0  0.48348997524838194  0.1403407066647588  0.60373105107692  1.0000
  H   H19       1.0  0.49697771402329466  0.7253273771089112  0.31743996417808507  1.0000
  H   H20       1.0  0.5030149331328673  0.2746821930925377  0.6825534241171309  1.0000
  H   H21       1.0  0.7113499344731408  0.9480985804679493  0.14148931739143217  1.0000
  H   H22       1.0  0.28866593887710923  0.051905500566171284  0.8585054753686375  1.0000
  H   H23       1.0  0.7379016806697221  0.08186054996778579  0.2198893548886928  1.0000
  H   H24       1.0  0.26211072392732854  0.9181435046721234  0.7801057520911596  1.0000
  H   H25       1.0  0.40368126099068746  0.13802561929085036  0.29097289405137866  1.0000
  H   H26       1.0  0.5963325180316942  0.8619760208957814  0.7090162530054013  1.0000
  H   H27       1.0  0.33163000432863743  0.2563481590709529  0.1912822194435505  1.0000
  H   H28       1.0  0.6683932571005399  0.743648699559749  0.8087029600062292  1.0000
  H   H29       1.0  0.6985887272655302  0.4735194388062708  0.18920618269255124  1.0000
  H   H30       1.0  0.3014096793787288  0.5264877457367589  0.810790921635991  1.0000
  H   H31       1.0  0.7746565224838449  0.35516995157970405  0.2868769521672191  1.0000
  H   H32       1.0  0.22534300293565215  0.6448388601411422  0.7131194081645799  1.0000
  H   H33       1.0  0.26001874062858116  0.6197471438697804  0.038941036318341594  1.0000
  H   H34       1.0  0.7399742318129582  0.38024786059413157  0.9610586100340368  1.0000
  H   H35       1.0  0.017882584760265278  0.731617753513305  0.04909984727238029  1.0000
  H   H36       1.0  0.9821137454915956  0.2683805131446916  0.9508997205839972  1.0000
  H   H37       1.0  0.30313966984288493  0.0156256427493702  0.9874799501908735  1.0000
  H   H38       1.0  0.6968622646773922  0.9843694244222049  0.012530972141412586  1.0000
  H   H39       1.0  0.5345105236044959  0.8915362463411113  0.980047594138831  1.0000
  H   H40       1.0  0.4654915811017445  0.10845639629962989  0.019959491993532186  1.0000
  H   H41       1.0  0.8967148756277791  0.902987671607782  0.0364939257173518  1.0000
  H   H42       1.0  0.10328573999873918  0.09701466963448978  0.9635139723262821  1.0000
  H   H43       1.0  0.9892775573457724  0.9895172584836582  0.07870268483100773  1.0000
  H   H44       1.0  0.010727757494379401  0.010482690861103098  0.9213049960194364  1.0000
  H   H45       1.0  0.9507386190061735  0.6138400590057387  0.844971567066686  1.0000
  H   H46       1.0  0.049275005538831386  0.38615995768320477  0.15502629517979463  1.0000
  H   H47       1.0  0.5222274983878208  0.6041928450249329  0.1717396908384855  1.0000
  H   H48       1.0  0.4777627515443681  0.3958175150109469  0.8282563634100978  1.0000
  H   H49       1.0  0.9078293806846884  0.5957281002323497  0.9744227806704228  1.0000
  H   H50       1.0  0.0921706416907497  0.4042621018807748  0.02557815501285179  1.0000
  H   H51       1.0  0.8873536569791368  0.5481890657484526  0.05559443412058578  1.0000
  H   H52       1.0  0.11265090419414753  0.45180359832689726  0.9444063855822687  1.0000
  C   C1        1.0  0.8725967667364782  0.775483913431678  0.9024870994898816  1.0000
  C   C2        1.0  0.12740432642589636  0.22450791457977456  0.09751511117986666  1.0000
  C   C3        1.0  0.8783793836874522  0.8540118195289138  0.8375870280408929  1.0000
  C   C4        1.0  0.1216135669868379  0.14598075528622448  0.16241685804444467  1.0000
  C   C5        1.0  0.969293802306069  0.8328184470964286  0.7738407722943208  1.0000
  C   C6        1.0  0.030697891686742196  0.16717897437973042  0.22616079601468184  1.0000
  C   C7        1.0  0.9611711156541387  0.9003954445838217  0.712825448837087  1.0000
  C   C8        1.0  0.038812472584105286  0.09960191498596059  0.28717735739719785  1.0000
  C   C9        1.0  0.8650078202022228  0.9927962465218627  0.714410992245163  1.0000
  C   C10       1.0  0.13497576877832523  0.007200303378240799  0.28559289073624666  1.0000
  C   C11       1.0  0.7743569419687758  0.014498714554818498  0.7784994612890724  1.0000
  C   C12       1.0  0.22563236976634465  0.9854962583969353  0.22150857521595668  1.0000
  C   C13       1.0  0.7810881088973074  0.9458183179520177  0.8389871104465738  1.0000
  C   C14       1.0  0.21890701934208315  0.05417750961938589  0.16101781137429325  1.0000
  C   C15       1.0  0.8548335337849337  0.063549014022044  0.6498999888786086  1.0000
  C   C16       1.0  0.14514765797164836  0.93644832571249  0.3501065600561687  1.0000
  C   C17       1.0  0.8580489913396858  0.17398620560933145  0.6388667822393967  1.0000
  C   C18       1.0  0.14193105690520008  0.8260103159773207  0.3611404434366178  1.0000
  C   C19       1.0  0.984516018128225  0.4656238982563392  0.8213546127264164  1.0000
  C   C20       1.0  0.015504508674261794  0.5343753605917527  0.17864521206503522  1.0000
  C   C21       1.0  0.9908342678005152  0.21791697008126215  0.7313365497692812  1.0000
  C   C22       1.0  0.009168990187589496  0.7820789200362626  0.2686661246346914  1.0000
  C   C23       1.0  0.018190408617556404  0.2884371256997936  0.7755288579191484  1.0000
  C   C24       1.0  0.981824534078896  0.711556426588146  0.22447095186886654  1.0000
  C   C25       1.0  0.9490820880655304  0.39175808537729034  0.7743317554366269  1.0000
  C   C26       1.0  0.050940788714925085  0.6082395726872108  0.22566849913179246  1.0000
  C   C27       1.0  0.8501540732306763  0.4228895711941901  0.7283250604242397  1.0000
  C   C28       1.0  0.14986641832288675  0.5771088770246137  0.27167735535174126  1.0000
  C   C29       1.0  0.8203280220670377  0.3514799830090141  0.6849111790787104  1.0000
  C   C30       1.0  0.1796785697372343  0.648519168662851  0.3150924263208735  1.0000
  C   C31       1.0  0.888881652111564  0.24751294970029383  0.6858722354179604  1.0000
  C   C32       1.0  0.11111814912040777  0.7524829143428845  0.3141302484599889  1.0000
  C   C33       1.0  0.7933040557571046  0.11461131104477568  0.5274072514882204  1.0000
  C   C34       1.0  0.20667125431372566  0.8853908401584861  0.4725973986299292  1.0000
  C   C35       1.0  0.7427200515330624  0.11285577893619349  0.46751540054808044  1.0000
  C   C36       1.0  0.2572529572904043  0.887147164660476  0.5324878775570027  1.0000
  C   C37       1.0  0.6507271097498303  0.0553008023521784  0.3615627660351775  1.0000
  C   C38       1.0  0.3492643219121803  0.9447079477821629  0.6384343274761048  1.0000
  C   C39       1.0  0.6275147692906841  0.9806791385698754  0.3136828101941516  1.0000
  C   C40       1.0  0.37248592437696  0.0193296822689106  0.6863129406519233  1.0000
  C   C41       1.0  0.5605154919784353  0.8790399493814646  0.3404131038361839  1.0000
  C   C42       1.0  0.4394794556827861  0.12096963809625547  0.6595805797249878  1.0000
  C   C43       1.0  0.5481871443553955  0.8038967710131145  0.2963813463135309  1.0000
  C   C44       1.0  0.45180897155398  0.19611282558254567  0.7036117277619096  1.0000
  C   C45       1.0  0.6021658511888788  0.8285253349091731  0.2244307285090982  1.0000
  C   C46       1.0  0.39783837195965077  0.17148270425351336  0.7755632611352892  1.0000
  C   C47       1.0  0.6684993335558145  0.9299136467492984  0.19736081434439254  1.0000
  C   C48       1.0  0.33151182784143873  0.0700936355321389  0.8026336236075549  1.0000
  C   C49       1.0  0.6820951724061713  0.0048147162682923  0.24126177975674062  1.0000
  C   C50       1.0  0.3179125697107707  0.9951909215590644  0.7587331069259943  1.0000
  C   C51       1.0  0.6449974961383659  0.1658135857957816  0.35217514363398533  1.0000
  C   C52       1.0  0.35500089850881256  0.8341935984273757  0.6478224654403631  1.0000
  C   C53       1.0  0.5961695600616822  0.23697934660007997  0.2952128943436633  1.0000
  C   C54       1.0  0.40383359378451167  0.7630254473249283  0.7047819738084795  1.0000
  C   C55       1.0  0.4695895259773478  0.21076359975256753  0.26810504163962884  1.0000
  C   C56       1.0  0.5304218925545924  0.7892380215584324  0.7318863338802256  1.0000
  C   C57       1.0  0.4283541151728371  0.2771811908563535  0.21264106976378364  1.0000
  C   C58       1.0  0.571657363344485  0.7228204320540002  0.7873477820270478  1.0000
  C   C59       1.0  0.5090400399682977  0.37281058759004526  0.1840583083369579  1.0000
  C   C60       1.0  0.4909760537831217  0.6271886411837  0.815933859481319  1.0000
  C   C61       1.0  0.632929855705747  0.4006620720379246  0.21184428733797483  1.0000
  C   C62       1.0  0.3670732501521455  0.5993427206075949  0.7881525997973851  1.0000
  C   C63       1.0  0.6759286695644132  0.33364553906157096  0.2667201342394989  1.0000
  C   C64       1.0  0.32407316909952744  0.6663624805857393  0.733277093359568  1.0000
  C   C65       1.0  0.46495386328211896  0.44310747100004716  0.12373398873572933  1.0000
  C   C66       1.0  0.5350528455237151  0.5568949225492403  0.87626026221735  1.0000
  C   C67       1.0  0.5924677154462825  0.7485081483126519  0.1767296829430904  1.0000
  C   C68       1.0  0.40753306368549147  0.2514990554258815  0.8232646881765785  1.0000
  C   C69       1.0  0.2643678802218544  0.7078728564811101  0.028490099997000598  1.0000
  C   C70       1.0  0.7356262012247469  0.2921213458317098  0.9715125373457877  1.0000
  C   C71       1.0  0.13005232802851194  0.7707303663367852  0.0337100999683244  1.0000
  C   C72       1.0  0.8699438702555183  0.22926789680262516  0.9662950200919123  1.0000
  C   C73       1.0  0.1404816534878179  0.8834726592831358  0.0205443781665196  1.0000
  C   C74       1.0  0.8595192320127648  0.11652321163888499  0.9794610294463336  1.0000
  C   C75       1.0  0.2885603470880084  0.9283128011377783  0.9995278210940125  1.0000
  C   C76       1.0  0.7114428149234938  0.07168308642077649  0.0004788912764013238  1.0000
  C   C77       1.0  0.4171198839620446  0.8605755387487971  0.9953911088994398  1.0000
  C   C78       1.0  0.5828787137728567  0.13941950554715277  0.004614575448769588  1.0000
  C   C79       1.0  0.998420755283028  0.9539735797590011  0.03003966835387932  1.0000
  C   C80       1.0  0.0015799585469977997  0.04602633503320419  0.9699674219646608  1.0000
  S   S1        1.0  0.7064800691615926  0.2311005019102765  0.41435326782551113  1.0000
  S   S2        1.0  0.29350091122169875  0.7689049290832128  0.5856510943167875  1.0000
  S   S3        1.0  0.7146385174836921  0.9927776932113016  0.4355210939428033  1.0000
  S   S4        1.0  0.2853472446081611  0.007226967463132898  0.5644773642914412  1.0000
  S   S5        1.0  0.8290036855938749  0.9970259184200001  0.5810471908227297  1.0000
  S   S6        1.0  0.17096123095670623  0.0029753442508067  0.41895897395606585  1.0000
  S   S7        1.0  0.8335658631228141  0.23479356819193234  0.5563877377611843  1.0000
  S   S8        1.0  0.16640368065894504  0.7652053006621312  0.44362123829925065  1.0000
  N   N1        1.0  0.40560738680467506  0.7523409149865754  0.010553422115997147  1.0000
  N   N2        1.0  0.5943878756294579  0.2476524870943848  0.989449177742365  1.0000
  O   O1        1.0  0.9547760748245576  0.6886237003378497  0.8993041459045228  1.0000
  O   O2        1.0  0.04522619784074069  0.3113689467810942  0.10069587378657727  1.0000
  O   O3        1.0  0.7820204534067016  0.7985788481448849  0.9576656285570446  1.0000
  O   O4        1.0  0.21798182074319064  0.20141217963470126  0.04233654462828439  1.0000
  O   O5        1.0  0.9331073809077706  0.5660643987137916  0.8087533676874654  1.0000
  O   O6        1.0  0.06691790435142758  0.43393327950582256  0.1912426394346624  1.0000
  O   O7        1.0  0.05799574303289028  0.43438586628729325  0.8674153167084095  1.0000
  O   O8        1.0  0.9420189425288752  0.5656133469710766  0.13258755551169799  1.0000
  O   O9        1.0  0.530663385169369  0.6555295924523178  0.20827202479317455  1.0000
  O   O10       1.0  0.46932687601759665  0.3444815775731058  0.7917224479624919  1.0000
  O   O11       1.0  0.6400359551417125  0.7695501490048638  0.11253826805847206  1.0000
  O   O12       1.0  0.3599695112066214  0.23045466251628707  0.8874563906138132  1.0000
  O   O13       1.0  0.39311658594013454  0.40399044175669024  0.08505139260960697  1.0000
  O   O14       1.0  0.60689593936997  0.5960128064122542  0.9149397436593031  1.0000
  O   O15       1.0  0.504835568101356  0.5439586316453313  0.11524683476582707  1.0000
  O   O16       1.0  0.49515594976708843  0.45604769171907117  0.8847499557661674  1.0000
  O   O17       1.0  0.8405753684897092  0.5504933897826376  0.01422248439221363  1.0000
  O   O18       1.0  0.15942929162937958  0.4494960381729739  0.9857786043326651  1.0000
