data_image0
_chemical_formula_structural       CdH10C16S2N6
_chemical_formula_sum              "Cd1 H10 C16 S2 N6"
_cell_length_a       5.827458140397715
_cell_length_b       7.608959311054854
_cell_length_c       9.185927848871607
_cell_angle_alpha    89.3672586250736
_cell_angle_beta     74.28744183324682
_cell_angle_gamma    88.29413906203708

_space_group_name_H-M_alt    "P 1"
_space_group_IT_number       1

loop_
  _space_group_symop_operation_xyz
  'x, y, z'

loop_
  _atom_site_type_symbol
  _atom_site_label
  _atom_site_symmetry_multiplicity
  _atom_site_fract_x
  _atom_site_fract_y
  _atom_site_fract_z
  _atom_site_occupancy
  Cd  Cd1       1.0  5.024674656799999e-06  5.317914336399999e-06  2.362903778400001e-06  1.0000
  H   H1        1.0  0.31426087160005517  0.7740130041012349  0.19217747407500246  1.0000
  H   H2        1.0  0.6857365156003822  0.2259915377330302  0.807819775066065  1.0000
  H   H3        1.0  0.8846814951047077  0.7180538359451064  0.654679780634787  1.0000
  H   H4        1.0  0.11532380730339749  0.28193628971754237  0.3453141506251996  1.0000
  H   H5        1.0  0.5824976160352406  0.9074668354445237  0.5770033117501755  1.0000
  H   H6        1.0  0.41749874619999616  0.0925232300239713  0.42299428734772715  1.0000
  H   H7        1.0  0.5160555321441932  0.5569146132365859  0.23074312318423307  1.0000
  H   H8        1.0  0.48394367523562204  0.4430886389430242  0.7692560159503828  1.0000
  H   H9        1.0  0.18278759939015995  0.6342627183372258  0.7088258858332214  1.0000
  H   H10       1.0  0.8172084034943837  0.3657339262733927  0.2911727803911718  1.0000
  C   C1        1.0  0.1540236929008997  0.7935958545491033  0.2849363670524171  1.0000
  C   C2        1.0  0.8459737478349112  0.206407377980554  0.7150619780417033  1.0000
  C   C3        1.0  0.13390457469947137  0.7224002432967038  0.4300330535222941  1.0000
  C   C4        1.0  0.8660966516043089  0.2775990679999509  0.5699636206202214  1.0000
  C   C5        1.0  0.921051714607891  0.7649066016155787  0.5383112178226244  1.0000
  C   C6        1.0  0.0789532667059163  0.2350887993211046  0.4616859676655381  1.0000
  C   C7        1.0  0.7507304487022991  0.8699221142847192  0.4953209248560811  1.0000
  C   C8        1.0  0.24927088467222086  0.13007457840272  0.5046779411925402  1.0000
  C   C9        1.0  0.5071326180915036  0.5339611296929476  0.34942960008011437  1.0000
  C   C10       1.0  0.4928599738547346  0.466032851572038  0.6505685788207674  1.0000
  C   C11       1.0  0.32260519187784087  0.6106229717882171  0.4648024266135025  1.0000
  C   C12       1.0  0.6773856181454077  0.38937099526333435  0.5351960493955161  1.0000
  C   C13       1.0  0.31933492524476037  0.5745985850293138  0.6159567149828151  1.0000
  C   C14       1.0  0.6806593109957715  0.4253980399313519  0.3840411572010823  1.0000
  C   C15       1.0  0.5355776753575224  0.785037934269255  0.9282534211252984  1.0000
  C   C16       1.0  0.46442801752564117  0.21497592531216725  0.0717510380331419  1.0000
  S   S1        1.0  0.7781580694577385  0.6898936886929479  0.9515589658911812  1.0000
  S   S2        1.0  0.22185368031524177  0.31010576768598963  0.04844792823745082  1.0000
  N   N1        1.0  0.7778187543201794  0.9306710541887425  0.3544091171318158  1.0000
  N   N2        1.0  0.22218085066673146  0.06932431498065482  0.6455911419780025  1.0000
  N   N3        1.0  0.9814589231758644  0.8913700297503482  0.2506130013526402  1.0000
  N   N4        1.0  0.018540391274697792  0.10863060382005332  0.7493883296880883  1.0000
  N   N5        1.0  0.3590787089345325  0.8526554455630659  0.9112776849288837  1.0000
  N   N6        1.0  0.6409250720954133  0.14735973629209548  0.08873143112776925  1.0000
