data_image0
_chemical_formula_structural       Cs2H20C30N2O8
_chemical_formula_sum              "Cs2 H20 C30 N2 O8"
_cell_length_a       6.5857608170340365
_cell_length_b       9.144231347177474
_cell_length_c       11.28436819143529
_cell_angle_alpha    95.7055835695255
_cell_angle_beta     89.99976256551993
_cell_angle_gamma    89.99974496269509

_space_group_name_H-M_alt    "P 1"
_space_group_IT_number       1

loop_
  _space_group_symop_operation_xyz
  'x, y, z'

loop_
  _atom_site_type_symbol
  _atom_site_label
  _atom_site_symmetry_multiplicity
  _atom_site_fract_x
  _atom_site_fract_y
  _atom_site_fract_z
  _atom_site_occupancy
  Cs  Cs1       1.0  0.47466364852438403  0.3769487835843322  0.9063695917101525  1.0000
  Cs  Cs2       1.0  0.9746626620189717  0.6230517516549199  0.09362892805518902  1.0000
  H   H1        1.0  0.4779695734250566  0.19819165088546242  0.5452996298621713  1.0000
  H   H2        1.0  0.9779710070849889  0.8018088769237651  0.4546997674416531  1.0000
  H   H3        1.0  0.4645991554337813  0.17854511330680373  0.3206746891395227  1.0000
  H   H4        1.0  0.9646019176881567  0.8214554662098978  0.679325630999294  1.0000
  H   H5        1.0  0.4589167955698273  0.9332842535700653  0.20619228553513844  1.0000
  H   H6        1.0  0.9589203665235075  0.06671634179794952  0.7938071635154955  1.0000
  H   H7        1.0  0.44661686686922053  0.6630280744854604  0.20088757232534243  1.0000
  H   H8        1.0  0.9466232889708693  0.3369714697693453  0.7991127115764625  1.0000
  H   H9        1.0  0.3967292457010387  0.4406485883302267  0.306475252906111  1.0000
  H   H10       1.0  0.8967244134398271  0.5593511371470968  0.6935260530330396  1.0000
  H   H11       1.0  0.38464624959794236  0.4646124945306981  0.5315097538079385  1.0000
  H   H12       1.0  0.884635562978133  0.5353872695068846  0.4684906984370086  1.0000
  H   H13       1.0  0.554578239187592  0.9636941101445585  0.8936929953730867  1.0000
  H   H14       1.0  0.054580905589638504  0.0363068157205433  0.1063065803173373  1.0000
  H   H15       1.0  0.1922555324609476  0.9865533945621721  0.9031860836302171  1.0000
  H   H16       1.0  0.6922552459953765  0.013445956964218901  0.0968156926046291  1.0000
  H   H17       1.0  0.2685189540976296  0.8821456314963143  0.02062024662742348  1.0000
  H   H18       1.0  0.7685178616631135  0.1178534410010528  0.979379549425431  1.0000
  H   H19       1.0  0.1546538431754243  0.792661273706358  0.8889729359667199  1.0000
  H   H20       1.0  0.6546522605667066  0.20733930158802852  0.1110272544327628  1.0000
  C   C1        1.0  0.47247300580310997  0.9788022492608524  0.684034830756154  1.0000
  C   C2        1.0  0.9724741599796901  0.02119719472084111  0.31596360988216776  1.0000
  C   C3        1.0  0.4657620574567147  0.9660948982411175  0.5533167356133503  1.0000
  C   C4        1.0  0.9657622096665791  0.03390457813453201  0.4466834962962523  1.0000
  C   C5        1.0  0.4521181308873494  0.8253253505475584  0.48865576015547413  1.0000
  C   C6        1.0  0.9521199949654785  0.17467527322938994  0.5113445938845658  1.0000
  C   C7        1.0  0.4287891955765701  0.6972225787407  0.5483761703221646  1.0000
  C   C8        1.0  0.9287861363306364  0.3027770287491692  0.4516241620146886  1.0000
  C   C9        1.0  0.41966901832447695  0.7099203986204757  0.6793886477406872  1.0000
  C   C10       1.0  0.9196639262049331  0.2900792412138316  0.3206117093704606  1.0000
  C   C11       1.0  0.47083347777014245  0.09136423485557542  0.4932277162135819  1.0000
  C   C12       1.0  0.9708369215741258  0.9086341245086516  0.5067724168427787  1.0000
  C   C13       1.0  0.4667129440159102  0.0799798002384264  0.36776255062522273  1.0000
  C   C14       1.0  0.9667169495627449  0.9200196641638176  0.6322359056542765  1.0000
  C   C15       1.0  0.46167844122282287  0.9432919434395614  0.30328855921155196  1.0000
  C   C16       1.0  0.9616827599290402  0.05670755170682899  0.696712570305074  1.0000
  C   C17       1.0  0.4534685001840799  0.8129812891107309  0.36149457934447327  1.0000
  C   C18       1.0  0.9534724265287907  0.18701932987404757  0.6385057710250023  1.0000
  C   C19       1.0  0.43857338718048317  0.67153540907632  0.2980511592286135  1.0000
  C   C20       1.0  0.9385775114088374  0.3284630646833905  0.7019490614492412  1.0000
  C   C21       1.0  0.41414054248297566  0.5475216948591708  0.3577779345610423  1.0000
  C   C22       1.0  0.914139768639217  0.45247687414458  0.6422241255282586  1.0000
  C   C23       1.0  0.4072600640538512  0.5607403553591155  0.4831458282551537  1.0000
  C   C24       1.0  0.9072557022384587  0.43925933277430573  0.5168554490803388  1.0000
  C   C25       1.0  0.4689089584602755  0.8619917094744454  0.8703759293138942  1.0000
  C   C26       1.0  0.968910708864783  0.13800885476116784  0.1296243791203295  1.0000
  C   C27       1.0  0.25718677902003156  0.8814307871208132  0.9236166270076325  1.0000
  C   C28       1.0  0.7571875070612323  0.11856722653611486  0.0763831147481753  1.0000
  C   C29       1.0  0.599486334374717  0.7397598473938487  0.9183548876376975  1.0000
  C   C30       1.0  0.09948475717940398  0.26024201825326543  0.0816446511566866  1.0000
  N   N1        1.0  0.4613811004846724  0.8483966831710107  0.7392045153572084  1.0000
  N   N2        1.0  0.9613803218272495  0.15160390346611055  0.26079492700597473  1.0000
  O   O1        1.0  0.4873029468785647  0.09875607091750283  0.7453364985871643  1.0000
  O   O2        1.0  0.9873021438433727  0.9012444195015233  0.25466198684801356  1.0000
  O   O3        1.0  0.37673560347477775  0.6052008045634241  0.7364589633850827  1.0000
  O   O4        1.0  0.8767241950716523  0.3947989961218355  0.2635432833892892  1.0000
  O   O5        1.0  0.5382196107929786  0.6914316151114975  0.014415748202324594  1.0000
  O   O6        1.0  0.038208311901073  0.30856606312678286  0.9855818436744953  1.0000
  O   O7        1.0  0.7626765909182326  0.7038859827196406  0.8638216668035736  1.0000
  O   O8        1.0  0.2626652966067056  0.29612188979688636  0.1361761661618175  1.0000
