data_image0
_chemical_formula_structural       Ag8H32C48N16
_chemical_formula_sum              "Ag8 H32 C48 N16"
_cell_length_a       9.070448053
_cell_length_b       8.841236096852294
_cell_length_c       16.0063
_cell_angle_alpha    90.0
_cell_angle_beta     90.0
_cell_angle_gamma    111.26703693158213

_space_group_name_H-M_alt    "P 1"
_space_group_IT_number       1

loop_
  _space_group_symop_operation_xyz
  'x, y, z'

loop_
  _atom_site_type_symbol
  _atom_site_label
  _atom_site_symmetry_multiplicity
  _atom_site_fract_x
  _atom_site_fract_y
  _atom_site_fract_z
  _atom_site_occupancy
  Ag  Ag1       1.0  0.44487382823397326  0.22305217795237545  0.1410357171863552  1.0000
  Ag  Ag2       1.0  0.5551238964871245  0.2769485246687822  0.6410357171863552  1.0000
  Ag  Ag3       1.0  0.5551232418265784  0.7769419449839319  0.8589636580596363  1.0000
  Ag  Ag4       1.0  0.44487464574605434  0.7230528805735332  0.3589642828136448  1.0000
  Ag  Ag5       1.0  0.7548610715029014  0.0330131205397066  0.3910697662795285  1.0000
  Ag  Ag6       1.0  0.24514651613278457  0.4669936506697851  0.8910685167715187  1.0000
  Ag  Ag7       1.0  0.24514580205449474  0.9669931395732758  0.6089302337204712  1.0000
  Ag  Ag8       1.0  0.7548489629196522  0.5330053271371966  0.1089314832284813  1.0000
  H   H1        1.0  0.3291170959353025  0.7613917942355997  0.1921911997151113  1.0000
  H   H2        1.0  0.6708827523367019  0.7386054587572062  0.6921905749611099  1.0000
  H   H3        1.0  0.670883037305984  0.2386047561360485  0.8078100497928915  1.0000
  H   H4        1.0  0.3291175657502166  0.2613947327674424  0.3078106745469  1.0000
  H   H5        1.0  0.06538694910148736  0.9318766463168373  0.3874411950294601  1.0000
  H   H6        1.0  0.9346137573885186  0.5681230341113022  0.8874424445374627  1.0000
  H   H7        1.0  0.9346126956130616  0.0681247589254781  0.6125575554625371  1.0000
  H   H8        1.0  0.0653876631797701  0.4318771574133464  0.11255818021653848  1.0000
  H   H9        1.0  0.06252157463297447  0.9139306168940349  0.007355853632631699  1.0000
  H   H10       1.0  0.9374791318570246  0.5860690635340973  0.5073564783866331  1.0000
  H   H11       1.0  0.9374754360098334  0.0860695746306064  0.9926435216133669  1.0000
  H   H12       1.0  0.06252492278300538  0.413932341708211  0.4926435216133669  1.0000
  H   H13       1.0  0.2342211036719276  0.8719117112659303  0.2827811549202508  1.0000
  H   H14       1.0  0.7657796028180782  0.628087969162209  0.7827817796742522  1.0000
  H   H15       1.0  0.7657781119336206  0.12808848025871805  0.7172188450797492  1.0000
  H   H16       1.0  0.23422616825795467  0.3719182909507737  0.2172188450797492  1.0000
  H   H17       1.0  0.8990577758484903  0.8947866481340085  0.09440595265613887  1.0000
  H   H18       1.0  0.100940969942144  0.6052106048587973  0.5944059526561389  1.0000
  H   H19       1.0  0.10094058153906359  0.1052111159553064  0.9055946720978625  1.0000
  H   H20       1.0  0.8990580608177722  0.3947859455128507  0.405594047343861  1.0000
  H   H21       1.0  0.4809958836765205  0.7065026264676746  0.0757239337011058  1.0000
  H   H22       1.0  0.51900568103148  0.7934994813957985  0.5757239337011055  1.0000
  H   H23       1.0  0.5190070684821393  0.2934987787746408  0.9242748167908914  1.0000
  H   H24       1.0  0.48099310546506757  0.20649949641118323  0.4242766910528957  1.0000
  H   H25       1.0  0.23011446590935244  0.8570376012580567  0.899245297164242  1.0000
  H   H26       1.0  0.7698866696896542  0.6429632928877496  0.3992446724102408  1.0000
  H   H27       1.0  0.7698851788051968  0.1429638039842587  0.10075532758975918  1.0000
  H   H28       1.0  0.23011211680689309  0.3570356849192322  0.6007553275897592  1.0000
  H   H29       1.0  0.7479898350029117  0.9615581118608958  0.2075907611378014  1.0000
  H   H30       1.0  0.25200866652435383  0.5384415685672435  0.7075913858918026  1.0000
  H   H31       1.0  0.25201005397500603  0.038440865946086  0.7924098636162  1.0000
  H   H32       1.0  0.7479895060175678  0.4615525543690708  0.2924086141081972  1.0000
  C   C1        1.0  0.3145476680887214  0.305663870949985  0.0604699399611377  1.0000
  C   C2        1.0  0.6854476668239967  0.1943331905181722  0.560470564715146  1.0000
  C   C3        1.0  0.6854573701971916  0.6943496714689985  0.9395325590548751  1.0000
  C   C4        1.0  0.31454781222844014  0.8056657872888093  0.43952943528485366  1.0000
  C   C5        1.0  0.3017198624205477  0.7856819259032903  0.1284131873075012  1.0000
  C   C6        1.0  0.6982804149604503  0.7143165408071821  0.6284131873075012  1.0000
  C   C7        1.0  0.6982802708207388  0.2143146244683578  0.8715861879384972  1.0000
  C   C8        1.0  0.30172143471683904  0.28568486443513297  0.3715874374465074  1.0000
  C   C9        1.0  0.18035862227409893  0.8442438033312598  0.1108507275260351  1.0000
  C   C10       1.0  0.8196405526255359  0.6557546633792128  0.6108501027720334  1.0000
  C   C11       1.0  0.8196419400761953  0.15575396075805503  0.8891492724739649  1.0000
  C   C12       1.0  0.1803612970517534  0.3442467418631026  0.3891505219819678  1.0000
  C   C13       1.0  0.5330656178907204  0.12852299118346613  0.2373709102041062  1.0000
  C   C14       1.0  0.4669362724924824  0.371480138873025  0.7373709102041062  1.0000
  C   C15       1.0  0.4669248372816028  0.8714711317528412  0.7626278402878837  1.0000
  C   C16       1.0  0.5330660062938078  0.6285224800869571  0.2626284650418924  1.0000
  C   C17       1.0  0.032908326283077785  0.9247339178471207  0.3215740052354406  1.0000
  C   C18       1.0  0.9670908486165571  0.5752645488633519  0.8215740052354403  1.0000
  C   C19       1.0  0.9670919918038405  0.07526627367752778  0.678425370010558  1.0000
  C   C20       1.0  0.03290904036136771  0.4247344289436299  0.1784259947645594  1.0000
  C   C21       1.0  0.15439978996029421  0.8692439598340798  0.026303393038993792  1.0000
  C   C22       1.0  0.8455998140483345  0.6307557205940595  0.5263033930389938  1.0000
  C   C23       1.0  0.8456016306079945  0.1307562316905688  0.9736984812230174  1.0000
  C   C24       1.0  0.1544000749295833  0.3692432572129221  0.4736972317150148  1.0000
  C   C25       1.0  0.08423624709886474  0.8796795043340921  0.1772139719985262  1.0000
  C   C26       1.0  0.9157622544283937  0.62032017609404  0.6772139719985262  1.0000
  C   C27       1.0  0.9157632127700522  0.1203182597552157  0.822786652755475  1.0000
  C   C28       1.0  0.08423849276752551  0.3796812291482681  0.3227860280014738  1.0000
  C   C29       1.0  0.1272258139409175  0.8894911979533191  0.261919994002362  1.0000
  C   C30       1.0  0.8727742191767118  0.6105096961924801  0.7619206187563632  1.0000
  C   C31       1.0  0.8727716258108912  0.1105102072889963  0.7380787564896352  1.0000
  C   C32       1.0  0.12722873298194773  0.3894917090498282  0.238080005997638  1.0000
  C   C33       1.0  0.9441893579122221  0.9056676270177773  0.1579596783766419  1.0000
  C   C34       1.0  0.05580871450603554  0.5943308396926952  0.6579596783766419  1.0000
  C   C35       1.0  0.05580899947532459  0.0943301370715375  0.8420403216233578  1.0000
  C   C36       1.0  0.9441916035808829  0.4056693518319534  0.3420409463773665  1.0000
  C   C37       1.0  0.3885513543019883  0.7552285359230808  0.0630639185820598  1.0000
  C   C38       1.0  0.6114482497066476  0.7447711445050587  0.5630632938280584  1.0000
  C   C39       1.0  0.6114489637849303  0.2447716556015678  0.9369367061719414  1.0000
  C   C40       1.0  0.3885527417526475  0.2552278333019231  0.4369373309259501  1.0000
  C   C41       1.0  0.24784557648956  0.8374324197846121  0.9652180703847859  1.0000
  C   C42       1.0  0.7521547008914452  0.6625660469258605  0.46521807038478596  1.0000
  C   C43       1.0  0.7521525366346181  0.1625677717400364  0.034780680107211  1.0000
  C   C44       1.0  0.24784586145884188  0.3374317171634544  0.5347831791232238  1.0000
  C   C45       1.0  0.857435915311619  0.9418643289977595  0.22101672466466474  1.0000
  C   C46       1.0  0.14256105462527555  0.5581341377127058  0.7210167246646646  1.0000
  C   C47       1.0  0.1425639736663058  0.0581346488092223  0.7789832753353352  1.0000
  C   C48       1.0  0.8574379761346406  0.4418624126589349  0.2789826505813337  1.0000
  N   N1        1.0  0.36315619347742967  0.7806255781029776  0.9824362907105311  1.0000
  N   N2        1.0  0.6368440839035756  0.719372888607495  0.4824356659565295  1.0000
  N   N3        1.0  0.6368441246094889  0.219374613421671  0.0175637092894689  1.0000
  N   N4        1.0  0.36315647844671156  0.2806248754818199  0.5175649587974716  1.0000
  N   N5        1.0  0.586950335232757  0.0750089655321418  0.2914202532752696  1.0000
  N   N6        1.0  0.4130522285228224  0.4249929508066828  0.791420878029278  1.0000
  N   N7        1.0  0.4130469196734197  0.9249887985571732  0.708576622954709  1.0000
  N   N8        1.0  0.5869498654178428  0.575006027000299  0.20857974672473026  1.0000
  N   N9        1.0  0.900098355201912  0.9522974460624454  0.3020042108419787  1.0000
  N   N10       1.0  0.0999008196977158  0.5477010206480273  0.8020042108419787  1.0000
  N   N11       1.0  0.09990171862163068  0.0477051728975368  0.6979951644040128  1.0000
  N   N12       1.0  0.9000982110622003  0.4522955297236209  0.1979957891580213  1.0000
  N   N13       1.0  0.25965742866343783  0.3583732017881616  0.0065749111287445  1.0000
  N   N14       1.0  0.740339866948659  0.1416262871153293  0.5065749111287445  1.0000
  N   N15       1.0  0.7403426451601122  0.6416294171718206  0.9934282126412697  1.0000
  N   N16       1.0  0.25965450962240777  0.8583726906916525  0.493424464117254  1.0000
