data_image0
_chemical_formula_structural       Zn6H36C36N24
_chemical_formula_sum              "Zn6 H36 C36 N24"
_cell_length_a       14.603615128163609
_cell_length_b       14.603617723918207
_cell_length_c       14.603533988208772
_cell_angle_alpha    109.47114389235111
_cell_angle_beta     109.47114967036727
_cell_angle_gamma    109.4713392090711

_space_group_name_H-M_alt    "P 1"
_space_group_IT_number       1

loop_
  _space_group_symop_operation_xyz
  'x, y, z'

loop_
  _atom_site_type_symbol
  _atom_site_label
  _atom_site_symmetry_multiplicity
  _atom_site_fract_x
  _atom_site_fract_y
  _atom_site_fract_z
  _atom_site_occupancy
  Zn  Zn1       1.0  0.5000000335406509  0.7500005422076655  0.24999946303007908  1.0000
  Zn  Zn2       1.0  0.5000005945100765  0.24999993907784557  0.7500002602407604  1.0000
  Zn  Zn3       1.0  0.24999994582642432  0.5000004810579314  0.7500002202163502  1.0000
  Zn  Zn4       1.0  0.7499997553607257  0.4999990733641227  0.24999930248957739  1.0000
  Zn  Zn5       1.0  0.7500001240508353  0.2500005373204886  0.4999999016596918  1.0000
  Zn  Zn6       1.0  0.25000050399989254  0.7499999439650155  0.499999821611148  1.0000
  H   H1        1.0  0.7676358319398485  0.8844599381117175  0.3381094410673741  1.0000
  H   H2        1.0  0.453648902509485  0.1155388477891534  0.8831730743763514  1.0000
  H   H3        1.0  0.23236134957126348  0.5704721380275829  0.11682342404304091  1.0000
  H   H4        1.0  0.5463490325581546  0.4295247377786852  0.6618885131294193  1.0000
  H   H5        1.0  0.3381111066220653  0.7676381025636446  0.8844623568819898  1.0000
  H   H6        1.0  0.8831752311864136  0.453649736306332  0.11553920355013518  1.0000
  H   H7        1.0  0.11682329375302898  0.23236433686116698  0.5704723334446911  1.0000
  H   H8        1.0  0.6618900120988016  0.5463513676886722  0.4295245842627581  1.0000
  H   H9        1.0  0.8844615442790271  0.3381101500723746  0.7676348130667707  1.0000
  H   H10       1.0  0.11554091326912898  0.8831754110550849  0.453649237046392  1.0000
  H   H11       1.0  0.5704743419168921  0.11682405269443312  0.23236410341286987  1.0000
  H   H12       1.0  0.42952628784951236  0.6618881480143275  0.5463506082502578  1.0000
  H   H13       1.0  0.33811147149659615  0.8844618433920534  0.7676349261624084  1.0000
  H   H14       1.0  0.8831760668736874  0.11554058508730966  0.45364935994263794  1.0000
  H   H15       1.0  0.11682466624680637  0.5704740189450277  0.23236354658389763  1.0000
  H   H16       1.0  0.6618892045649788  0.4295271842010566  0.5463508460156705  1.0000
  H   H17       1.0  0.8844600776894893  0.7676357422242078  0.3381094597706141  1.0000
  H   H18       1.0  0.11553906758710043  0.45364902260598694  0.8831725360449882  1.0000
  H   H19       1.0  0.5704725306863165  0.23236247074529373  0.11682416293937342  1.0000
  H   H20       1.0  0.42952529434300873  0.5463502798585653  0.6618886949910208  1.0000
  H   H21       1.0  0.7676382798475316  0.3381111126660274  0.8844624256480957  1.0000
  H   H22       1.0  0.4536497352773096  0.8831750488883118  0.11553913478429939  1.0000
  H   H23       1.0  0.23236415038584113  0.11682304533853488  0.5704728361433811  1.0000
  H   H24       1.0  0.5463514293383723  0.6618899011357088  0.42952456576535536  1.0000
  H   H25       1.0  0.5426750656605676  0.5426749906367051  0.20037117276594787  1.0000
  H   H26       1.0  0.6576976174201619  0.45732453497534936  1.0867360275560977e-06  1.0000
  H   H27       1.0  0.4573245665098967  0.6576975003637602  1.0546568633657486e-06  1.0000
  H   H28       1.0  0.34230275462901716  0.3423035368738781  0.7996273801029049  1.0000
  H   H29       1.0  0.20037253272484193  0.542675770759445  0.5426765916927893  1.0000
  H   H30       1.0  0.9999997807422716  0.6576972078983021  0.4573243321534977  1.0000
  H   H31       1.0  9.272861873235766e-07  0.45732528892319385  0.6576963342962046  1.0000
  H   H32       1.0  0.7996255883951592  0.34230278401123854  0.3423024720349518  1.0000
  H   H33       1.0  0.5426757234200609  0.20037321036789293  0.5426761622936527  1.0000
  H   H34       1.0  0.45732584520109754  5.662005692128219e-07  0.6576964075126457  1.0000
  H   H35       1.0  0.6576968319566561  2.1147731404012002e-07  0.4573251826895303  1.0000
  H   H36       1.0  0.3423027904558894  0.7996262720774185  0.3423035677854501  1.0000
  C   C1        1.0  0.7385364575517669  0.796323241957147  0.3106618406097683  1.0000
  C   C2        1.0  0.5143413289061839  0.20367886251368356  0.9422182642854225  1.0000
  C   C3        1.0  0.2614585317358546  0.5721225585565932  0.057784514723444216  1.0000
  C   C4        1.0  0.48566017302319153  0.4278740506335909  0.6893356778307693  1.0000
  C   C5        1.0  0.3106640919734998  0.738541452585622  0.7963268671009303  1.0000
  C   C6        1.0  0.9422135322905517  0.5143393458458548  0.20367640208761645  1.0000
  C   C7        1.0  0.05778548844759973  0.26146278012210905  0.5721240386656277  1.0000
  C   C8        1.0  0.6893368023125105  0.48565855891408943  0.4278764134241584  1.0000
  C   C9        1.0  0.7963216300923361  0.31066308482203214  0.7385401521916537  1.0000
  C   C10       1.0  0.20367721029577265  0.94221278081082  0.5143388263231259  1.0000
  C   C11       1.0  0.5721249966263499  0.05778606328302519  0.26146157853683155  1.0000
  C   C12       1.0  0.4278767169268819  0.6893349768633075  0.48566159413071125  1.0000
  C   C13       1.0  0.3106633070134208  0.7963216848197591  0.7385395902381903  1.0000
  C   C14       1.0  0.9422127562839221  0.20367618051688682  0.5143382597949259  1.0000
  C   C15       1.0  0.0577871031124175  0.5721251067932585  0.2614621809584463  1.0000
  C   C16       1.0  0.6893351136591973  0.4278766917248689  0.4856616359894731  1.0000
  C   C17       1.0  0.7963229414246628  0.7385367827482914  0.31066184986121975  1.0000
  C   C18       1.0  0.2036781720197069  0.5143405172825625  0.9422175297834414  1.0000
  C   C19       1.0  0.5721224390751091  0.26145829960861283  0.05778504866079017  1.0000
  C   C20       1.0  0.4278736891502959  0.48566050984244674  0.689335668579311  1.0000
  C   C21       1.0  0.7385414473328993  0.3106647640540744  0.7963264514019813  1.0000
  C   C22       1.0  0.5143393543369327  0.9422133411771513  0.20367633358615234  1.0000
  C   C23       1.0  0.26146329524448214  0.05778594557590108  0.5721252402404744  1.0000
  C   C24       1.0  0.48565859951673906  0.6893366747773298  0.42787638081584595  1.0000
  C   C25       1.0  0.6203969886282791  0.6203969027205433  0.23935976724578018  1.0000
  C   C26       1.0  0.6189640373378255  0.37960259086504805  7.867891727211293e-07  1.0000
  C   C27       1.0  0.37960260631962234  0.6189639197206419  7.484680751383763e-07  1.0000
  C   C28       1.0  0.3810355099455479  0.3810371262131656  0.7606382227919825  1.0000
  C   C29       1.0  0.23936102242748097  0.6203976713914657  0.620398348370749  1.0000
  C   C30       1.0  1.0181976576958703e-06  0.6189641225553117  0.3796034735299473  1.0000
  C   C31       1.0  1.1903767925995935e-07  0.3796035334914904  0.6189633563520331  1.0000
  C   C32       1.0  0.7606374525213936  0.38103560051642665  0.38103646613200953  1.0000
  C   C33       1.0  0.6203972218149686  0.23936211883940944  0.6203979251726608  1.0000
  C   C34       1.0  0.37960433291382145  8.511578925842578e-07  0.6189641018912866  1.0000
  C   C35       1.0  0.6189647203432996  6.845915195284032e-07  0.379603572624312  1.0000
  C   C36       1.0  0.3810358428251917  0.7606375323978372  0.3810359211579312  1.0000
  N   N1        1.0  0.6269853569524316  0.7208126433481541  0.265444896968994  1.0000
  N   N2        1.0  0.5446335156599317  0.27918728880411703  0.9061734752160931  1.0000
  N   N3        1.0  0.37301371709794034  0.6384598081631482  0.09382800421515476  1.0000
  N   N4        1.0  0.4553661512327523  0.36153954575547703  0.7345531532124313  1.0000
  N   N5        1.0  0.26544589111180283  0.6269862540040878  0.7208136486545557  1.0000
  N   N6        1.0  0.906173290266416  0.5446327577385474  0.27918648622836173  1.0000
  N   N7        1.0  0.09382671406533653  0.37301424540535066  0.6384588075685755  1.0000
  N   N8        1.0  0.7345526682725562  0.45536669035394084  0.3615401029602268  1.0000
  N   N9        1.0  0.7208137510324875  0.2654467036343109  0.6269862356703869  1.0000
  N   N10       1.0  0.2791883359669  0.9061731641317436  0.5446329943697708  1.0000
  N   N11       1.0  0.6384594096544518  0.09382646368766963  0.37301393941031347  1.0000
  N   N12       1.0  0.3615391870379199  0.7345523813917796  0.4553670449281882  1.0000
  N   N13       1.0  0.265446438535534  0.7208133375703343  0.6269866469682699  1.0000
  N   N14       1.0  0.9061731188382609  0.2791872793432619  0.5446324099826115  1.0000
  N   N15       1.0  0.09382640128919204  0.6384592395963935  0.37301385221609007  1.0000
  N   N16       1.0  0.7345527822800688  0.36153942956089946  0.45536662044570164  1.0000
  N   N17       1.0  0.7208123374322283  0.6269857029149436  0.2654449119904356  1.0000
  N   N18       1.0  0.2791863724203836  0.5446324650206834  0.9061732321539894  1.0000
  N   N19       1.0  0.6384601755760498  0.3730139471852497  0.09382756251147134  1.0000
  N   N20       1.0  0.3615405169456308  0.45536699372323153  0.7345533387559656  1.0000
  N   N21       1.0  0.6269866657882517  0.2654470031604746  0.7208143913019073  1.0000
  N   N22       1.0  0.5446332003514056  0.9061726933434998  0.2791864283468044  1.0000
  N   N23       1.0  0.3730145219397513  0.09382607248779355  0.6384593364666884  1.0000
  N   N24       1.0  0.45536698037378176  0.7345536286150605  0.36154074302906053  1.0000
