data_image0
_chemical_formula_structural       Al2H18C48Cl6O12
_chemical_formula_sum              "Al2 H18 C48 Cl6 O12"
_cell_length_a       3.993393689446783
_cell_length_b       29.01059045548625
_cell_length_c       29.010865773296906
_cell_angle_alpha    119.99417555757829
_cell_angle_beta     89.99848528769209
_cell_angle_gamma    90.00154276980894

_space_group_name_H-M_alt    "P 1"
_space_group_IT_number       1

loop_
  _space_group_symop_operation_xyz
  'x, y, z'

loop_
  _atom_site_type_symbol
  _atom_site_label
  _atom_site_symmetry_multiplicity
  _atom_site_fract_x
  _atom_site_fract_y
  _atom_site_fract_z
  _atom_site_occupancy
  Al  Al1       1.0  0.009047190935248802  0.5000084149889332  0.4999928936076402  1.0000
  Al  Al2       1.0  0.009160957807225102  0.1666609928290939  0.8333491495024106  1.0000
  H   H1        1.0  0.2072026652593024  0.17841823686953978  0.6986075860947595  1.0000
  H   H2        1.0  0.21108650406438298  0.22774294815003784  0.6483187462174983  1.0000
  H   H3        1.0  0.7862364684506247  0.30376316891835126  0.8234798716872334  1.0000
  H   H4        1.0  0.7860408472801267  0.3628968595754289  0.5098435271345637  1.0000
  H   H5        1.0  0.20718730858422424  0.4882526527599254  0.6347357935471152  1.0000
  H   H6        1.0  0.21115643976769144  0.4389330825652495  0.6850277656398732  1.0000
  H   H7        1.0  0.20721968343212893  0.02015894512607031  0.8215886390405914  1.0000
  H   H8        1.0  0.2111656015515848  0.9205498463032953  0.7722652467861764  1.0000
  H   H9        1.0  0.786220924294966  0.019725353609452212  0.6962528333354641  1.0000
  H   H10       1.0  0.786111480985582  0.6469419863935856  0.6370922061065087  1.0000
  H   H11       1.0  0.20729800189726433  0.646504390826195  0.5117416141674768  1.0000
  H   H12       1.0  0.21132712930844383  0.7461143027390307  0.5610570759717959  1.0000
  H   H13       1.0  0.20701899276361502  0.3013705664235432  0.9798217469044916  1.0000
  H   H14       1.0  0.2108627688143798  0.35166580146516685  0.0794324768958319  1.0000
  H   H15       1.0  0.7861404995533547  0.1765140313023252  0.980322411320799  1.0000
  H   H16       1.0  0.786094244668007  0.4901589834202228  0.3530259148221901  1.0000
  H   H17       1.0  0.20702540947148412  0.36529111892836147  0.3535211861262368  1.0000
  H   H18       1.0  0.21095434906207086  0.3149926902996967  0.2539108114954729  1.0000
  C   C1        1.0  0.5075245823571778  0.459228918739079  0.4181972719313762  1.0000
  C   C2        1.0  0.507494766329117  0.4589996299249536  0.5407859046083275  1.0000
  C   C3        1.0  0.5075270018494535  0.5818012530720936  0.5409953137826236  1.0000
  C   C4        1.0  0.5076448925934541  0.20766331060050913  0.7925469044703137  1.0000
  C   C5        1.0  0.5076051439074404  0.08486514414323658  0.7923485146616827  1.0000
  C   C6        1.0  0.5075775146038454  0.20744303655008176  0.9151437558716681  1.0000
  C   C7        1.0  0.4990415765863858  0.237919772626448  0.7636483123045893  1.0000
  C   C8        1.0  0.3337213270234257  0.2166350830592662  0.7145406530698324  1.0000
  C   C9        1.0  0.33444301738025217  0.24413567327971458  0.6868510187578778  1.0000
  C   C10       1.0  0.4877866442760634  0.29463301248542  0.7083782323656393  1.0000
  C   C11       1.0  0.642980059254384  0.316233545581568  0.7588947634436424  1.0000
  C   C12       1.0  0.6556880419206409  0.2876564129130658  0.7855846511088276  1.0000
  C   C13       1.0  0.4851278493085971  0.32218703440224766  0.6797624713923015  1.0000
  C   C14       1.0  0.48512016755938  0.3444892914972258  0.6535838296398354  1.0000
  C   C15       1.0  0.4877651324055847  0.3720389995126895  0.6249613539758131  1.0000
  C   C16       1.0  0.6429117680677977  0.35043185883958483  0.5744390701269851  1.0000
  C   C17       1.0  0.6555481437465785  0.3790056836004754  0.5477442222129058  1.0000
  C   C18       1.0  0.49891470284436684  0.4287417285684186  0.5696811081019605  1.0000
  C   C19       1.0  0.3336589803266463  0.45003146132089716  0.6187953920217026  1.0000
  C   C20       1.0  0.33442474661891464  0.4225339750194195  0.6464881266987633  1.0000
  C   C21       1.0  0.49904064295095196  0.02571527200667135  0.7620928520213256  1.0000
  C   C22       1.0  0.333749634168953  0.9978798553007311  0.7833684866993238  1.0000
  C   C23       1.0  0.33448561225314677  0.9426986450049457  0.755874196196075  1.0000
  C   C24       1.0  0.48785858530197157  0.9137375216372592  0.7053767676259995  1.0000
  C   C25       1.0  0.643029894319838  0.9426616514686543  0.6837780625289227  1.0000
  C   C26       1.0  0.6557134797446409  0.9979252341321897  0.7123549569065162  1.0000
  C   C27       1.0  0.48520887977124966  0.8575719520135154  0.6778231672122815  1.0000
  C   C28       1.0  0.48524134474809694  0.8090933371360621  0.6555077504668035  1.0000
  C   C29       1.0  0.4878778696799273  0.7529283568010217  0.6279563189209086  1.0000
  C   C30       1.0  0.6430140574146961  0.7240042603773916  0.6495571063745872  1.0000
  C   C31       1.0  0.6556623088976963  0.6687408264897742  0.6209862711193425  1.0000
  C   C32       1.0  0.4989807432913408  0.6409498849903272  0.5712473886535747  1.0000
  C   C33       1.0  0.33377278097145074  0.6687857644383897  0.5499682577635739  1.0000
  C   C34       1.0  0.3345467971992663  0.7239643404773872  0.5774555320453203  1.0000
  C   C35       1.0  0.4988801135014286  0.2363344137459862  0.9742924569105185  1.0000
  C   C36       1.0  0.3335465319943651  0.28543786104129515  0.0021118045021708835  1.0000
  C   C37       1.0  0.3342449260027252  0.3131310710314069  0.05729279063430682  1.0000
  C   C38       1.0  0.4876432429892716  0.29161352469838425  0.08626784458962788  1.0000
  C   C39       1.0  0.6428349206592969  0.2410987523421398  0.05736915186952265  1.0000
  C   C40       1.0  0.6555613063918743  0.21440378269743124  0.0021033125200417835  1.0000
  C   C41       1.0  0.485028659637571  0.32024140203855483  0.14243604075794988  1.0000
  C   C42       1.0  0.48503893765132494  0.34642655015094453  0.19090545444149848  1.0000
  C   C43       1.0  0.48764297333578105  0.375053798121023  0.24707221277252958  1.0000
  C   C44       1.0  0.6428264042026087  0.42557092438587324  0.2759741140674308  1.0000
  C   C45       1.0  0.655527013094968  0.4522657271752595  0.3312401241829903  1.0000
  C   C46       1.0  0.49883326439638864  0.4303356360824112  0.35904909497467946  1.0000
  C   C47       1.0  0.33352063609900273  0.38122757199894863  0.3312314738255182  1.0000
  C   C48       1.0  0.33426963252986025  0.353532786136114  0.27604930642734626  1.0000
  Cl  Cl1       1.0  0.8232511281861363  0.3785550231852995  0.7874878570209846  1.0000
  Cl  Cl2       1.0  0.8231611269761742  0.28811237608653073  0.5458447265639635  1.0000
  Cl  Cl3       1.0  0.8232629378400418  0.9089487633487183  0.6214545455238395  1.0000
  Cl  Cl4       1.0  0.8232463507081746  0.7577182549162773  0.7118788831345527  1.0000
  Cl  Cl5       1.0  0.823161534109225  0.21250773035497164  0.091097946040172  1.0000
  Cl  Cl6       1.0  0.8231804829639772  0.45416372794645105  0.24224704054061164  1.0000
  O   O1        1.0  0.7453189349801264  0.5586798352553615  0.5510183144785614  1.0000
  O   O2        1.0  0.7453683843748492  0.49236284243644957  0.4413066860265644  1.0000
  O   O3        1.0  0.7453649410858317  0.4489756284692705  0.5076478616797787  1.0000
  O   O4        1.0  0.2758028407207647  0.5579935960297322  0.5068020122062792  1.0000
  O   O5        1.0  0.27582450632350236  0.49319310396209914  0.5511632421129421  1.0000
  O   O6        1.0  0.27583351548079094  0.4488433487557943  0.44201632866767687  1.0000
  O   O7        1.0  0.7454569061440284  0.17430737976641814  0.892035458724088  1.0000
  O   O8        1.0  0.7454878953248213  0.2176945159476347  0.82569022486215  1.0000
  O   O9        1.0  0.7454212146859761  0.10798540133837513  0.7823212331114392  1.0000
  O   O10       1.0  0.27595087643602056  0.21782803489725922  0.8913224421114025  1.0000
  O   O11       1.0  0.2759089304629328  0.10867621981900304  0.8265431516665133  1.0000
  O   O12       1.0  0.27597490965763444  0.1734658815517989  0.7821706932494622  1.0000
