data_image0
_chemical_formula_structural       Cd2H44C64N8O12
_chemical_formula_sum              "Cd2 H44 C64 N8 O12"
_cell_length_a       7.7230569442644885
_cell_length_b       14.176460009114175
_cell_length_c       14.177651410063564
_cell_angle_alpha    79.19655308663265
_cell_angle_beta     74.15027612630455
_cell_angle_gamma    74.11613075963436

_space_group_name_H-M_alt    "P 1"
_space_group_IT_number       1

loop_
  _space_group_symop_operation_xyz
  'x, y, z'

loop_
  _atom_site_type_symbol
  _atom_site_label
  _atom_site_symmetry_multiplicity
  _atom_site_fract_x
  _atom_site_fract_y
  _atom_site_fract_z
  _atom_site_occupancy
  Cd  Cd1       1.0  0.07232317229295411  0.24976753172325056  0.7496528138720394  1.0000
  Cd  Cd2       1.0  0.9276718843770343  0.7502341593104018  0.2503442509148712  1.0000
  H   H1        1.0  0.5766298401754999  0.3966612477764995  0.6521951463584728  1.0000
  H   H2        1.0  0.6240005132376467  0.10361087876812289  0.8476737780561266  1.0000
  H   H3        1.0  0.42337998326571136  0.603337524118835  0.3478062998469937  1.0000
  H   H4        1.0  0.37600000860368965  0.8963796533834908  0.1523174148409012  1.0000
  H   H5        1.0  0.20028976973959794  0.50724710841056  0.4614202033657477  1.0000
  H   H6        1.0  0.16933459139114868  0.9917384722260891  0.03894542880461667  1.0000
  H   H7        1.0  0.7997198209925646  0.49275016742635097  0.5385796313260087  1.0000
  H   H8        1.0  0.8306636427999406  0.0082587446991056  0.9610483005126795  1.0000
  H   H9        1.0  0.05079996972324343  0.033278141635797495  0.8003964331039128  1.0000
  H   H10       1.0  0.885304731278971  0.46665086794776295  0.69927803982916  1.0000
  H   H11       1.0  0.9491865010620728  0.9667272764897704  0.19960307191520596  1.0000
  H   H12       1.0  0.11468781835571203  0.5333568024242936  0.3007248753055549  1.0000
  H   H13       1.0  0.8280790510252772  0.9431283161418732  0.5929475067314555  1.0000
  H   H14       1.0  0.3645515353353586  0.5568706816111514  0.9071293655683661  1.0000
  H   H15       1.0  0.1719333357272461  0.05687184400460408  0.4070451972325344  1.0000
  H   H16       1.0  0.6354482062070943  0.44312816995783066  0.09287943624927664  1.0000
  H   H17       1.0  0.8047041313069555  0.11500905351702775  0.5034070361592242  1.0000
  H   H18       1.0  0.424306610115622  0.3850135513757705  0.9967294545104934  1.0000
  H   H19       1.0  0.19530040111855154  0.8849911210898398  0.49658678934613937  1.0000
  H   H20       1.0  0.5756969284151551  0.6149830534611381  0.0032768209481445552  1.0000
  H   H21       1.0  0.9143568104236834  0.23696962429175977  0.5652728483859519  1.0000
  H   H22       1.0  0.7182414516876039  0.26295340396016786  0.9345116279917604  1.0000
  H   H23       1.0  0.08564119532243805  0.7630327846121291  0.43472220297592656  1.0000
  H   H24       1.0  0.2817633501482033  0.7370453522365779  0.06548812057319245  1.0000
  H   H25       1.0  0.8411529904981241  0.7945224260022102  0.937140504032378  1.0000
  H   H26       1.0  0.5734848267932693  0.7055143817372523  0.5627902870826205  1.0000
  H   H27       1.0  0.15884658466457324  0.20547780138286237  0.06285825504129149  1.0000
  H   H28       1.0  0.4265031847739421  0.2944844702252992  0.4372181372048942  1.0000
  H   H29       1.0  0.8614345729768329  0.6534973816230687  0.06317836853133935  1.0000
  H   H30       1.0  0.578593004174387  0.8465428830199213  0.43678366062940915  1.0000
  H   H31       1.0  0.13856948397732083  0.346504296581969  0.9368177732832095  1.0000
  H   H32       1.0  0.4213963584176952  0.15345448368748998  0.5632242540778876  1.0000
  H   H33       1.0  0.12640768560600432  0.4592781133305763  0.8357649039507393  1.0000
  H   H34       1.0  0.4210024031213209  0.04067794939113158  0.664213665493655  1.0000
  H   H35       1.0  0.8735976846784225  0.5407235923889998  0.16423394795724278  1.0000
  H   H36       1.0  0.578993411754304  0.9593216102574756  0.33579193148490555  1.0000
  H   H37       1.0  0.10188363028662896  0.6023145791614154  0.7098819391575334  1.0000
  H   H38       1.0  0.4136167267454739  0.8976796298374977  0.7900864882770335  1.0000
  H   H39       1.0  0.898117221505089  0.3976885902067409  0.2901152184636899  1.0000
  H   H40       1.0  0.5863832852006254  0.10231920502022969  0.2099207053806538  1.0000
  H   H41       1.0  0.9980150328918643  0.8765419584452655  0.824604693065119  1.0000
  H   H42       1.0  0.6994250419859965  0.6233852217289166  0.67523539972359  1.0000
  H   H43       1.0  0.00198075959985292  0.12346270799397978  0.17539398658925623  1.0000
  H   H44       1.0  0.30056383607480786  0.3766195459905432  0.3247728394099312  1.0000
  C   C1        1.0  0.2510222898240499  0.3855010586770078  0.6289516836075322  1.0000
  C   C2        1.0  0.2642127501828994  0.11386571471435757  0.8713471398117179  1.0000
  C   C3        1.0  0.7489888059821086  0.6144939671642857  0.37104522758720293  1.0000
  C   C4        1.0  0.7357843614282871  0.8861277954872903  0.1286457770412212  1.0000
  C   C5        1.0  0.3775674107766918  0.4460561316200965  0.5626129422995376  1.0000
  C   C6        1.0  0.3856525093258155  0.05355611099255948  0.9375089835170343  1.0000
  C   C7        1.0  0.6224483852126357  0.5539396487774937  0.43738556892807867  1.0000
  C   C8        1.0  0.6143446166027078  0.9464395915311881  0.062481327557605895  1.0000
  C   C9        1.0  0.5452666137380433  0.44236746681626454  0.5852851192900417  1.0000
  C   C10       1.0  0.5721302720887637  0.05776386158792229  0.9146184641132179  1.0000
  C   C11       1.0  0.45474629851107556  0.5576290658867434  0.4147145053518885  1.0000
  C   C12       1.0  0.42786928548586184  0.9422288871367925  0.08537243596093447  1.0000
  C   C13       1.0  0.33268394307677324  0.5039587424105179  0.477050057745913  1.0000
  C   C14       1.0  0.3138809737137863  0.9954835056550377  0.023126302997560803  1.0000
  C   C15       1.0  0.6673280936188275  0.4960377719494672  0.5229477601670567  1.0000
  C   C16       1.0  0.6861176195941358  0.004511459642778002  0.9768643042537093  1.0000
  C   C17       1.0  0.9963700549086026  0.047696226439235496  0.734326802098316  1.0000
  C   C18       1.0  0.7792931533688685  0.45225488880161174  0.765440212899783  1.0000
  C   C19       1.0  0.0036281835465601566  0.952307678523084  0.2656698607772654  1.0000
  C   C20       1.0  0.22070603929973484  0.5477512953026249  0.23456228213527194  1.0000
  C   C21       1.0  0.9433569879598523  0.9737367707741099  0.7033646497915598  1.0000
  C   C22       1.0  0.6210617674659888  0.5262359376951764  0.7965275283377835  1.0000
  C   C23       1.0  0.0566399371650377  0.026267106673671495  0.2966293029905884  1.0000
  C   C24       1.0  0.37892795850700633  0.4737658654219672  0.2034801978617651  1.0000
  C   C25       1.0  0.8705786989605144  0.9984371711969683  0.619096640542587  1.0000
  C   C26       1.0  0.4888039763494026  0.5015681880878728  0.8809163354438638  1.0000
  C   C27       1.0  0.1294281253793202  0.001563006673436  0.3808975821007934  1.0000
  C   C28       1.0  0.5111967203998447  0.49843434432189326  0.11909076731370762  1.0000
  C   C29       1.0  0.8578911185204705  0.09386124943482337  0.5697538914086167  1.0000
  C   C30       1.0  0.5225681829788017  0.406147553280526  0.9302592910413026  1.0000
  C   C31       1.0  0.14211309248280923  0.9061396640297446  0.43023983648912884  1.0000
  C   C32       1.0  0.47743025955072227  0.5938534630960177  0.06974419490459377  1.0000
  C   C33       1.0  0.9165535432993719  0.16269629567140942  0.6039129635099982  1.0000
  C   C34       1.0  0.6844723804430897  0.3372746892045199  0.8959579088693063  1.0000
  C   C35       1.0  0.0834477186277739  0.837303899922915  0.39608277781277934  1.0000
  C   C36       1.0  0.3155365440673493  0.6627277694395701  0.1040423445025525  1.0000
  C   C37       1.0  0.9611153307725645  0.7924982339126244  0.7328346066591677  1.0000
  C   C38       1.0  0.48643403470106983  0.7075065623964248  0.7670969774131108  1.0000
  C   C39       1.0  0.03887175521588672  0.2075027235522028  0.2671627739122684  1.0000
  C   C40       1.0  0.5135486471624945  0.2924938033484778  0.23291457706749694  1.0000
  C   C41       1.0  0.9710588842028828  0.708530272449508  0.8135480932878209  1.0000
  C   C42       1.0  0.49321574536787005  0.7914739552682802  0.6864197946243777  1.0000
  C   C43       1.0  0.028936148096491462  0.2914737219770699  0.1864571166139868  1.0000
  C   C44       1.0  0.5067783694193153  0.20852484554783499  0.313583894663843  1.0000
  C   C45       1.0  0.9049757351736718  0.7212829352236053  0.9139113918286484  1.0000
  C   C46       1.0  0.5405112051415276  0.7787488521856644  0.586053591225955  1.0000
  C   C47       1.0  0.09502221856050143  0.2787187941278688  0.08608948498519449  1.0000
  C   C48       1.0  0.4594770768293231  0.22124998306562552  0.41395322490161124  1.0000
  C   C49       1.0  0.9158988662111373  0.6401826442713698  0.9862487069522459  1.0000
  C   C50       1.0  0.5426436508789368  0.8598585551109817  0.5137293844454902  1.0000
  C   C51       1.0  0.08410080192881961  0.3598220362346964  0.013751471773630898  1.0000
  C   C52       1.0  0.45734827403110506  0.1401387981487048  0.4862773192398677  1.0000
  C   C53       1.0  0.9937461679470162  0.5432524939444078  0.9614185865539255  1.0000
  C   C54       1.0  0.4984626230547776  0.956761024936142  0.5385766275595998  1.0000
  C   C55       1.0  0.006254646150104341  0.4567521881934339  0.03858179074095601  1.0000
  C   C56       1.0  0.5015297396320264  0.04323633749506679  0.46143097949023826  1.0000
  C   C57       1.0  0.060454418332888435  0.5317296758758798  0.8601266059539867  1.0000
  C   C58       1.0  0.45204451172511273  0.9682540549198961  0.6398669111331969  1.0000
  C   C59       1.0  0.9395463304282999  0.4682735360863075  0.1398746713516203  1.0000
  C   C60       1.0  0.5479520623495092  0.031744775042525895  0.36013968681746883  1.0000
  C   C61       1.0  0.048264447941242745  0.6125668386982284  0.7877659205156959  1.0000
  C   C62       1.0  0.4483473382714465  0.8874174317327782  0.712218186851004  1.0000
  C   C63       1.0  0.9517349874896722  0.38743634574942115  0.2122326466964708  1.0000
  C   C64       1.0  0.5516470602433754  0.11258214299531487  0.28778881971850007  1.0000
  N   N1        1.0  0.9827931768130823  0.1391414793473871  0.6859880783175498  1.0000
  N   N2        1.0  0.8090986234487759  0.3607944754957372  0.8137456972130792  1.0000
  N   N3        1.0  0.017203221821858888  0.8608646238450034  0.3140064850061961  1.0000
  N   N4        1.0  0.19090424985362395  0.6392087138472105  0.18625346570611606  1.0000
  N   N5        1.0  0.9625262085237053  0.8812604788806695  0.7595804547357402  1.0000
  N   N6        1.0  0.6036514764370722  0.6187109431865491  0.7403211286937861  1.0000
  N   N7        1.0  0.03747545348559819  0.11874123865485588  0.2404194096251686  1.0000
  N   N8        1.0  0.39634145469835846  0.3812893687674759  0.25968558169908107  1.0000
  O   O1        1.0  0.2641076744161881  0.3605608480792739  0.718611063480175  1.0000
  O   O2        1.0  0.341983592813847  0.13876201622747428  0.7815873923647061  1.0000
  O   O3        1.0  0.7359083776594345  0.6394327232849547  0.281388445365799  1.0000
  O   O4        1.0  0.6580121443952078  0.8612366843210991  0.2184066479638034  1.0000
  O   O5        1.0  0.13849246651324892  0.3591253124585306  0.5934533943595995  1.0000
  O   O6        1.0  0.08969742992609063  0.14012029601959594  0.9069298835750956  1.0000
  O   O7        1.0  0.8615186569342369  0.6408726963281027  0.40654583649806847  1.0000
  O   O8        1.0  0.9103010603513011  0.8598747118722441  0.09306484336055824  1.0000
  O   O9        1.0  0.9532491862671363  0.7831127195760812  0.649168204349472  1.0000
  O   O10       1.0  0.38537192915471535  0.7169159703398195  0.8507922003012212  1.0000
  O   O11       1.0  0.04673291908123648  0.2168919957587363  0.3508347236856224  1.0000
  O   O12       1.0  0.6146132506842292  0.2830843134805717  0.14921151194864274  1.0000
