data_image0
_chemical_formula_structural       Al2H30C48N4O10
_chemical_formula_sum              "Al2 H30 C48 N4 O10"
_cell_length_a       6.666620220364205
_cell_length_b       16.420929694626807
_cell_length_c       17.10705275601527
_cell_angle_alpha    89.99992746347617
_cell_angle_beta     90.0001477867064
_cell_angle_gamma    101.71551349897953

_space_group_name_H-M_alt    "P 1"
_space_group_IT_number       1

loop_
  _space_group_symop_operation_xyz
  'x, y, z'

loop_
  _atom_site_type_symbol
  _atom_site_label
  _atom_site_symmetry_multiplicity
  _atom_site_fract_x
  _atom_site_fract_y
  _atom_site_fract_z
  _atom_site_occupancy
  Al  Al1       1.0  3.6640286548392106e-07  0.5000008537294748  2.7918276400000006e-07  1.0000
  Al  Al2       1.0  0.5000003078476283  0.5000001914656167  0.9999997863746943  1.0000
  H   H1        1.0  0.8456876006525533  0.33455648240634867  0.17899832684641132  1.0000
  H   H2        1.0  0.7913029228839291  0.22759912969129198  0.28589696526717745  1.0000
  H   H3        1.0  0.15431694440795246  0.6654445598712044  0.17899894424287063  1.0000
  H   H4        1.0  0.20870109340642537  0.7724024486670302  0.2858969224664918  1.0000
  H   H5        1.0  0.511406686237393  0.6654558429937366  0.8209992493634319  1.0000
  H   H6        1.0  0.5639626575111621  0.7724368050292227  0.7140813197139835  1.0000
  H   H7        1.0  0.4885922569115237  0.33454654945317236  0.8209982708180591  1.0000
  H   H8        1.0  0.4360343261921642  0.22756007587001653  0.7140839260170538  1.0000
  H   H9        1.0  0.15431954904614292  0.665445545990444  0.8210043297795622  1.0000
  H   H10       1.0  0.20870572682786567  0.7724028987261846  0.7141033531426473  1.0000
  H   H11       1.0  0.8456788271401197  0.3345587122398399  0.8209990359427695  1.0000
  H   H12       1.0  0.7912931230828448  0.22759771376730947  0.7141033959371657  1.0000
  H   H13       1.0  0.4885982863544315  0.33454183185886427  0.1789987308302869  1.0000
  H   H14       1.0  0.4360435040877846  0.2275602479079666  0.2859166604807086  1.0000
  H   H15       1.0  0.5114065146771979  0.665456722697357  0.17899970936910145  1.0000
  H   H16       1.0  0.5639602013103158  0.772440708499481  0.2859163923863903  1.0000
  H   H17       1.0  0.30517263722500604  0.6103547199996485  9.506641874000002e-07  1.0000
  H   H18       1.0  0.694828991254397  0.3896458440506337  1.1340035399999993e-07  1.0000
  H   H19       1.0  0.041560172228592804  0.08316384526281688  0.19721687532985047  1.0000
  H   H20       1.0  0.16038149702139043  0.32174802482207815  0.4207322049271482  1.0000
  H   H21       1.0  0.9584357962390939  0.9168378042037232  0.19721507616929307  1.0000
  H   H22       1.0  0.8396371081967755  0.6782509577271439  0.4207299924769501  1.0000
  H   H23       1.0  0.9584358002521186  0.9168338294699296  0.8027846121846736  1.0000
  H   H24       1.0  0.8396342867331299  0.678250272102936  0.5792681134885598  1.0000
  H   H25       1.0  0.04155148713108051  0.08316049234596082  0.8027858267862271  1.0000
  H   H26       1.0  0.1603774865488106  0.32174796111350895  0.5792697413835555  1.0000
  H   H27       1.0  0.00019613475127769475  0.9999996710075649  0.4314372357980574  1.0000
  H   H28       1.0  0.0001925694069556  3.9617649609999985e-07  0.5685637462157445  1.0000
  H   H29       1.0  0.037199815851245405  0.0746313940909573  0.5000013540653186  1.0000
  H   H30       1.0  0.9625144638164258  0.9253668988661943  0.49999837964369925  1.0000
  C   C1        1.0  0.9734269411336882  0.3104545937796672  0.20301598568863713  1.0000
  C   C2        1.0  0.9440496621615113  0.251093351389116  0.26230909599413377  1.0000
  C   C3        1.0  0.026577441249997887  0.6895458072781508  0.2030152753418477  1.0000
  C   C4        1.0  0.055956586454925676  0.7489070020786882  0.26230834285153304  1.0000
  C   C5        1.0  0.6632350785034049  0.689558301358815  0.7969706253673509  1.0000
  C   C6        1.0  0.6932233226745127  0.7489114666815625  0.7376897910145175  1.0000
  C   C7        1.0  0.33676247218230065  0.31044162264169733  0.796968938150741  1.0000
  C   C8        1.0  0.30677473987572773  0.2510872610673331  0.7376904841848031  1.0000
  C   C9        1.0  0.026580775542108  0.6895455688318819  0.7969855018303065  1.0000
  C   C10       1.0  0.0559592435196024  0.7489061893072558  0.7376918069715686  1.0000
  C   C11       1.0  0.9734207083141158  0.31045622100184284  0.7969832893999823  1.0000
  C   C12       1.0  0.9440394410660673  0.2510937823107823  0.7376913909984424  1.0000
  C   C13       1.0  0.3367683940680948  0.31043937347403977  0.2030273548256076  1.0000
  C   C14       1.0  0.3067858389686934  0.2510855862946428  0.2623093582901462  1.0000
  C   C15       1.0  0.6632347993878938  0.6895616494888586  0.2030296265898812  1.0000
  C   C16       1.0  0.6932212876452725  0.7489135233221376  0.26230924966517233  1.0000
  C   C17       1.0  0.19988823582788487  0.39999008614300646  0.1061625036200198  1.0000
  C   C18       1.0  0.16976432358525534  0.3397506644688093  0.17243051512082272  1.0000
  C   C19       1.0  0.10978083881385463  0.2198185073019943  0.2917643807054802  1.0000
  C   C20       1.0  0.07678326857088541  0.15399162102427508  0.3534015555793034  1.0000
  C   C21       1.0  0.036146430066907  0.07250506707522672  0.327800447871013  1.0000
  C   C22       1.0  0.0922271739492047  0.18500936020850386  0.4326665130721281  1.0000
  C   C23       1.0  0.02122046689507331  0.04247807116333751  0.2478451314929302  1.0000
  C   C24       1.0  0.1334170421089524  0.26779078171481524  0.4587358482050804  1.0000
  C   C25       1.0  0.8001185484039866  0.6000103927227869  0.10616326954858123  1.0000
  C   C26       1.0  0.8302410589028497  0.660249139232043  0.1724306533805375  1.0000
  C   C27       1.0  0.8902259027395943  0.7801824444498067  0.29176326402848934  1.0000
  C   C28       1.0  0.9232187315834679  0.846008037306305  0.3533998073135579  1.0000
  C   C29       1.0  0.9638332226752695  0.9274952334509762  0.3277986411589353  1.0000
  C   C30       1.0  0.9077791938046433  0.8149889906647019  0.43266478707717954  1.0000
  C   C31       1.0  0.9787736922251471  0.9575222937604265  0.24784447231515122  1.0000
  C   C32       1.0  0.8665894866537301  0.7322075482263131  0.4587330125587386  1.0000
  C   C33       1.0  0.8001201028743239  0.6000113203388437  0.8938389838984833  1.0000
  C   C34       1.0  0.8302445820958508  0.6602488762275627  0.8275703878448725  1.0000
  C   C35       1.0  0.8902265668469269  0.7801810333746316  0.7082365222594618  1.0000
  C   C36       1.0  0.9232178259935963  0.846007297638465  0.6465987628285959  1.0000
  C   C37       1.0  0.9638282861617711  0.9274950951020031  0.672201039631247  1.0000
  C   C38       1.0  0.9077784206762517  0.8149895585134602  0.5673338053380449  1.0000
  C   C39       1.0  0.978770127525337  0.957520847361451  0.7521546023554324  1.0000
  C   C40       1.0  0.8665900525368215  0.7322081370268947  0.5412644702058529  1.0000
  C   C41       1.0  0.19988022319014934  0.39999287942703887  0.8938364643012593  1.0000
  C   C42       1.0  0.16975559064093906  0.33975288902820466  0.8275679113605394  1.0000
  C   C43       1.0  0.1097698137700007  0.21981771800427197  0.7082370543759355  1.0000
  C   C44       1.0  0.07677155182554432  0.15399025928309132  0.6466005110892539  1.0000
  C   C45       1.0  0.036138493510954106  0.0725049286870103  0.6722022617875751  1.0000
  C   C46       1.0  0.09222008972450615  0.18500930604337634  0.567334946775958  1.0000
  C   C47       1.0  0.021213591145020406  0.0424760027892503  0.752156430640369  1.0000
  C   C48       1.0  0.13341367490998124  0.267789504670688  0.5412667212971201  1.0000
  N   N1        1.0  0.9999376576356696  0.9999991695570217  0.3730577261609867  1.0000
  N   N2        1.0  0.9999281417644357  0.9999992258359429  0.6269425133224544  1.0000
  N   N3        1.0  0.0683133923559254  0.1368224218484428  0.5000013318166978  1.0000
  N   N4        1.0  0.931726702735169  0.8631764973278208  0.49999840205669704  1.0000
  O   O1        1.0  0.0411751560992499  0.42281412165350213  0.0798381789151463  1.0000
  O   O2        1.0  0.9588254654647487  0.5771863782705253  0.0798391332415065  1.0000
  O   O3        1.0  0.6185846515413901  0.5771759655752575  0.9201695666438143  1.0000
  O   O4        1.0  0.3814173371660914  0.4228282130684704  0.9201660336501405  1.0000
  O   O5        1.0  0.9588256825013347  0.5771872847296392  0.9201633085995626  1.0000
  O   O6        1.0  0.04117687315074656  0.4228150281330656  0.9201606006112755  1.0000
  O   O7        1.0  0.3814188760848367  0.42282481891245294  0.07983133631840642  1.0000
  O   O8        1.0  0.618580812392608  0.5771738152122268  0.07983077742900951  1.0000
  O   O9        1.0  0.27513395266097973  0.5501961770929924  3.8766082610000007e-07  1.0000
  O   O10       1.0  0.7248665749227926  0.4498046073554676  0.9999999307456521  1.0000
