data_image0
_chemical_formula_structural       Cd6H40C20Cl12O10
_chemical_formula_sum              "Cd6 H40 C20 Cl12 O10"
_cell_length_a       7.169030899020716
_cell_length_b       10.352123593869347
_cell_length_c       14.068382300028034
_cell_angle_alpha    89.99983380658573
_cell_angle_beta     90.00019248847059
_cell_angle_gamma    103.69323042827104

_space_group_name_H-M_alt    "P 1"
_space_group_IT_number       1

loop_
  _space_group_symop_operation_xyz
  'x, y, z'

loop_
  _atom_site_type_symbol
  _atom_site_label
  _atom_site_symmetry_multiplicity
  _atom_site_fract_x
  _atom_site_fract_y
  _atom_site_fract_z
  _atom_site_occupancy
  Cd  Cd1       1.0  0.9671691620353258  0.6620018456915133  0.7499655238789843  1.0000
  Cd  Cd2       1.0  0.0328309406929321  0.3379984053610842  0.24996515144802342  1.0000
  Cd  Cd3       1.0  0.5117599929933689  0.8044073640095349  0.7748569691959659  1.0000
  Cd  Cd4       1.0  0.48823991866579775  0.1955918175339519  0.27485768164994084  1.0000
  Cd  Cd5       1.0  0.7412354027288826  0.23566658657384212  0.7665647094638643  1.0000
  Cd  Cd6       1.0  0.2587661895901974  0.7643336218056973  0.2665645234555498  1.0000
  H   H1        1.0  0.7300523806884269  0.4113020920381986  0.03118927284680951  1.0000
  H   H2        1.0  0.2699500410226391  0.5886968549397265  0.5311907396756723  1.0000
  H   H3        1.0  0.8623456786117316  0.5029871995734824  0.9349115306446693  1.0000
  H   H4        1.0  0.13765158802689104  0.49701346366009597  0.4349138411009578  1.0000
  H   H5        1.0  0.513137725680579  0.5006831599882133  0.9244011413513676  1.0000
  H   H6        1.0  0.4868606310482306  0.4993125790301178  0.4244026236731457  1.0000
  H   H7        1.0  0.4537439508172909  0.3221771357446883  0.9241269071771968  1.0000
  H   H8        1.0  0.5462575285192557  0.6778196133911082  0.42412882042459904  1.0000
  H   H9        1.0  0.3044465024738088  0.3316141945288536  0.7748196238824577  1.0000
  H   H10       1.0  0.6955534089801318  0.6683849871264371  0.2748211023303355  1.0000
  H   H11       1.0  0.392694586616784  0.4997222737703949  0.7385623304903747  1.0000
  H   H12       1.0  0.6073037260974204  0.500277010018941  0.23856401714878933  1.0000
  H   H13       1.0  0.595942112448398  0.42218255817271455  0.6131693502429627  1.0000
  H   H14       1.0  0.4040565721732818  0.5778161182256979  0.11316981200770473  1.0000
  H   H15       1.0  0.3423992541302354  0.3543792938282167  0.5993047827123661  1.0000
  H   H16       1.0  0.6576010802188249  0.6456204262573594  0.0993069556115387  1.0000
  H   H17       1.0  0.43594641839721493  0.0516029862995921  0.5763522987848617  1.0000
  H   H18       1.0  0.5640506643746974  0.9483957939271195  0.076352242375016  1.0000
  H   H19       1.0  0.4821755848325608  0.2000564987372542  0.5064962446531426  1.0000
  H   H20       1.0  0.517821110070102  0.7999424927888157  0.0064964264356533  1.0000
  H   H21       1.0  0.8304682157400334  0.24520615631665515  0.5448548496271144  1.0000
  H   H22       1.0  0.16952795328298004  0.7547947000774257  0.04485595272582541  1.0000
  H   H23       1.0  0.7470598854605014  0.0815277638817022  0.49701789656955253  1.0000
  H   H24       1.0  0.25293912343689584  0.9184727190330195  0.9970179183358213  1.0000
  H   H25       1.0  0.016454202727821603  0.0042004892283174  0.6025099371349614  1.0000
  H   H26       1.0  0.9835454105440108  0.995801202062957  0.1025090765984018  1.0000
  H   H27       1.0  0.0822797058326969  0.18118502920182072  0.6183630840609668  1.0000
  H   H28       1.0  0.9177189273201805  0.8188176008154783  0.11836319995136792  1.0000
  H   H29       1.0  0.19939091921111188  0.055987868141990284  0.75049364854128  1.0000
  H   H30       1.0  0.8006095157313168  0.944013375528165  0.2504940068756838  1.0000
  H   H31       1.0  0.9563587741715055  0.9745433550202167  0.7783671666938261  1.0000
  H   H32       1.0  0.0436418155361906  0.025457804338536498  0.2783674810410234  1.0000
  H   H33       1.0  0.9360278291547529  0.0783848952953221  0.9296811690972221  1.0000
  H   H34       1.0  0.0639770541190287  0.9216178098761743  0.4296810238123498  1.0000
  H   H35       1.0  0.1878491471244317  0.15691310870650452  0.9256416001973804  1.0000
  H   H36       1.0  0.8121550551624779  0.8430876202504438  0.4256421941049524  1.0000
  H   H37       1.0  0.10558033511473038  0.3820799163453401  0.9205241405888884  1.0000
  H   H38       1.0  0.8944241680354708  0.6179218223081835  0.42052393528179277  1.0000
  H   H39       1.0  0.0209267470169934  0.28926626649623444  0.026066671623382807  1.0000
  H   H40       1.0  0.9790763048075419  0.7107346844105322  0.5260669602599677  1.0000
  C   C1        1.0  0.7513139186010918  0.41338633207968906  0.9536208608012873  1.0000
  C   C2        1.0  0.24868904161442634  0.586614304709258  0.45362174832415303  1.0000
  C   C3        1.0  0.5633028783867076  0.4120608472527961  0.9041708080862849  1.0000
  C   C4        1.0  0.43669602457167384  0.5879369413917529  0.40417130414221714  1.0000
  C   C5        1.0  0.4275838949404615  0.4023981967750316  0.7432083432952652  1.0000
  C   C6        1.0  0.5724144435715741  0.5976010729604369  0.24321047288881203  1.0000
  C   C7        1.0  0.4679450466252675  0.3561797288978354  0.6448396190986686  1.0000
  C   C8        1.0  0.5320538138451311  0.64381885170355  0.1448408698945514  1.0000
  C   C9        1.0  0.5277386933187458  0.15241786830603837  0.5691766045480194  1.0000
  C   C10       1.0  0.472259747037576  0.8475809411607004  0.06917731721021171  1.0000
  C   C11       1.0  0.7360551539420753  0.14632529218680898  0.5577596986169767  1.0000
  C   C12       1.0  0.2639424841566366  0.8536755327102341  0.05776004127231721  1.0000
  C   C13       1.0  0.994629965206421  0.0870170235523986  0.6466934496465555  1.0000
  C   C14       1.0  0.005368825247501243  0.9129855207720822  0.1466932223908657  1.0000
  C   C15       1.0  0.0498990180905921  0.0651606570574685  0.7481734144704363  1.0000
  C   C16       1.0  0.9501017332475  0.9348415878476927  0.24817333777664174  1.0000
  C   C17       1.0  0.043434716593516505  0.16701245830309835  0.9055233032510586  1.0000
  C   C18       1.0  0.9565700325445832  0.8329903199414376  0.4055227445959276  1.0000
  C   C19       1.0  0.005583581893063198  0.2923896797761074  0.9485700192952322  1.0000
  C   C20       1.0  0.9944193502769636  0.7076109722911709  0.4485705043899629  1.0000
  Cl  Cl1       1.0  0.9730790868063577  0.4396815437269053  0.674121225486239  1.0000
  Cl  Cl2       1.0  0.026918538817142207  0.5603169407707969  0.17412036757838933  1.0000
  Cl  Cl3       1.0  0.7986612262936319  0.7583143269838502  0.8842138318927371  1.0000
  Cl  Cl4       1.0  0.2013375658562424  0.24168352202580223  0.38421466496562573  1.0000
  Cl  Cl5       1.0  0.23578496210730293  0.8192607498106882  0.6553497284808856  1.0000
  Cl  Cl6       1.0  0.7642132178523653  0.18073977989701012  0.15535023479564106  1.0000
  Cl  Cl7       1.0  0.24904717010207386  0.6435231203925086  0.8710456584213588  1.0000
  Cl  Cl8       1.0  0.7509546730578335  0.35647577773885786  0.37104505545118377  1.0000
  Cl  Cl9       1.0  0.6906395700730882  0.7180315503208518  0.6420622736257899  1.0000
  Cl  Cl10      1.0  0.3093578775487487  0.2819670311467278  0.1420624948623797  1.0000
  Cl  Cl11      1.0  0.523994282898883  0.027921405370108208  0.851739428227589  1.0000
  Cl  Cl12      1.0  0.4760105771988988  0.9720785604444514  0.3517405919350054  1.0000
  O   O1        1.0  0.811423133110047  0.29609742928647625  0.9246916276641955  1.0000
  O   O2        1.0  0.1885824613287426  0.7039033100791984  0.4246928722193744  1.0000
  O   O3        1.0  0.5960369332538846  0.4123923562045989  0.8025934141872285  1.0000
  O   O4        1.0  0.403962064265869  0.5876077281212633  0.3025945656693239  1.0000
  O   O5        1.0  0.49545241760027636  0.22263840541335614  0.6548174784603235  1.0000
  O   O6        1.0  0.5045451008457107  0.7773601374713835  0.15481839658922072  1.0000
  O   O7        1.0  0.7946373767091047  0.09131651124151571  0.6444485237765107  1.0000
  O   O8        1.0  0.20536279870771768  0.9086860474080253  0.1444493592418965  1.0000
  O   O9        1.0  0.03140291504975321  0.17929765477587273  0.8035769458649115  1.0000
  O   O10       1.0  0.9685998706151081  0.8207054242984171  0.30357643409315227  1.0000
