data_image0
_chemical_formula_structural       Zr6H19C52S10N4Cl5O32
_chemical_formula_sum              "Zr6 H19 C52 S10 N4 Cl5 O32"
_cell_length_a       16.446569395438814
_cell_length_b       16.474909494538608
_cell_length_c       16.52159303889783
_cell_angle_alpha    62.08259943386442
_cell_angle_beta     59.94358827369327
_cell_angle_gamma    60.23373958820302

_space_group_name_H-M_alt    "P 1"
_space_group_IT_number       1

loop_
  _space_group_symop_operation_xyz
  'x, y, z'

loop_
  _atom_site_type_symbol
  _atom_site_label
  _atom_site_symmetry_multiplicity
  _atom_site_fract_x
  _atom_site_fract_y
  _atom_site_fract_z
  _atom_site_occupancy
  Zr  Zr1       1.0  0.8882160281509213  0.9020687958821226  0.6003121186331127  1.0000
  Zr  Zr2       1.0  0.10763659945916974  0.10621321063866421  0.396642247398205  1.0000
  Zr  Zr3       1.0  0.10235910737019799  0.8982271601513785  0.6048128599868791  1.0000
  Zr  Zr4       1.0  0.8936527722428736  0.11019200512600238  0.39322078135213456  1.0000
  Zr  Zr5       1.0  0.10763920385904398  0.8942887840303301  0.3898727491240094  1.0000
  Zr  Zr6       1.0  0.888680844095262  0.11272165856422592  0.6089965924558528  1.0000
  H   H1        1.0  0.07896456537046953  0.7546328432347025  0.5779541402945368  1.0000
  H   H2        1.0  0.08746277057134927  0.08318857572395189  0.24974170932306092  1.0000
  H   H3        1.0  0.08219594432332403  0.0861547066596913  0.587514779732132  1.0000
  H   H4        1.0  0.7427772189073423  0.09288441493968966  0.5812579778605739  1.0000
  H   H5        1.0  0.12467324145098496  0.6118459607462297  0.3613770650211663  1.0000
  H   H6        1.0  0.6104088336353896  0.12601080243809545  0.903653104394735  1.0000
  H   H7        1.0  0.8605342417557864  0.11950705283072688  0.1252181705905713  1.0000
  H   H8        1.0  0.6208726390399661  0.3965613151347185  0.36559397052531034  1.0000
  H   H9        1.0  0.8660695344445628  0.6483795705388502  0.8281480005212387  1.0000
  H   H10       1.0  0.15553404691178227  0.3337515015047074  0.1416539474996341  1.0000
  H   H11       1.0  0.6193595145808499  0.8731603840095375  0.6109183277313546  1.0000
  H   H12       1.0  0.23692123403964155  0.49191860612455673  0.9178552550037723  1.0000
  H   H13       1.0  0.24920574925904754  0.4261143263108877  0.026484902676713763  1.0000
  H   H14       1.0  0.10248040929692344  0.7187920536749174  0.8370270055024991  1.0000
  H   H15       1.0  0.1397522221567653  0.6261193528284111  0.9369006015619805  1.0000
  H   H16       1.0  0.8519307217056492  0.4258881826433339  0.9785971956536343  1.0000
  H   H17       1.0  0.7915457204825315  0.5372189121632402  0.9217517938350356  1.0000
  H   H18       1.0  0.8435108848443491  0.3368164070562188  0.20941171865273125  1.0000
  H   H19       1.0  0.7982574394114154  0.4366543913821205  0.116208767976552  1.0000
  C   C1        1.0  0.9951801080362161  0.7391374310410439  0.4851070612874154  1.0000
  C   C2        1.0  0.279315988661544  0.9896901056561804  0.23450957542025455  1.0000
  C   C3        1.0  0.992750841557431  0.27617849509195486  0.5047031952332192  1.0000
  C   C4        1.0  0.7253338576562101  0.007913051459709632  0.7716724590858564  1.0000
  C   C5        1.0  0.9837971546156792  0.7433571481443125  0.7662909813909096  1.0000
  C   C6        1.0  0.7304932436397706  0.002960830297055698  0.4901176209791985  1.0000
  C   C7        1.0  0.004879316038461869  0.27147849622340203  0.23714319626645872  1.0000
  C   C8        1.0  0.2754336469025842  0.9967805430639418  0.49579996167616974  1.0000
  C   C9        1.0  0.2742246430301092  0.7347332278983388  0.4950587884761506  1.0000
  C   C10       1.0  0.9935709129985141  0.0007396351582687531  0.7757170780679914  1.0000
  C   C11       1.0  0.730387998409128  0.2814556577575046  0.49668944932647463  1.0000
  C   C12       1.0  0.997029666403996  0.9990210524987903  0.22968144140470756  1.0000
  C   C13       1.0  0.9213957100176273  0.42757888154324764  0.5628913552246643  1.0000
  C   C14       1.0  0.060655977144286034  0.5938920835726121  0.4226689463406431  1.0000
  C   C15       1.0  0.9892416409558608  0.3683622675450169  0.5014419128253566  1.0000
  C   C16       1.0  0.9931855870427172  0.6506683157295113  0.4856458389463755  1.0000
  C   C17       1.0  0.03438847559084471  0.5124841381128391  0.4503836156914574  1.0000
  C   C18       1.0  0.9471473660251847  0.5097220026647731  0.5338863281771677  1.0000
  C   C19       1.0  0.4231097305220216  0.9256642527844433  0.08828128615103738  1.0000
  C   C20       1.0  0.5897254837618321  0.06456793780540682  0.9221180365008835  1.0000
  C   C21       1.0  0.3696947544877957  0.9879672275750907  0.14669071503380596  1.0000
  C   C22       1.0  0.6401984423880194  0.002818141286468232  0.8642893114414464  1.0000
  C   C23       1.0  0.5106171565526054  0.036252051332248056  0.004404289377745764  1.0000
  C   C24       1.0  0.5033564466514306  0.9532654259270857  0.007022763115202108  1.0000
  C   C25       1.0  0.06378835286868409  0.9344300052005606  0.9128560829946153  1.0000
  C   C26       1.0  0.9248214372817712  0.060650180601570174  0.09738733631734679  1.0000
  C   C27       1.0  0.994409496295901  0.9976801224012352  0.8656884835838383  1.0000
  C   C28       1.0  0.9952530966772314  0.9971891185527253  0.14230335081843024  1.0000
  C   C29       1.0  0.949202508826744  0.037499322196609425  0.01388880965268405  1.0000
  C   C30       1.0  0.037991222899051734  0.9568965399301276  0.9973329402460396  1.0000
  C   C31       1.0  0.41709567302252276  0.5998662127579736  0.5599546058465562  1.0000
  C   C32       1.0  0.5964295930156778  0.42210431705429846  0.42671899509490185  1.0000
  C   C33       1.0  0.3663242991907438  0.6490564866846853  0.4942288973042893  1.0000
  C   C34       1.0  0.6442129726116617  0.3732466494868375  0.494194137756324  1.0000
  C   C35       1.0  0.5139181966940355  0.5054062999676034  0.4500068752573796  1.0000
  C   C36       1.0  0.5011272941197192  0.5179861959368495  0.5348527337424329  1.0000
  C   C37       1.0  0.04245252321655341  0.6109813357214405  0.9057861757222981  1.0000
  C   C38       1.0  0.9100284880622528  0.6140932321780709  0.8750617848419965  1.0000
  C   C39       1.0  0.8968207881929187  0.5336319789009067  0.9539557256180091  1.0000
  C   C40       1.0  0.9575639094986528  0.487110882426606  0.01345660375775269  1.0000
  C   C41       1.0  0.9396837753037418  0.40924345878212165  0.10361077276569111  1.0000
  C   C42       1.0  0.09879254099207913  0.3804381025049466  0.10754688474834503  1.0000
  C   C43       1.0  0.11279410255079364  0.45984553594875877  0.027421294637740255  1.0000
  C   C44       1.0  0.038197314562665875  0.519608678844115  0.9819670736631779  1.0000
  C   C45       1.0  0.9791281406309195  0.6561094584400635  0.8507887207969064  1.0000
  C   C46       1.0  0.012370144568073643  0.3554468105196946  0.1493154425197929  1.0000
  C   C47       1.0  0.42131556948273646  0.05910152931831905  0.42346762518135256  1.0000
  C   C48       1.0  0.5962630299212962  0.932056888099538  0.550854493320614  1.0000
  C   C49       1.0  0.3683738853941846  0.9950572471021673  0.48950538629006246  1.0000
  C   C50       1.0  0.6453676472116783  0.998699003865703  0.48643135187379744  1.0000
  C   C51       1.0  0.5148294721389418  0.9532340295931688  0.527542805878518  1.0000
  C   C52       1.0  0.5045937917451652  0.03538277617172279  0.44539854190082917  1.0000
  S   S1        1.0  0.08391187765379024  0.4139062285942641  0.4079695533640333  1.0000
  S   S2        1.0  0.8972802758729159  0.6066398651778399  0.5782702002172044  1.0000
  S   S3        1.0  0.4186061007699847  0.07955474599119582  0.10237744370505199  1.0000
  S   S4        1.0  0.5932614069815189  0.9098173211149784  0.9091514727106402  1.0000
  S   S5        1.0  0.8980039222163966  0.08475663804048145  0.925191676815551  1.0000
  S   S6        1.0  0.09104241412600081  0.9090425654010517  0.08426936233949778  1.0000
  S   S7        1.0  0.4226533191992204  0.5951303871644669  0.4013359423508335  1.0000
  S   S8        1.0  0.5903592014513563  0.428256482526912  0.5856129072364596  1.0000
  S   S9        1.0  0.42180748515409056  0.905343132219528  0.5771078227282445  1.0000
  S   S10       1.0  0.5944682265231193  0.08652699282350078  0.39667122560646106  1.0000
  N   N1        1.0  0.20107105239819822  0.4808956351330662  0.9914732500463187  1.0000
  N   N2        1.0  0.10421067873776473  0.6533725860329939  0.889376848994381  1.0000
  N   N3        1.0  0.8230798181764668  0.49813498209930895  0.9744549809622925  1.0000
  N   N4        1.0  0.853635790554975  0.3899020546149217  0.14435302532587707  1.0000
  Cl  Cl1       1.0  0.8186985139638737  0.40784272626008555  0.6622461775278553  1.0000
  Cl  Cl2       1.0  0.39832849139590804  0.8278000210664305  0.107132670237533  1.0000
  Cl  Cl3       1.0  0.17035047010478602  0.8410730919291253  0.8768179672239926  1.0000
  Cl  Cl4       1.0  0.3861131800937939  0.6292825595720541  0.6607025028764681  1.0000
  Cl  Cl5       1.0  0.39373526918597423  0.15648610343247069  0.32726464081762435  1.0000
  O   O1        1.0  0.9242408750310175  0.7769510843084148  0.553279407308942  1.0000
  O   O2        1.0  0.24431111843385614  0.05936755786418497  0.27032085799763916  1.0000
  O   O3        1.0  0.06550679112503839  0.23813737119603223  0.43730450899934686  1.0000
  O   O4        1.0  0.7580243566927005  0.9421341243394823  0.7316636191558034  1.0000
  O   O5        1.0  0.052527817022380005  0.7789874031177532  0.7343339003710624  1.0000
  O   O6        1.0  0.7643512704514633  0.07181320018063535  0.42506113785150035  1.0000
  O   O7        1.0  0.9326330668674669  0.2390146770558843  0.27302804550983234  1.0000
  O   O8        1.0  0.2394464859836699  0.9308234344834575  0.5650381510142922  1.0000
  O   O9        1.0  0.24179357242983449  0.7652598383134191  0.426168357691033  1.0000
  O   O10       1.0  0.9239856506958973  0.07053634740842087  0.7438476075588412  1.0000
  O   O11       1.0  0.7617993558651008  0.2466496215011915  0.5672397852042578  1.0000
  O   O12       1.0  0.06679725818100475  0.9305603629186265  0.26192764949587394  1.0000
  O   O13       1.0  0.06352769189739868  0.9336644408015855  0.7360894631059978  1.0000
  O   O14       1.0  0.765240452204587  0.2434343639420148  0.428742615348689  1.0000
  O   O15       1.0  0.9294008977371392  0.06991746326829688  0.26479252049393415  1.0000
  O   O16       1.0  0.2332823937907518  0.7708658042762406  0.5656805892338922  1.0000
  O   O17       1.0  0.9191148892717389  0.7798115803443081  0.7252075856269685  1.0000
  O   O18       1.0  0.23718841078277106  0.06585590905397244  0.4319629901087935  1.0000
  O   O19       1.0  0.07341698562699146  0.23138614062002455  0.27429381779360545  1.0000
  O   O20       1.0  0.7622287886861232  0.9378827971232865  0.5596765027281877  1.0000
  O   O21       1.0  0.758615336903567  0.07723354244809146  0.7383900181702289  1.0000
  O   O22       1.0  0.06739795441010472  0.7696470761725108  0.4190080809103023  1.0000
  O   O23       1.0  0.2418932753747426  0.9237522098436558  0.2669494804313289  1.0000
  O   O24       1.0  0.924872142398243  0.2409385408286794  0.5739572222634378  1.0000
  O   O25       1.0  0.8152504699082143  0.0682799447749431  0.5579685576643528  1.0000
  O   O26       1.0  0.057376038974829985  0.06284100493476064  0.5632001010337933  1.0000
  O   O27       1.0  0.062438087157637795  0.059215161632778304  0.3205430153119906  1.0000
  O   O28       1.0  0.05686731387739723  0.8254240947866976  0.5537903811636369  1.0000
  O   O29       1.0  0.13236276919851517  0.9566955746545389  0.45528711334977606  1.0000
  O   O30       1.0  0.9546174049196522  0.9605222368740626  0.45119444405369774  1.0000
  O   O31       1.0  0.9544429728871151  0.13509124256744814  0.4591757974826223  1.0000
  O   O32       1.0  0.9502343011704325  0.9637282646649583  0.6299603341564791  1.0000
