data_image0
_chemical_formula_structural       Zn2H28Pd2C20N16
_chemical_formula_sum              "Zn2 H28 Pd2 C20 N16"
_cell_length_a       8.529714798843663
_cell_length_b       8.725595183717513
_cell_length_c       11.24591422567194
_cell_angle_alpha    75.68064249470585
_cell_angle_beta     75.33745518444034
_cell_angle_gamma    67.8429971812797

_space_group_name_H-M_alt    "P 1"
_space_group_IT_number       1

loop_
  _space_group_symop_operation_xyz
  'x, y, z'

loop_
  _atom_site_type_symbol
  _atom_site_label
  _atom_site_symmetry_multiplicity
  _atom_site_fract_x
  _atom_site_fract_y
  _atom_site_fract_z
  _atom_site_occupancy
  Zn  Zn1       1.0  0.666224231905119  0.8509109519080696  0.2310671828044517  1.0000
  Zn  Zn2       1.0  0.3337748893673266  0.14908569393307397  0.7689365599622915  1.0000
  H   H1        1.0  0.6250745461892394  0.6225699433764901  0.4359858302531092  1.0000
  H   H2        1.0  0.37492842936710247  0.37743303774924897  0.5640151800811777  1.0000
  H   H3        1.0  0.4317973867387438  0.7456173244299364  0.4108366765209651  1.0000
  H   H4        1.0  0.5682056712985215  0.25438185791499285  0.5891667865334468  1.0000
  H   H5        1.0  0.5443928589848498  0.8133740683853572  0.4710799209921176  1.0000
  H   H6        1.0  0.45561134066882414  0.18662893348417242  0.5289199757203418  1.0000
  H   H7        1.0  0.2784133360336938  0.008404084759519  0.20107900222309633  1.0000
  H   H8        1.0  0.7215835815576385  0.9915988386444782  0.79892399915645  1.0000
  H   H9        1.0  0.686881950889358  0.015773272216137002  0.9985913556372379  1.0000
  H   H10       1.0  0.31311223840408087  0.9842271239285552  0.001411706098778545  1.0000
  H   H11       1.0  0.8822168721926432  0.878882334572303  0.01396027496910081  1.0000
  H   H12       1.0  0.11777488453654432  0.12111803158411048  0.9860441197445976  1.0000
  H   H13       1.0  0.8102917866312112  0.0584536168578325  0.06707096562942634  1.0000
  H   H14       1.0  0.18970036394296144  0.9415454592881075  0.9329362601596356  1.0000
  H   H15       1.0  0.03210920652853835  0.2750071453505144  0.20487527245329312  1.0000
  H   H16       1.0  0.9678933595524057  0.7249971142864026  0.7951238010716108  1.0000
  H   H17       1.0  0.5879710147726627  0.20737961216086379  0.2992213803228265  1.0000
  H   H18       1.0  0.41203091727860663  0.7926157621587747  0.7007847548075572  1.0000
  H   H19       1.0  0.3488667307793136  0.4791827482350826  0.3197710883251259  1.0000
  H   H20       1.0  0.6511327687077113  0.5208125960962777  0.6802363797829468  1.0000
  H   H21       1.0  0.9775212369117482  0.5765072090863013  0.37394777344854896  1.0000
  H   H22       1.0  0.022478865344119497  0.4234969975637383  0.6260544215859836  1.0000
  H   H23       1.0  0.07900994535430783  0.6693331507034302  0.23456793445379268  1.0000
  H   H24       1.0  0.9209940566770457  0.33066356661356616  0.7654322480916063  1.0000
  H   H25       1.0  0.8197207352221269  0.5120298345557615  0.2572351880758176  1.0000
  H   H26       1.0  0.1802783035693949  0.4879706100661849  0.7427661019708008  1.0000
  H   H27       1.0  0.9187195480759912  0.5908837659763293  0.12372860440311229  1.0000
  H   H28       1.0  0.08128102617692429  0.409119208159737  0.8762719503769103  1.0000
  Pd  Pd1       1.0  0.4999943187011625  0.49999268928061713  1.0235716312294389e-08  1.0000
  Pd  Pd2       1.0  9.897996996204063e-06  1.0189149421102577e-05  0.4999913027376051  1.0000
  C   C1        1.0  0.8572812400438041  0.24083113643349918  0.48108009619020436  1.0000
  C   C2        1.0  0.14272636882867576  0.7591833125105367  0.518909995762378  1.0000
  C   C3        1.0  0.2895721205868965  0.11709550101976161  0.22523837260403912  1.0000
  C   C4        1.0  0.7104249420070093  0.8829036696006369  0.7747635044317317  1.0000
  C   C5        1.0  0.8757688185470304  0.9588732165764426  0.39177201655201777  1.0000
  C   C6        1.0  0.12424458814648888  0.0411349595395833  0.6082199472521379  1.0000
  C   C7        1.0  0.7409309826368684  0.3721558387165871  0.023743749515553202  1.0000
  C   C8        1.0  0.25906315403683067  0.627834520091973  0.9762584737096344  1.0000
  C   C9        1.0  0.15085782546719878  0.26651822966152844  0.22977031535805983  1.0000
  C   C10       1.0  0.8491413327945736  0.7334884420164373  0.7702351601854855  1.0000
  C   C11       1.0  0.4611124524401474  0.22657428494113677  0.2818697102516196  1.0000
  C   C12       1.0  0.5388867513132212  0.773418562119197  0.7181364852352414  1.0000
  C   C13       1.0  0.5084008505281972  0.672094688621165  0.08230304002794496  1.0000
  C   C14       1.0  0.4915876333270291  0.32789819023179934  0.917696187001894  1.0000
  C   C15       1.0  0.32795506033289723  0.37847398260249315  0.2916591306620759  1.0000
  C   C16       1.0  0.6720425980571676  0.6215263262826412  0.7083522156661031  1.0000
  C   C17       1.0  0.16812810749552654  0.4016413309916516  0.2644677891653797  1.0000
  C   C18       1.0  0.8318681561068644  0.5983565518730884  0.7355362440356356  1.0000
  C   C19       1.0  0.025174106996239152  0.5676601630424473  0.27453149187824255  1.0000
  C   C20       1.0  0.9748285103048032  0.4323402748150613  0.7254718228987326  1.0000
  N   N1        1.0  0.5531666282166301  0.7452543605302252  0.4063403493577765  1.0000
  N   N2        1.0  0.44683722881215016  0.25474610957036947  0.5936609575313908  1.0000
  N   N3        1.0  0.8036953897692244  0.9320162443872135  0.3276677897215093  1.0000
  N   N4        1.0  0.19630651102121996  0.06797910693381938  0.6723401339408213  1.0000
  N   N5        1.0  0.8837661103101411  0.297705202068947  0.037601427995276944  1.0000
  N   N6        1.0  0.11622300060207641  0.7022888380473518  0.9624054797950233  1.0000
  N   N7        1.0  0.44345681584303526  0.09594296410046607  0.24953547058909453  1.0000
  N   N8        1.0  0.5565404487020444  0.9040586347951418  0.750473044663728  1.0000
  N   N9        1.0  0.5198218251506718  0.7696722694832373  0.1322316882218287  1.0000
  N   N10       1.0  0.480175423608543  0.2303131800132476  0.8677628603635125  1.0000
  N   N11       1.0  0.7717075158399779  0.38319026061088124  0.46973715081301015  1.0000
  N   N12       1.0  0.22829983288853836  0.6168178577834027  0.5302568040363977  1.0000
  N   N13       1.0  0.7747112193867877  0.9632280943663005  0.05702195248301216  1.0000
  N   N14       1.0  0.22527976961170282  0.0367710070330602  0.9429828098639842  1.0000
  N   N15       1.0  0.8773735568246224  0.6006544543702645  0.21621717111658967  1.0000
  N   N16       1.0  0.1226266748034065  0.39934598799687376  0.7837847938401408  1.0000
