data_image0
_chemical_formula_structural       Zn4H34C62N6O16
_chemical_formula_sum              "Zn4 H34 C62 N6 O16"
_cell_length_a       8.519566337934151
_cell_length_b       9.717264256644112
_cell_length_c       16.572
_cell_angle_alpha    105.93967585778414
_cell_angle_beta     101.3371860875978
_cell_angle_gamma    90.40292032849091

_space_group_name_H-M_alt    "P 1"
_space_group_IT_number       1

loop_
  _space_group_symop_operation_xyz
  'x, y, z'

loop_
  _atom_site_type_symbol
  _atom_site_label
  _atom_site_symmetry_multiplicity
  _atom_site_fract_x
  _atom_site_fract_y
  _atom_site_fract_z
  _atom_site_occupancy
  Zn  Zn1       1.0  0.12785164021301654  0.4547386730784381  0.1575792643009848  1.0000
  Zn  Zn2       1.0  0.8721494229394224  0.545261485436221  0.8424204462697702  1.0000
  Zn  Zn3       1.0  0.3750179188602019  0.4813794325088879  0.8703252969443369  1.0000
  Zn  Zn4       1.0  0.624982024807089  0.5186217985001207  0.12967447319389439  1.0000
  H   H1        1.0  0.1338256042489263  0.7063404830053912  0.29602429392924984  1.0000
  H   H2        1.0  0.8661753812607813  0.2936586030149329  0.7039752360900023  1.0000
  H   H3        1.0  0.5255630118111725  0.6999913165066687  0.5034475143761555  1.0000
  H   H4        1.0  0.4744366989279243  0.3000066970193132  0.4965517141075466  1.0000
  H   H5        1.0  0.5802538385040563  0.4556535107513113  0.4135322957565463  1.0000
  H   H6        1.0  0.4197459498777648  0.5443455752690127  0.5864677167061387  1.0000
  H   H7        1.0  0.40346607898268155  0.352772346102185  0.26780377919491366  1.0000
  H   H8        1.0  0.5965348288843018  0.6472256674237968  0.7321955702728217  1.0000
  H   H9        1.0  0.14921362641513977  0.9169966039816302  0.3425346612033096  1.0000
  H   H10       1.0  0.8507862396094197  0.083003554533029  0.6574655318108853  1.0000
  H   H11       1.0  0.1953308230072892  0.23933140217156532  0.5828397687788467  1.0000
  H   H12       1.0  0.8046677682466453  0.7606676838487587  0.4171607261272711  1.0000
  H   H13       1.0  0.2796239695085205  0.2952040673603165  0.7038599272907932  1.0000
  H   H14       1.0  0.7203746993881525  0.7047960911543498  0.2961395413119021  1.0000
  H   H15       1.0  0.5466874306341438  0.914678943710733  0.6761180194323159  1.0000
  H   H16       1.0  0.4533086887212932  0.0853190698152488  0.32388205295422523  1.0000
  H   H17       1.0  0.6794694875831341  0.0119894142380446  0.8296403059164844  1.0000
  H   H18       1.0  0.3205279841856523  0.9880107442766216  0.17035904170217717  1.0000
  H   H19       1.0  0.6100645875659367  0.2570854734924808  0.9129854291042533  1.0000
  H   H20       1.0  0.3899328842028496  0.7429146850221784  0.08701391851440828  1.0000
  H   H21       1.0  0.9029104615276964  0.0066902196991592  0.3218142764232397  1.0000
  H   H22       1.0  0.0970881297262451  0.993308866321165  0.6781862184828782  1.0000
  H   H23       1.0  0.7509918205714854  0.161888730796619  0.24149147209492128  1.0000
  H   H24       1.0  0.24900804545307412  0.8381114277180401  0.7585087209192733  1.0000
  H   H25       1.0  0.044491362673397795  0.530200447405555  0.4080599571669908  1.0000
  H   H26       1.0  0.9555096228363169  0.46979863861476184  0.5919401762797206  1.0000
  H   H27       1.0  0.19052165795621076  0.378594792350448  0.4925932444811778  1.0000
  H   H28       1.0  0.80948172180927  0.621404293669876  0.5074065275061344  1.0000
  H   H29       1.0  0.9208385787314697  0.0924457947111961  0.8372326768028985  1.0000
  H   H30       1.0  0.0791612872930898  0.9075543638034631  0.16276811963876978  1.0000
  H   H31       1.0  0.24593085881978988  0.8552681196910257  0.9715307320201418  1.0000
  H   H32       1.0  0.7540690848475009  0.1447331113179828  0.028470848400502284  1.0000
  H   H33       1.0  0.4177196312376736  0.0811899666024019  0.0490701154828983  1.0000
  H   H34       1.0  0.5822815872002352  0.9188123369009488  0.9509305596183494  1.0000
  C   C1        1.0  0.23637201292029184  0.65822624187944  0.3252227380343697  1.0000
  C   C2        1.0  0.763628972589423  0.341772844140884  0.6747761885574092  1.0000
  C   C3        1.0  0.32773976912373126  0.7253708225920974  0.4068040136297526  1.0000
  C   C4        1.0  0.6722612163859764  0.2746282634282267  0.5931955163894926  1.0000
  C   C5        1.0  0.45295217066684046  0.6503959606957963  0.4398101196126659  1.0000
  C   C6        1.0  0.5470464205871011  0.3496031253245278  0.5601897718659854  1.0000
  C   C7        1.0  0.4826032657843271  0.515949142602345  0.3903564715196381  1.0000
  C   C8        1.0  0.517397797368119  0.48405101591231414  0.6096432390511238  1.0000
  C   C9        1.0  0.3863837059783606  0.45742205391962193  0.3092429059983886  1.0000
  C   C10       1.0  0.6136172795313541  0.5425770321007022  0.6907566240208567  1.0000
  C   C11       1.0  0.29129243092913265  0.8699687996231161  0.4545914234403482  1.0000
  C   C12       1.0  0.7087072021672327  0.1300281414085305  0.5454082279193102  1.0000
  C   C13       1.0  0.1929234542000486  0.9536448081079527  0.41161833927034763  1.0000
  C   C14       1.0  0.8070773760242034  0.0463521329236869  0.5883814330733443  1.0000
  C   C15       1.0  0.15675327598112432  0.0892808639109077  0.4571177548240186  1.0000
  C   C16       1.0  0.8432476318858518  0.9107171496150742  0.5428815946437168  1.0000
  C   C17       1.0  0.2236257348766628  0.1355118049740582  0.544988258136179  1.0000
  C   C18       1.0  0.7763729340200101  0.8644883535406009  0.45501181389398226  1.0000
  C   C19       1.0  0.3260314776127231  0.0480166441409224  0.5831127397586611  1.0000
  C   C20       1.0  0.6739635222575587  0.9519824418794016  0.4168873921953562  1.0000
  C   C21       1.0  0.37115642131681176  0.22957277616280436  0.7269274131330263  1.0000
  C   C22       1.0  0.6288409728092361  0.7704263098575197  0.2730717539341256  1.0000
  C   C23       1.0  0.40562382108681305  0.0982383366469364  0.6750873328914011  1.0000
  C   C24       1.0  0.5943747701671285  0.9017607493733806  0.32491316201471687  1.0000
  C   C25       1.0  0.5178648177645543  0.0185434271558975  0.713798216478871  1.0000
  C   C26       1.0  0.48213137923360705  0.9814556588644264  0.28620324331411945  1.0000
  C   C27       1.0  0.5917659855747033  0.0739570647666952  0.799802720367502  1.0000
  C   C28       1.0  0.40823268332196966  0.9260430937479711  0.2001979550901254  1.0000
  C   C29       1.0  0.5542711042130151  0.2080703371200912  0.8460384792894116  1.0000
  C   C30       1.0  0.4457276423263892  0.7919308938889102  0.15396177329225938  1.0000
  C   C31       1.0  0.0588668881013277  0.1811442941949366  0.4123812886596951  1.0000
  C   C32       1.0  0.9411318584380765  0.8188569368140648  0.587618963921983  1.0000
  C   C33       1.0  0.9337201071082218  0.1217538475677102  0.3415487264260832  1.0000
  C   C34       1.0  0.06627975891633749  0.8782463109469559  0.6584514665881116  1.0000
  C   C35       1.0  0.8478245534852746  0.2080832070521836  0.2964981144872993  1.0000
  C   C36       1.0  0.1521765873099028  0.7919180239568249  0.7035023800624387  1.0000
  C   C37       1.0  0.8898951998771665  0.3553870873055445  0.31931224107427164  1.0000
  C   C38       1.0  0.1101071380458976  0.644614143703464  0.6806865641770941  1.0000
  C   C39       1.0  0.0126207083200214  0.4156280219451816  0.3908245326186304  1.0000
  C   C40       1.0  0.987380354832425  0.5843721365694776  0.6091751779521246  1.0000
  C   C41       1.0  0.0943115017700364  0.3301523679561456  0.4376556224011025  1.0000
  C   C42       1.0  0.9056895613824096  0.6698477905585136  0.5623440881696595  1.0000
  C   C43       1.0  0.8159019275015567  0.44853536581009484  0.2654703497618484  1.0000
  C   C44       1.0  0.1840992132936208  0.5514658651989066  0.7345307482153559  1.0000
  C   C45       1.0  0.3672294150465092  0.344592431763374  0.040451736436580205  1.0000
  C   C46       1.0  0.6327705286207816  0.6554087992456274  0.9595480337016581  1.0000
  C   C47       1.0  0.2652187825758716  0.2130338409302368  0.9862714856200937  1.0000
  C   C48       1.0  0.7347835553471925  0.7869673900787646  0.013728526486211524  1.0000
  C   C49       1.0  0.1254846179493114  0.2162995861985877  0.9252938416847556  1.0000
  C   C50       1.0  0.874516522845866  0.7837016448104208  0.07470665286498246  1.0000
  C   C51       1.0  0.0824058538667103  0.352704778958703  0.9038796099382933  1.0000
  C   C52       1.0  0.91759528692846  0.6472964520503055  0.09612088461145157  1.0000
  C   C53       1.0  0.0295157588789721  0.0896669618736681  0.8837508228777364  1.0000
  C   C54       1.0  0.9704841847883117  0.9103342691353403  0.11625015411543416  1.0000
  C   C55       1.0  0.0706881064135985  0.9603886525241591  0.9011661995724436  1.0000
  C   C56       1.0  0.9293118372536924  0.0396125784848422  0.09883538084820026  1.0000
  C   C57       1.0  0.2132181208231643  0.9571636620407702  0.9595588351833654  1.0000
  C   C58       1.0  0.7867818228441266  0.0428375689682312  0.04044214180981239  1.0000
  C   C59       1.0  0.3091521623001725  0.0826625013325923  0.0019062869590058904  1.0000
  C   C60       1.0  0.6908477813671183  0.9173387296764091  0.9980946900341648  1.0000
  C   C61       1.0  0.9603800067848169  0.8273500195004431  0.8603272334897554  1.0000
  C   C62       1.0  0.0396199368824668  0.1726512115085583  0.1396737435034225  1.0000
  N   N1        1.0  0.2647882034231586  0.5284168893164747  0.2781060044913772  1.0000
  N   N2        1.0  0.7352139792144428  0.4715821967038494  0.7218936465119014  1.0000
  N   N3        1.0  0.3586100667450722  0.9169086594456671  0.5386094892411606  1.0000
  N   N4        1.0  0.6413886021516008  0.0830914990689919  0.4613905827890008  1.0000
  N   N5        1.0  0.442989221809853  0.283667245734172  0.8099712341908757  1.0000
  N   N6        1.0  0.5570094470868199  0.7163329127804872  0.19002883783928579  1.0000
  O   O1        1.0  0.6820836277390043  0.4011461308586561  0.21202587895909633  1.0000
  O   O2        1.0  0.3179175906989045  0.5988561726446875  0.7879747961421585  1.0000
  O   O3        1.0  0.8881894826305796  0.5670856727812392  0.2741802818575394  1.0000
  O   O4        1.0  0.11181397477763971  0.4329144857334271  0.7258202741087558  1.0000
  O   O5        1.0  0.32040571875664636  0.4320296779021007  0.10210665070963637  1.0000
  O   O6        1.0  0.6795943025533759  0.567972625601243  0.8978932999801117  1.0000
  O   O7        1.0  0.508818695034549  0.3601553971456326  0.02815960815871681  1.0000
  O   O8        1.0  0.49118124863273493  0.6398458338633759  0.9718395585520481  1.0000
  O   O9        1.0  0.19055869004704817  0.45439547488931703  0.9240043054091486  1.0000
  O   O10       1.0  0.8094424507481293  0.5456057561196843  0.07599618914058943  1.0000
  O   O11       1.0  0.9376032269998689  0.3613909106264614  0.8672143133251994  1.0000
  O   O12       1.0  0.06239791379530861  0.63861032038254  0.1327855777970655  1.0000
  O   O13       1.0  0.8292536029523276  0.8301749695946441  0.8115533037926923  1.0000
  O   O14       1.0  0.1707475378428498  0.1698262614143644  0.18844779418451904  1.0000
  O   O15       1.0  0.014123680497831997  0.7149901498655566  0.8824234009614074  1.0000
  O   O16       1.0  0.9858774602973455  0.2850110811434448  0.11757709358833777  1.0000
