data_image0
_chemical_formula_structural       Zn4H64C108N8O24
_chemical_formula_sum              "Zn4 H64 C108 N8 O24"
_cell_length_a       12.71688162751282
_cell_length_b       14.642025164304137
_cell_length_c       14.641997363641972
_cell_angle_alpha    77.21081034667161
_cell_angle_beta     86.54985706253244
_cell_angle_gamma    86.55000892243531

_space_group_name_H-M_alt    "P 1"
_space_group_IT_number       1

loop_
  _space_group_symop_operation_xyz
  'x, y, z'

loop_
  _atom_site_type_symbol
  _atom_site_label
  _atom_site_symmetry_multiplicity
  _atom_site_fract_x
  _atom_site_fract_y
  _atom_site_fract_z
  _atom_site_occupancy
  Zn  Zn1       1.0  0.8387789382771088  0.9391499139129281  0.5424860539990561  1.0000
  Zn  Zn2       1.0  0.661219739466702  0.4575145736911067  0.06085091264433372  1.0000
  Zn  Zn3       1.0  0.16121627657754797  0.0608517925051757  0.4575140466390692  1.0000
  Zn  Zn4       1.0  0.3387803132448325  0.5424850238871172  0.9391493971604347  1.0000
  H   H1        1.0  0.8882066894316979  0.9137942442816821  0.8269834320643736  1.0000
  H   H2        1.0  0.6117943223056415  0.17301619146751077  0.08620615770854562  1.0000
  H   H3        1.0  0.1117908888006909  0.08620746282951328  0.173015179040398  1.0000
  H   H4        1.0  0.3882049424551894  0.826983410396245  0.9137928263759605  1.0000
  H   H5        1.0  0.8580720022738575  0.8613068152409156  0.23064225867611296  1.0000
  H   H6        1.0  0.6419264846781019  0.7693563425563497  0.13869442127516862  1.0000
  H   H7        1.0  0.14192643746294206  0.13869349544620488  0.7693538813858395  1.0000
  H   H8        1.0  0.3580730019297818  0.23063904901756865  0.8613068392554267  1.0000
  H   H9        1.0  0.8553838929163148  0.2064735792947374  0.08940035583886187  1.0000
  H   H10       1.0  0.6446144035734208  0.910600613093372  0.7935278526865019  1.0000
  H   H11       1.0  0.14461615991380233  0.7935260148960663  0.9106013206394435  1.0000
  H   H12       1.0  0.35538242401878517  0.08940038699068958  0.20647368434737245  1.0000
  H   H13       1.0  0.8457815572641253  0.14649326120783712  0.26372029440673816  1.0000
  H   H14       1.0  0.6542123200686518  0.7362809166471603  0.8535059654969928  1.0000
  H   H15       1.0  0.15421219273125786  0.853506345248995  0.7362796596874331  1.0000
  H   H16       1.0  0.345781355780062  0.2637200988853152  0.14649095199258969  1.0000
  H   H17       1.0  0.8745334364657182  0.23049357861543027  0.9066668613127644  1.0000
  H   H18       1.0  0.6254695267014867  0.09333181720801059  0.7695075639196174  1.0000
  H   H19       1.0  0.1254696196366822  0.7695088233593876  0.09333131149035982  1.0000
  H   H20       1.0  0.37453607790812526  0.9066670695456123  0.2304939775145556  1.0000
  H   H21       1.0  0.8858204574681279  0.2140214959800204  0.7392008014537976  1.0000
  H   H22       1.0  0.6141788960992826  0.26079886121164003  0.7859788881932062  1.0000
  H   H23       1.0  0.11417787170092451  0.7859809096897475  0.26079830040571755  1.0000
  H   H24       1.0  0.3858235200492786  0.7392007353659623  0.21402061541498799  1.0000
  H   H25       1.0  0.5277069740352757  0.2048806511410675  0.5526669117186529  1.0000
  H   H26       1.0  0.9722910340483324  0.44733484035183574  0.7951199213256642  1.0000
  H   H27       1.0  0.4722875271339432  0.7951196470995043  0.4473362664773217  1.0000
  H   H28       1.0  0.027708834008073793  0.5526682595909875  0.20488099700884987  1.0000
  H   H29       1.0  0.860530915038133  0.7211115934712351  0.5898291662765585  1.0000
  H   H30       1.0  0.6394697755009274  0.4101707270903318  0.27889168140427495  1.0000
  H   H31       1.0  0.13946891588564364  0.27889221270311987  0.4101695504188995  1.0000
  H   H32       1.0  0.3605326407662233  0.5898288660998502  0.7211091888774561  1.0000
  H   H33       1.0  0.7090489393684649  0.14513037969024373  0.5070150225247545  1.0000
  H   H34       1.0  0.7909496054811739  0.4929858620825555  0.8548704846614965  1.0000
  H   H35       1.0  0.29094710062882  0.8548706145170826  0.492989288809447  1.0000
  H   H36       1.0  0.2090496595761309  0.5070137313126535  0.14513191610684834  1.0000
  H   H37       1.0  0.7448559679649875  0.5883897788567648  0.666771027190748  1.0000
  H   H38       1.0  0.7551456675725773  0.3332287993068803  0.41161276625781074  1.0000
  H   H39       1.0  0.255147088374592  0.4116126163432057  0.3332298789594431  1.0000
  H   H40       1.0  0.2448582505085923  0.6667721926941681  0.5883884021966281  1.0000
  H   H41       1.0  0.5609387667806444  0.6268049981609778  0.7236348989430608  1.0000
  H   H42       1.0  0.939062477015618  0.27636465149399914  0.37319459600448807  1.0000
  H   H43       1.0  0.4390629354452926  0.37319319701393266  0.2763649488759227  1.0000
  H   H44       1.0  0.06094069001030528  0.7236356453358964  0.6268047150216773  1.0000
  H   H45       1.0  0.3969829801472143  0.0894735453407236  0.6368574963005142  1.0000
  H   H46       1.0  0.1030175722833917  0.36314578054725644  0.9105247605311744  1.0000
  H   H47       1.0  0.6030147464378074  0.9105253419254636  0.36314787135019333  1.0000
  H   H48       1.0  0.8969838712000494  0.6368573243741763  0.08947334254973069  1.0000
  H   H49       1.0  0.3595406566422028  0.9201069175392362  0.7083864651775897  1.0000
  H   H50       1.0  0.14045998346629318  0.2916149058177736  0.07989149856629038  1.0000
  H   H51       1.0  0.6404595441254841  0.07988986866253359  0.291617184489283  1.0000
  H   H52       1.0  0.859542432682268  0.7083846907598286  0.9201080050419033  1.0000
  H   H53       1.0  0.41848954292320417  0.7519630529136517  0.7387307785890441  1.0000
  H   H54       1.0  0.0815111680999081  0.2612692014427224  0.24803526058239098  1.0000
  H   H55       1.0  0.5815098696565996  0.24803374434849693  0.26126881201049906  1.0000
  H   H56       1.0  0.9184920727762034  0.7387296947800763  0.7519636703645247  1.0000
  H   H57       1.0  0.0287306701478371  0.8660501422596666  0.48496831951410974  1.0000
  H   H58       1.0  0.47126646507457787  0.5150312841868824  0.13394983196180021  1.0000
  H   H59       1.0  0.9712661202524444  0.1339515657496335  0.5150303325439366  1.0000
  H   H60       1.0  0.5287312240813407  0.4849683177793905  0.8660499173660198  1.0000
  H   H61       1.0  0.033269660979691196  0.8997348079155782  0.5787775766660983  1.0000
  H   H62       1.0  0.4667282472835126  0.4212216128246382  0.1002660424524109  1.0000
  H   H63       1.0  0.9667270555703951  0.10026830070081869  0.4212214554711976  1.0000
  H   H64       1.0  0.5332702297045059  0.578777988243523  0.8997336659221346  1.0000
  C   C1        1.0  0.8742820273513559  0.08018821959618799  0.960217206761193  1.0000
  C   C2        1.0  0.6257216612071231  0.03978073859473598  0.9198147699675089  1.0000
  C   C3        1.0  0.12572177962840664  0.9198148826309165  0.03978077345990268  1.0000
  C   C4        1.0  0.37428082896951037  0.9602174522946425  0.08018640357173719  1.0000
  C   C5        1.0  0.8793692816801553  0.9169283185108411  0.025571886022483198  1.0000
  C   C6        1.0  0.6206315681728966  0.9744273160993658  0.083071901842608  1.0000
  C   C7        1.0  0.1206300199168311  0.08307058558993669  0.974425883017254  1.0000
  C   C8        1.0  0.37936769682512045  0.025572278989550095  0.916929815588972  1.0000
  C   C9        1.0  0.8661471626418373  0.06659305191377739  0.0629126547371399  1.0000
  C   C10       1.0  0.6338522157496627  0.9370900374212423  0.9334064523444706  1.0000
  C   C11       1.0  0.1338537519891787  0.9334051373843975  0.9370899673821782  1.0000
  C   C12       1.0  0.36614768920218665  0.062912363064882  0.06659393428203228  1.0000
  C   C13       1.0  0.880325480482149  0.9912069052278479  0.9371337172234818  1.0000
  C   C14       1.0  0.6196770381443244  0.0628649710214049  0.0087948575055918  1.0000
  C   C15       1.0  0.11967832649761329  0.008796196999263399  0.06286426299761418  1.0000
  C   C16       1.0  0.38032308829880884  0.937133229337142  0.9912037055463965  1.0000
  C   C17       1.0  0.8678403175023205  0.9692383332757971  0.10300708920201626  1.0000
  C   C18       1.0  0.6321618659938154  0.8969949095844852  0.030759016168801136  1.0000
  C   C19       1.0  0.13216138484221318  0.030759858511686392  0.8969941252905043  1.0000
  C   C20       1.0  0.3678396513398141  0.10300679472985759  0.9692387068328613  1.0000
  C   C21       1.0  0.885729835786442  0.06416381174148  0.7737626615584644  1.0000
  C   C22       1.0  0.6142745453239442  0.2262367123885838  0.9358371931392496  1.0000
  C   C23       1.0  0.1142717186798166  0.9358371863413307  0.22623726308224684  1.0000
  C   C24       1.0  0.3857271199472478  0.7737621839367248  0.06416250305097287  1.0000
  C   C25       1.0  0.8407028471669162  0.9675879576758818  0.36039119720458496  1.0000
  C   C26       1.0  0.6592948447198097  0.6396085290694841  0.03241243181646069  1.0000
  C   C27       1.0  0.1592940171428481  0.0324123480326151  0.6396077581109765  1.0000
  C   C28       1.0  0.3407028812129624  0.36039037682751024  0.9675854191298184  1.0000
  C   C29       1.0  0.8850145362457836  0.9822093749367226  0.8449019475644448  1.0000
  C   C30       1.0  0.6149871058637969  0.1550973233911819  0.0177917464308237  1.0000
  C   C31       1.0  0.1149862302697784  0.0177916274316132  0.15509665135600406  1.0000
  C   C32       1.0  0.38501373479843437  0.8449022699015101  0.9822098890942143  1.0000
  C   C33       1.0  0.8590319391725386  0.936000761704264  0.1991008530134408  1.0000
  C   C34       1.0  0.6409680409316038  0.8009002532550512  0.06399947825625671  1.0000
  C   C35       1.0  0.14096811359828368  0.06399883418025348  0.8009001401280925  1.0000
  C   C36       1.0  0.35903047307045444  0.1990986449689984  0.9360010650838145  1.0000
  C   C37       1.0  0.851031332976646  0.0015416484070201  0.2567032328561182  1.0000
  C   C38       1.0  0.6489667708775427  0.7432978720720341  0.9984552029787888  1.0000
  C   C39       1.0  0.14896631910593067  0.9984586580970781  0.7432949981694106  1.0000
  C   C40       1.0  0.35103088084927236  0.2567024445943247  0.0015389280261431122  1.0000
  C   C41       1.0  0.857557255084039  0.1314614651055663  0.1196355154307085  1.0000
  C   C42       1.0  0.6424425231314288  0.8803653482950365  0.86853815794138  1.0000
  C   C43       1.0  0.1424443362776699  0.8685388335205457  0.8803638775019988  1.0000
  C   C44       1.0  0.35755512895114794  0.11963495820905479  0.131460073084142  1.0000
  C   C45       1.0  0.8883313830475431  0.057278318024628995  0.6729694486955039  1.0000
  C   C46       1.0  0.6116684804415653  0.3270303423842691  0.9427225168080253  1.0000
  C   C47       1.0  0.11166769705816651  0.9427247862037261  0.3270301439187477  1.0000
  C   C48       1.0  0.3883299597695924  0.6729699547531566  0.05727908994806093  1.0000
  C   C49       1.0  0.8513785393446653  0.0978933899023886  0.2168308215095252  1.0000
  C   C50       1.0  0.648617952450941  0.7831709746641164  0.9021056553206676  1.0000
  C   C51       1.0  0.1486190759017632  0.9021076143646881  0.7831686245607725  1.0000
  C   C52       1.0  0.3513804875230447  0.2168293292481565  0.09789321808835888  1.0000
  C   C53       1.0  0.877029566534503  0.16145757661176668  0.889963571024026  1.0000
  C   C54       1.0  0.6229726239664685  0.1100346053919594  0.8385419369778404  1.0000
  C   C55       1.0  0.12297435125019258  0.8385434238578426  0.11003418074658099  1.0000
  C   C56       1.0  0.37702990304632067  0.889962887734434  0.16145802151662988  1.0000
  C   C57       1.0  0.8834658830438471  0.15241682984492397  0.7967450696383763  1.0000
  C   C58       1.0  0.6165361952464821  0.20325287964434577  0.8475855471392604  1.0000
  C   C59       1.0  0.11653556032099735  0.8475862784639361  0.203251666768999  1.0000
  C   C60       1.0  0.38346873233596307  0.7967439062498868  0.15241580679769123  1.0000
  C   C61       1.0  0.644989783984549  0.8458305337619759  0.6258476034864486  1.0000
  C   C62       1.0  0.8550104609579635  0.3741525222276464  0.15417064639285635  1.0000
  C   C63       1.0  0.3550086561673211  0.15416976506916308  0.3741533199328727  1.0000
  C   C64       1.0  0.14499127828201347  0.6258449701031452  0.8458300363916533  1.0000
  C   C65       1.0  0.5482732248109414  0.1299299879694402  0.5690484894794281  1.0000
  C   C66       1.0  0.9517259688418349  0.43095332794858615  0.8700688531646106  1.0000
  C   C67       1.0  0.4517222490826924  0.8700668002335801  0.43095677258060044  1.0000
  C   C68       1.0  0.048274010019504494  0.5690476702367349  0.12993183671941466  1.0000
  C   C69       1.0  0.6099200897713432  0.9435502467390717  0.6065898791227511  1.0000
  C   C70       1.0  0.890079969644745  0.39341142026153614  0.05644950363956272  1.0000
  C   C71       1.0  0.3900767378801646  0.0564507516512762  0.39341234124788826  1.0000
  C   C72       1.0  0.10992011996223279  0.6065874778599961  0.9435502744572019  1.0000
  C   C73       1.0  0.7791885178693222  0.7340755864599372  0.6137280731597841  1.0000
  C   C74       1.0  0.7208131079252665  0.3862707071727271  0.2659256198386757  1.0000
  C   C75       1.0  0.22081146075483818  0.26592541850022394  0.38626988337717444  1.0000
  C   C76       1.0  0.27919088400609127  0.6137288842212313  0.7340751685365132  1.0000
  C   C77       1.0  0.6496353295600487  0.09729066544591798  0.5429369650743892  1.0000
  C   C78       1.0  0.8503650573273518  0.4570639006742637  0.9027105888959281  1.0000
  C   C79       1.0  0.3503621752372155  0.9027124304164001  0.4570668094670011  1.0000
  C   C80       1.0  0.1496357831569952  0.542935697699555  0.09728899661880772  1.0000
  C   C81       1.0  0.5740731343055145  0.7766846551619437  0.6709855617724754  1.0000
  C   C82       1.0  0.9259279894676736  0.32901376245756353  0.22331523580517398  1.0000
  C   C83       1.0  0.4259245917458471  0.2233142473476377  0.3290136558473335  1.0000
  C   C84       1.0  0.0740761501640677  0.670983027722208  0.7766847924115153  1.0000
  C   C85       1.0  0.7140411715564807  0.6608150994470775  0.6564518884577808  1.0000
  C   C86       1.0  0.7859602044529338  0.34354797807555576  0.3391868402242934  1.0000
  C   C87       1.0  0.28596034595503284  0.3391865997861316  0.34354788455417656  1.0000
  C   C88       1.0  0.2140438243738743  0.656450913861711  0.6608134164428845  1.0000
  C   C89       1.0  0.6118221807297317  0.6819103197213893  0.6862387557386995  1.0000
  C   C90       1.0  0.8881800459586486  0.3137618155176298  0.3180899942889893  1.0000
  C   C91       1.0  0.388178696768648  0.3180885758083248  0.31376166474156264  1.0000
  C   C92       1.0  0.1118246967314889  0.6862384795160423  0.681909234830634  1.0000
  C   C93       1.0  0.476017914346869  0.06640623367985649  0.6153621865698184  1.0000
  C   C94       1.0  0.023982013058947902  0.3846395669072464  0.9335920158969626  1.0000
  C   C95       1.0  0.5239797752241131  0.9335933564304425  0.38464234611536335  1.0000
  C   C96       1.0  0.9760187904113593  0.6153607343106913  0.06640673465224722  1.0000
  C   C97       1.0  0.5059434345366114  0.9696398391823705  0.6354648868214026  1.0000
  C   C98       1.0  0.9940566915373167  0.36453864588940377  0.03035792731812141  1.0000
  C   C99       1.0  0.4940535411710485  0.030358347831523195  0.3645406734113337  1.0000
  C   C100      1.0  0.005943324100883291  0.6354616562266457  0.969640864184356  1.0000
  C   C101      1.0  0.4375789071696373  0.8983449666566798  0.6837642706535688  1.0000
  C   C102      1.0  0.06242157209725009  0.3162366102727744  0.10165271243985069  1.0000
  C   C103      1.0  0.5624188931469831  0.10165252338983066  0.3162393502443591  1.0000
  C   C104      1.0  0.9375824935064186  0.6837615855952137  0.8983456458457864  1.0000
  C   C105      1.0  0.4702478741460751  0.8057000739232548  0.7005149811994044  1.0000
  C   C106      1.0  0.029752818055065695  0.29948533518628295  0.19430026179172438  1.0000
  C   C107      1.0  0.5297513907333524  0.19429952455308097  0.2994853695586385  1.0000
  C   C108      1.0  0.970248847275421  0.7005135594453192  0.8057001177352702  1.0000
  N   N1        1.0  0.7458992895406099  0.8237043168294702  0.6002150720793651  1.0000
  N   N2        1.0  0.7541021310904839  0.3997861595601647  0.17629761667684113  1.0000
  N   N3        1.0  0.25410065230668977  0.17629738419996946  0.3997847828391342  1.0000
  N   N4        1.0  0.24589957131333762  0.6002120305336119  0.8237042811524445  1.0000
  N   N5        1.0  0.6794129215495985  0.006740611569576101  0.5613038303480522  1.0000
  N   N6        1.0  0.82058761601953  0.438697580338335  0.9932592253413901  1.0000
  N   N7        1.0  0.3205855557941959  0.9932589793363247  0.4386999780470901  1.0000
  N   N8        1.0  0.17941247364674945  0.561301316089491  0.006741236092139471  1.0000
  O   O1        1.0  0.8635705826464459  0.024767531565217396  0.4124618780665016  1.0000
  O   O2        1.0  0.6364277050863123  0.5875386074533535  0.9752320929619529  1.0000
  O   O3        1.0  0.1364262816633186  0.9752327741432792  0.5875370772490597  1.0000
  O   O4        1.0  0.36357077172382885  0.41246099869593406  0.024765565402297823  1.0000
  O   O5        1.0  0.9887270200634433  0.8636951729273933  0.5473014291295895  1.0000
  O   O6        1.0  0.5112716608855976  0.45269751313628587  0.1363049020380345  1.0000
  O   O7        1.0  0.011270521214200397  0.13630723533420755  0.4526970303464211  1.0000
  O   O8        1.0  0.48872764088927306  0.5473013858833653  0.8636949170119973  1.0000
  O   O9        1.0  0.8879697400557162  0.8315125140440711  0.032720413637761715  1.0000
  O   O10       1.0  0.6120301952051861  0.9672795080737585  0.16849009159327014  1.0000
  O   O11       1.0  0.11202847824910121  0.1684919950769057  0.9672782333354701  1.0000
  O   O12       1.0  0.3879683557516174  0.032718688999878495  0.8315106033755626  1.0000
  O   O13       1.0  0.8800346580304819  0.9740003463408725  0.6600060513558219  1.0000
  O   O14       1.0  0.6199673734594738  0.3399955054175194  0.025999785270009627  1.0000
  O   O15       1.0  0.11996610860366987  0.026000652640050196  0.3399939142381569  1.0000
  O   O16       1.0  0.3800326423566104  0.6600047916173963  0.9740010562427771  1.0000
  O   O17       1.0  0.8097637743173535  0.8869743311452893  0.39537819482880104  1.0000
  O   O18       1.0  0.6902346989758852  0.6046231880504391  0.11302643836616964  1.0000
  O   O19       1.0  0.19023631546750855  0.11302456189511638  0.6046236332782584  1.0000
  O   O20       1.0  0.3097638147889938  0.39537571694845036  0.8869713716268348  1.0000
  O   O21       1.0  0.8971216937258929  0.1309263784944719  0.6095911317164279  1.0000
  O   O22       1.0  0.6028801057847062  0.390407247515327  0.8690730745013012  1.0000
  O   O23       1.0  0.10287993447197147  0.8690732223686624  0.3904070461715036  1.0000
  O   O24       1.0  0.39712155930860155  0.6095916538911155  0.1309245716786194  1.0000
