data_image0
_chemical_formula_structural       Zn2H32C44N8O8
_chemical_formula_sum              "Zn2 H32 C44 N8 O8"
_cell_length_a       9.245390902134929
_cell_length_b       10.364981208660733
_cell_length_c       13.030999693569653
_cell_angle_alpha    101.04718918446538
_cell_angle_beta     101.02253760784434
_cell_angle_gamma    114.04199343273173

_space_group_name_H-M_alt    "P 1"
_space_group_IT_number       1

loop_
  _space_group_symop_operation_xyz
  'x, y, z'

loop_
  _atom_site_type_symbol
  _atom_site_label
  _atom_site_symmetry_multiplicity
  _atom_site_fract_x
  _atom_site_fract_y
  _atom_site_fract_z
  _atom_site_occupancy
  Zn  Zn1       1.0  0.24652733991555914  0.15220384956614907  0.22140964984389913  1.0000
  Zn  Zn2       1.0  0.7534769916342084  0.8477972942296431  0.778600994061975  1.0000
  H   H1        1.0  0.8074406314492465  0.2233681117382744  0.05156573814119272  1.0000
  H   H2        1.0  0.19255438569618386  0.7766180781772647  0.9484231759663544  1.0000
  H   H3        1.0  0.7388183021860186  0.3187714404778531  0.745121011695531  1.0000
  H   H4        1.0  0.2611815475264406  0.6812303766536869  0.2548753687499001  1.0000
  H   H5        1.0  0.8307030691757047  0.6460467181697566  0.04073495714042245  1.0000
  H   H6        1.0  0.1692867832969398  0.3539374900321092  0.9592614886937059  1.0000
  H   H7        1.0  0.9862430777045429  0.4972616037063416  0.22125524274424888  1.0000
  H   H8        1.0  0.013759465268172788  0.5027325142845953  0.7787411103232174  1.0000
  H   H9        1.0  0.8795575189002848  0.6048865472679736  0.21019831256763413  1.0000
  H   H10       1.0  0.1204369900371134  0.39510295498867976  0.7897910223157114  1.0000
  H   H11       1.0  0.5218561767906706  0.40354197682798076  0.15160510702597207  1.0000
  H   H12       1.0  0.4781418503327899  0.5964600834331292  0.8483995334150408  1.0000
  H   H13       1.0  0.5953795124008465  0.15195642142779767  0.3548542020539358  1.0000
  H   H14       1.0  0.40463676744452926  0.8480534096751595  0.6451522426187496  1.0000
  H   H15       1.0  0.9001348689540905  0.32310196502429284  0.3204525473310724  1.0000
  H   H16       1.0  0.09987993228467934  0.6769032342348638  0.6795461344476977  1.0000
  H   H17       1.0  0.8967010255062534  0.9375983890469399  0.045213871873741596  1.0000
  H   H18       1.0  0.1033052805805639  0.06239822989532231  0.9547925134408788  1.0000
  H   H19       1.0  0.6001140016469436  0.8131438865283798  0.0435094984093567  1.0000
  H   H20       1.0  0.39989596189546717  0.18685809051094532  0.9564919676234922  1.0000
  H   H21       1.0  0.536725148042521  0.8476521403432571  0.22371186456509662  1.0000
  H   H22       1.0  0.4632775587548963  0.15234646645269118  0.7762874650816657  1.0000
  H   H23       1.0  0.7675873367524416  0.006265597968010202  0.3945319979392822  1.0000
  H   H24       1.0  0.23241281132586522  0.9937429868845555  0.6054700103723718  1.0000
  H   H25       1.0  0.9685361161781285  0.15863136513976878  0.5274378369951691  1.0000
  H   H26       1.0  0.03146009402974675  0.8413848218326194  0.4725609630428593  1.0000
  H   H27       1.0  0.22492372324339976  0.32343503738726287  0.6815282168867043  1.0000
  H   H28       1.0  0.7750680698975216  0.6765811296461236  0.31847004584916755  1.0000
  H   H29       1.0  0.5025884745915902  0.4194985577203524  0.6432250442175516  1.0000
  H   H30       1.0  0.4974142447554613  0.5805190377207409  0.356783961235287  1.0000
  H   H31       1.0  0.5042942420603751  0.34147216890062987  0.4506994987911029  1.0000
  H   H32       1.0  0.4957093942474486  0.6585365459512216  0.5493067891547341  1.0000
  C   C1        1.0  0.8202873619896919  0.439732607583501  0.06019688601159596  1.0000
  C   C2        1.0  0.17970975883255846  0.5602505971017634  0.9398025962868886  1.0000
  C   C3        1.0  0.7975374305170815  0.29915350799672774  0.006204404292304804  1.0000
  C   C4        1.0  0.2024671397574949  0.7008426917986624  0.9937878907295358  1.0000
  C   C5        1.0  0.7666548645386299  0.25499742905842027  0.8926235067440018  1.0000
  C   C6        1.0  0.23334604247805396  0.7449955995199032  0.10737325752048577  1.0000
  C   C7        1.0  0.7589734349753741  0.3523958298879533  0.8332808140898109  1.0000
  C   C8        1.0  0.24102331758135878  0.6475937053472121  0.16670956477612714  1.0000
  C   C9        1.0  0.7821171653147091  0.49293386635545733  0.886172568864666  1.0000
  C   C10       1.0  0.21787194495348672  0.5070491193645025  0.11381977050294273  1.0000
  C   C11       1.0  0.810248703607037  0.535108915578597  0.9998331598682669  1.0000
  C   C12       1.0  0.18975146700749693  0.4648807036378315  0.0001599479688323262  1.0000
  C   C13       1.0  0.7902573642336818  0.6013430135641469  0.8223634767663198  1.0000
  C   C14       1.0  0.20973934203351519  0.3986479462492268  0.1776378522242297  1.0000
  C   C15       1.0  0.7510441647558392  0.10802786781948019  0.8333291479090122  1.0000
  C   C16       1.0  0.24896258476865532  0.8919661320564171  0.16666309047152336  1.0000
  C   C17       1.0  0.8664506286680477  0.49241130286947754  0.1834683846967948  1.0000
  C   C18       1.0  0.1335453997641166  0.5075806673599954  0.8165299384511188  1.0000
  C   C19       1.0  0.5827591900263441  0.3596901651444283  0.20437037669898928  1.0000
  C   C20       1.0  0.4172397366509911  0.640309575167407  0.7956301961176139  1.0000
  C   C21       1.0  0.6276937418411562  0.23226603588867786  0.3100355716022207  1.0000
  C   C22       1.0  0.3723175541621159  0.767742667838405  0.6899701059593539  1.0000
  C   C23       1.0  0.7769267267037063  0.3141170410964235  0.2938190854500676  1.0000
  C   C24       1.0  0.223088402184473  0.6858971357727554  0.7061855494872944  1.0000
  C   C25       1.0  0.8630961714711061  0.9514929873353632  0.12075480163750284  1.0000
  C   C26       1.0  0.13690613817816197  0.04850681394873389  0.8792477248187325  1.0000
  C   C27       1.0  0.6981525985199893  0.8809719656181015  0.12056081301059147  1.0000
  C   C28       1.0  0.30185080959371646  0.11903002753073366  0.8794413977320517  1.0000
  C   C29       1.0  0.6636195713748521  0.900878622156398  0.22025771082684292  1.0000
  C   C30       1.0  0.3363764280458028  0.09912428247301358  0.7797383621254002  1.0000
  C   C31       1.0  0.793451534646685  0.9908176923595557  0.31626320676102176  1.0000
  C   C32       1.0  0.20654524206428698  0.009186457760769403  0.6837377479892554  1.0000
  C   C33       1.0  0.9552122734813935  0.060095636724867084  0.3099831886026934  1.0000
  C   C34       1.0  0.044786723367657426  0.9399041496049773  0.6900189348769317  1.0000
  C   C35       1.0  0.1012374495341675  0.15996305837165886  0.4067656311772581  1.0000
  C   C36       1.0  0.8987647197716553  0.8400366508764134  0.5932337939529262  1.0000
  C   C37       1.0  0.08872344494754002  0.199919050537261  0.512351150554494  1.0000
  C   C38       1.0  0.9112620084091603  0.800084865663514  0.48764225828828955  1.0000
  C   C39       1.0  0.23281239898123116  0.29326289783252685  0.5988592846441136  1.0000
  C   C40       1.0  0.7671706009139427  0.7067510654518755  0.4011391288581052  1.0000
  C   C41       1.0  0.386048442879975  0.3459932757473537  0.5787475535972604  1.0000
  C   C42       1.0  0.6139380336401175  0.6540251912963129  0.4212542394608647  1.0000
  C   C43       1.0  0.3881073719725663  0.30237386045481424  0.47129081398347245  1.0000
  C   C44       1.0  0.6118959022729766  0.6976360718941945  0.5287194461033451  1.0000
  N   N1        1.0  0.9872536174308947  0.0387623982099328  0.21308146918890716  1.0000
  N   N2        1.0  0.012748236503107224  0.961234177784327  0.7869236034920492  1.0000
  N   N3        1.0  0.250245736047674  0.21207290233189718  0.38796909619243547  1.0000
  N   N4        1.0  0.7497593781937795  0.7879302262475745  0.6120342540162156  1.0000
  N   N5        1.0  0.5082361585278505  0.2623865732992243  0.2543256864058421  1.0000
  N   N6        1.0  0.49177084307296337  0.737615618875914  0.7456831299655208  1.0000
  N   N7        1.0  0.7458738427949922  0.39399322177901297  0.22674145880901617  1.0000
  N   N8        1.0  0.2541259541526557  0.6060019886945439  0.7732547210908012  1.0000
  O   O1        1.0  0.7806203341911981  0.030419641171718602  0.8930859368958082  1.0000
  O   O2        1.0  0.21938414890568217  0.969580147072868  0.10691608287999795  1.0000
  O   O3        1.0  0.7127812587449965  0.06845396719894127  0.7301671399448466  1.0000
  O   O4        1.0  0.2872144597167221  0.9315356090694846  0.2698246552585815  1.0000
  O   O5        1.0  0.7748451294073249  0.7144908987029125  0.8701043044997476  1.0000
  O   O6        1.0  0.22515470842848376  0.28550214789967043  0.12989310077071542  1.0000
  O   O7        1.0  0.8117884325060486  0.5765244357868369  0.7296756741261277  1.0000
  O   O8        1.0  0.188197756980756  0.4234697454868908  0.2703233160473459  1.0000
