data_image0
_chemical_formula_structural       ZnH22C18N4O6
_chemical_formula_sum              "Zn1 H22 C18 N4 O6"
_cell_length_a       8.69554058122105
_cell_length_b       9.33953846313162
_cell_length_c       9.339560578172888
_cell_angle_alpha    88.67360084424014
_cell_angle_beta     64.39632492363972
_cell_angle_gamma    64.39554916785734

_space_group_name_H-M_alt    "P 1"
_space_group_IT_number       1

loop_
  _space_group_symop_operation_xyz
  'x, y, z'

loop_
  _atom_site_type_symbol
  _atom_site_label
  _atom_site_symmetry_multiplicity
  _atom_site_fract_x
  _atom_site_fract_y
  _atom_site_fract_z
  _atom_site_occupancy
  Zn  Zn1       1.0  1.1072832535306239e-06  0.6611042610645583  0.3388970001943435  1.0000
  H   H1        1.0  0.28415126240872735  0.1756158048994862  0.5305464577002326  1.0000
  H   H2        1.0  0.7158639678348495  0.46945401399948145  0.8243750058761352  1.0000
  H   H3        1.0  0.9916849942338505  0.5587895287489458  0.6044787223628203  1.0000
  H   H4        1.0  0.0083214571938512  0.3955189078242968  0.4412038498277938  1.0000
  H   H5        1.0  0.24148116311955192  0.6848196676288653  0.015449674015855099  1.0000
  H   H6        1.0  0.7584997360210652  0.9845657124136051  0.31518091090255507  1.0000
  H   H7        1.0  0.23726600269176157  0.7568720627628167  0.7554691018107322  1.0000
  H   H8        1.0  0.7627314882452229  0.2445399032016198  0.24312599318251676  1.0000
  H   H9        1.0  0.6996066877965602  0.7372967592705633  0.9338520315994003  1.0000
  H   H10       1.0  0.3003922532517295  0.0661459404499851  0.2627091121837921  1.0000
  H   H11       1.0  0.7188376301147554  0.6785401882873431  0.18914957383420028  1.0000
  H   H12       1.0  0.2811514842101559  0.810850448923681  0.32146125104774387  1.0000
  H   H13       1.0  0.8214834626498942  0.8479333974682959  0.6796255983435631  1.0000
  H   H14       1.0  0.17852018221368837  0.3203678454198382  0.15206560768673683  1.0000
  H   H15       1.0  0.048205320639255055  0.8465936523087264  0.6071542077109698  1.0000
  H   H16       1.0  0.9517977689829497  0.39284978631619794  0.15340264510158608  1.0000
  H   H17       1.0  0.32620610431458646  0.5942269695778108  0.5276739707401745  1.0000
  H   H18       1.0  0.6737961724773528  0.4723299242491592  0.4057670547952839  1.0000
  H   H19       1.0  0.48243677950808467  0.29954199188949104  0.4946898315900869  1.0000
  H   H20       1.0  0.5175719363174522  0.5053153828540006  0.7004492282704862  1.0000
  H   H21       1.0  0.25589163233728857  0.3926054349632437  0.6764700074488132  1.0000
  H   H22       1.0  0.7441213960703127  0.3235276108843479  0.6073885073983689  1.0000
  C   C1        1.0  0.12359635790454608  0.6994888322115856  0.9918985850001862  1.0000
  C   C2        1.0  0.8763934262315802  0.008107483484188504  0.30051053238212694  1.0000
  C   C3        1.0  0.12097793623134132  0.7379281707514878  0.8482380295417401  1.0000
  C   C4        1.0  0.8790182515647873  0.1517645483580594  0.2620596438621731  1.0000
  C   C5        1.0  0.9683896514004647  0.750729144791265  0.8230565178049715  1.0000
  C   C6        1.0  0.03161009709197771  0.1769406252745185  0.24926135634930097  1.0000
  C   C7        1.0  0.821636977026373  0.7282568389305268  0.9476292784304687  1.0000
  C   C8        1.0  0.17836101655856143  0.0523668026136193  0.271740329209365  1.0000
  C   C9        1.0  0.8328844720052619  0.694148452393165  0.08966163883204796  1.0000
  C   C10       1.0  0.16710418845471522  0.9103430932557046  0.3058563940638167  1.0000
  C   C11       1.0  0.9691874604547196  0.7785292596092364  0.6631865740670337  1.0000
  C   C12       1.0  0.03081311761415865  0.33681402875789956  0.22146562815383675  1.0000
  C   C13       1.0  0.27240635970807164  0.5266172545126863  0.48405559489247457  1.0000
  C   C14       1.0  0.7275970397423849  0.515947442799245  0.47337975400013493  1.0000
  C   C15       1.0  0.3867520271067663  0.4967945570928264  0.29531028582663044  1.0000
  C   C16       1.0  0.6132530716624773  0.7046956472602516  0.5032067310881132  1.0000
  C   C17       1.0  0.3247910131697582  0.36704227631063446  0.5427166007243259  1.0000
  C   C18       1.0  0.6752185127989778  0.45728245854907373  0.6329477421252961  1.0000
  N   N1        1.0  0.9822732596767524  0.6783634968320058  0.11146968614787078  1.0000
  N   N2        1.0  0.01771496084673874  0.8885351760492101  0.32164326874696064  1.0000
  N   N3        1.0  0.06113371179024799  0.6247419556051882  0.5478718878305886  1.0000
  N   N4        1.0  0.9388679813540437  0.452129800919394  0.3752506906721252  1.0000
  O   O1        1.0  0.29479400367501557  0.5232759330828145  0.21313263398458562  1.0000
  O   O2        1.0  0.7051996774529598  0.7868717850511971  0.47672914928688226  1.0000
  O   O3        1.0  0.5643072057203187  0.4505810132566382  0.23573360266291127  1.0000
  O   O4        1.0  0.43568048734326936  0.7642720826986037  0.5494228067078027  1.0000
  O   O5        1.0  0.2569447965757235  0.27462442959279804  0.4873644572946533  1.0000
  O   O6        1.0  0.7430668775045818  0.512637661383451  0.7253666314491057  1.0000
