data_image0
_chemical_formula_structural       Ag4H20C20N8O16
_chemical_formula_sum              "Ag4 H20 C20 N8 O16"
_cell_length_a       5.101692653908509
_cell_length_b       7.820079658725091
_cell_length_c       18.060346241079703
_cell_angle_alpha    89.99956097727127
_cell_angle_beta     90.00125722437363
_cell_angle_gamma    94.15151288561229

_space_group_name_H-M_alt    "P 1"
_space_group_IT_number       1

loop_
  _space_group_symop_operation_xyz
  'x, y, z'

loop_
  _atom_site_type_symbol
  _atom_site_label
  _atom_site_symmetry_multiplicity
  _atom_site_fract_x
  _atom_site_fract_y
  _atom_site_fract_z
  _atom_site_occupancy
  Ag  Ag1       1.0  0.2695258494782919  0.7059335127532761  0.1653678296186172  1.0000
  Ag  Ag2       1.0  0.2304589229844396  0.7940624751868413  0.6653767711708696  1.0000
  Ag  Ag3       1.0  0.7304683000222668  0.2940673269910974  0.8346208455505388  1.0000
  Ag  Ag4       1.0  0.7695368191060153  0.2059229174053243  0.3346279613118952  1.0000
  H   H1        1.0  0.41082635081107816  0.009823862305850594  0.9405917815701841  1.0000
  H   H2        1.0  0.0891833665879815  0.49018114987878664  0.4406027162479873  1.0000
  H   H3        1.0  0.589184024728148  0.9901805552712944  0.0593985547412288  1.0000
  H   H4        1.0  0.9108006410144186  0.5098044431188881  0.5594042309940261  1.0000
  H   H5        1.0  0.8981794494018518  0.6313473357247691  0.040512458779239986  1.0000
  H   H6        1.0  0.6018544210262462  0.8686614165641302  0.5405153037667318  1.0000
  H   H7        1.0  0.10184362742661078  0.3686632898407751  0.9594845219511754  1.0000
  H   H8        1.0  0.39812586840876213  0.1313255249187293  0.4594933045585137  1.0000
  H   H9        1.0  0.6265988930607165  0.618486386343797  0.9250184725859113  1.0000
  H   H10       1.0  0.8733879092418277  0.8815233711359838  0.4250205709564412  1.0000
  H   H11       1.0  0.3733968030414018  0.3815247068713746  0.0749768469587764  1.0000
  H   H12       1.0  0.1265937332119123  0.1184725421711192  0.5749869299568715  1.0000
  H   H13       1.0  0.7574851048365261  0.8064183613494295  0.8179519096951253  1.0000
  H   H14       1.0  0.7424882455688078  0.6935952132330742  0.3179533653404221  1.0000
  H   H15       1.0  0.2425234856842167  0.19360022156632792  0.1820456246727176  1.0000
  H   H16       1.0  0.2574896786144834  0.30640204857412806  0.6820530281599204  1.0000
  H   H17       1.0  0.1706023189343  0.0072992519725403  0.8301828402878401  1.0000
  H   H18       1.0  0.3293802234217935  0.4926982785596863  0.3301908632722004  1.0000
  H   H19       1.0  0.8294041452875405  0.9927052323805938  0.1698130330034076  1.0000
  H   H20       1.0  0.670608082230828  0.5072898110177704  0.6698144228808189  1.0000
  C   C1        1.0  0.18655057810548936  0.8200068967509824  0.9971077619007573  1.0000
  C   C2        1.0  0.3134643276407729  0.6800085540807003  0.4971158133115027  1.0000
  C   C3        1.0  0.8134613438291893  0.18000777432679632  0.0028836817937686996  1.0000
  C   C4        1.0  0.6865204530562893  0.3199821656821982  0.5028889191258655  1.0000
  C   C5        1.0  0.9539402302294562  0.7092310019881723  0.992285486370001  1.0000
  C   C6        1.0  0.5460713313861234  0.7907789783820363  0.4922963820508953  1.0000
  C   C7        1.0  0.046065631125699696  0.2907824876100022  0.007705957307585699  1.0000
  C   C8        1.0  0.4539025108807949  0.20920421824457244  0.5077122262612478  1.0000
  C   C9        1.0  0.8040959858616148  0.7049698040112986  0.9285918871954522  1.0000
  C   C10       1.0  0.6959000655559676  0.7950474714500261  0.4286009505513774  1.0000
  C   C11       1.0  0.19591378705825946  0.2950436187750967  0.07140066389318629  1.0000
  C   C12       1.0  0.30407727882693797  0.20494594528027218  0.571407657751685  1.0000
  C   C13       1.0  0.8759584039606096  0.8113323506882325  0.8678189840701478  1.0000
  C   C14       1.0  0.6240245266485688  0.688680586386809  0.3678280111204231  1.0000
  C   C15       1.0  0.1240540978569058  0.18868616545451997  0.1321724596186158  1.0000
  C   C16       1.0  0.3759668945726915  0.31131515991172887  0.6321783824258418  1.0000
  C   C17       1.0  0.09942831568429968  0.9195260392094581  0.8736794217161901  1.0000
  C   C18       1.0  0.40055649018047745  0.5804821036084108  0.3736906357272005  1.0000
  C   C19       1.0  0.9005836062297734  0.0804886318712974  0.12631146827909837  1.0000
  C   C20       1.0  0.5994325887523075  0.41951111270743263  0.6263174189143399  1.0000
  N   N1        1.0  0.24662972002946051  0.9213973246820404  0.9362800149123274  1.0000
  N   N2        1.0  0.2533873203739674  0.5786109577480758  0.4362891927466066  1.0000
  N   N3        1.0  0.7533962788878696  0.07861967594309502  0.0637130899200784  1.0000
  N   N4        1.0  0.7466027477873425  0.4213758167321871  0.5637172008131017  1.0000
  N   N5        1.0  0.2781405687750933  0.985441928118469  0.2922114946494005  1.0000
  N   N6        1.0  0.22186518837121835  0.5145512111545757  0.7922153966357044  1.0000
  N   N7        1.0  0.7218623933719925  0.014552336125007097  0.7077854860494099  1.0000
  N   N8        1.0  0.7781362047675701  0.48544564984459265  0.2077860136469027  1.0000
  O   O1        1.0  0.34263847956385274  0.8329504350759651  0.05303607741388559  1.0000
  O   O2        1.0  0.15738288924263338  0.6670588451501089  0.5530400732555165  1.0000
  O   O3        1.0  0.6573732491590007  0.1670629543015636  0.9469575810795304  1.0000
  O   O4        1.0  0.8425981732664314  0.3329332231009658  0.44696576656583886  1.0000
  O   O5        1.0  0.5130042767430112  0.9857804396444934  0.268416462344014  1.0000
  O   O6        1.0  0.9870021814905243  0.5142176202947295  0.7684198372816694  1.0000
  O   O7        1.0  0.4870049393397197  0.014216287757967901  0.73158217946753  1.0000
  O   O8        1.0  0.013011719334045293  0.4857841670492533  0.2315799119332524  1.0000
  O   O9        1.0  0.10369404389727072  0.8775474133017697  0.267161799647667  1.0000
  O   O10       1.0  0.39631513562802206  0.6224420505862724  0.7671641695594289  1.0000
  O   O11       1.0  0.8963134096149333  0.12245062920683128  0.7328340736594683  1.0000
  O   O12       1.0  0.6036981855198251  0.37755589166290104  0.23284111665365967  1.0000
  O   O13       1.0  0.22020527216061941  0.0940302946475313  0.3410609745048774  1.0000
  O   O14       1.0  0.2798125104992764  0.40596139069684517  0.841065911248478  1.0000
  O   O15       1.0  0.7797994524951619  0.905962654498751  0.6589371136006221  1.0000
  O   O16       1.0  0.7201918276916218  0.5940289950548915  0.15893549905630522  1.0000
