data_image0
_chemical_formula_structural       Zn8H80C80N40O26
_chemical_formula_sum              "Zn8 H80 C80 N40 O26"
_cell_length_a       23.88913611776503
_cell_length_b       23.89124496876155
_cell_length_c       23.8890058057742
_cell_angle_alpha    66.56481582722876
_cell_angle_beta     72.48059233114333
_cell_angle_gamma    107.52978521771003

_space_group_name_H-M_alt    "P 1"
_space_group_IT_number       1

loop_
  _space_group_symop_operation_xyz
  'x, y, z'

loop_
  _atom_site_type_symbol
  _atom_site_label
  _atom_site_symmetry_multiplicity
  _atom_site_fract_x
  _atom_site_fract_y
  _atom_site_fract_z
  _atom_site_occupancy
  Zn  Zn1       1.0  0.056523275517108035  0.9577630787579635  0.4861978483968201  1.0000
  Zn  Zn2       1.0  0.05652228224197131  0.09875003157389979  0.4572977450027552  1.0000
  Zn  Zn3       1.0  0.9434786792664622  0.9861951004046785  0.4577559735534608  1.0000
  Zn  Zn4       1.0  0.9434957387933951  0.9572918834089705  0.5987535609098914  1.0000
  Zn  Zn5       1.0  0.943954870159459  0.5427048275609111  0.013804408804631482  1.0000
  Zn  Zn6       1.0  0.056058673110960945  0.5138085149737108  0.04271751731775454  1.0000
  Zn  Zn7       1.0  0.9439573189062856  0.4012495773479828  0.04223657777068001  1.0000
  Zn  Zn8       1.0  0.056037009916025185  0.542238514448222  0.9012443866205405  1.0000
  H   H1        1.0  0.9194620365538025  0.8443779482194311  0.7489083544144115  1.0000
  H   H2        1.0  0.9110814685026652  0.8034735838173149  0.8307597056789222  1.0000
  H   H3        1.0  0.09324835403941013  0.6683335751132728  0.7511115162329391  1.0000
  H   H4        1.0  0.13421985969107922  0.7418186554208219  0.6692728996639377  1.0000
  H   H5        1.0  0.9067169830628006  0.6556134279542009  0.9249219623785621  1.0000
  H   H6        1.0  0.8657712200694689  0.6965188920251536  0.8923968046769771  1.0000
  H   H7        1.0  0.08057113850613028  0.8316844155535676  0.5750863205983239  1.0000
  H   H8        1.0  0.08893342273916006  0.758205695174773  0.6075981401845783  1.0000
  H   H9        1.0  0.9194433034826801  0.07508816012808944  0.3316334410343416  1.0000
  H   H10       1.0  0.9110670028590206  0.10761095747618286  0.25815638991439743  1.0000
  H   H11       1.0  0.09327677140086627  0.42490762249732944  0.15565556972313027  1.0000
  H   H12       1.0  0.13422866193373303  0.3923855003335461  0.19655869274237864  1.0000
  H   H13       1.0  0.906736662640462  0.25112139154374075  0.16833367333217109  1.0000
  H   H14       1.0  0.8657822397101214  0.16927721235702342  0.2417998955833056  1.0000
  H   H15       1.0  0.08055220073705269  0.24887280945622334  0.3443871597289103  1.0000
  H   H16       1.0  0.08891791597767451  0.3307125369441621  0.303512877836802  1.0000
  H   H17       1.0  0.9207069635750997  0.6395681104146576  0.07406065011729625  1.0000
  H   H18       1.0  0.9149183307634772  0.7057527414433906  0.0821663557203391  1.0000
  H   H19       1.0  0.07931559617731669  0.5740980141974318  0.1395697167564833  1.0000
  H   H20       1.0  0.0850961408292221  0.5821814576405088  0.2057749894717135  1.0000
  H   H21       1.0  0.09760464504339687  0.7193205237300473  0.22658889572952043  1.0000
  H   H22       1.0  0.13267557663603224  0.6834814052041835  0.18939740249613377  1.0000
  H   H23       1.0  0.9023543023390701  0.7265155377738067  0.21934364641978737  1.0000
  H   H24       1.0  0.8672957614240885  0.6893327387692096  0.18348259751437737  1.0000
  H   H25       1.0  0.9312883383775701  0.8176111830817873  0.23728143211533118  1.0000
  H   H26       1.0  0.9091295855710939  0.8696861004919397  0.2582916652520664  1.0000
  H   H27       1.0  0.068587329493674  0.7371950242788968  0.3177228903873371  1.0000
  H   H28       1.0  0.0907727240626458  0.7582283930997136  0.36977484813320416  1.0000
  H   H29       1.0  0.09462949317092757  0.8801647132171125  0.40696657524796376  1.0000
  H   H30       1.0  0.1367542574128109  0.859739928272198  0.3531853856218846  1.0000
  H   H31       1.0  0.9053105005667774  0.9069124963184764  0.3802051609643016  1.0000
  H   H32       1.0  0.8631695919315733  0.8531254687032896  0.3597892978717355  1.0000
  H   H33       1.0  0.0793346762307153  0.5051952775219419  0.781136274891033  1.0000
  H   H34       1.0  0.08511692166829485  0.502880264664462  0.7091600451044402  1.0000
  H   H35       1.0  0.920711156211695  0.28114384291131966  0.005231135134792475  1.0000
  H   H36       1.0  0.9149279802562448  0.2091614207571837  0.002932099544750499  1.0000
  H   H37       1.0  0.9023727487840177  0.17581063130443655  0.878326341964474  1.0000
  H   H38       1.0  0.867314073857166  0.1779566078683389  0.9492272766985793  1.0000
  H   H39       1.0  0.09763164426622242  0.3782372722020071  0.6758606726626651  1.0000
  H   H40       1.0  0.1326982673056207  0.4491559743645368  0.6779770475824167  1.0000
  H   H41       1.0  0.06858032484440466  0.3313854219187675  0.6137198496499324  1.0000
  H   H42       1.0  0.0907694449117784  0.33254642291130654  0.5394824937503346  1.0000
  H   H43       1.0  0.9312734038828481  0.11366388803018167  0.8314215521321773  1.0000
  H   H44       1.0  0.9091210180858201  0.03943774359997598  0.8325529575245695  1.0000
  H   H45       1.0  0.9053177656066965  0.9984119267383633  0.714445436140025  1.0000
  H   H46       1.0  0.8631710126006453  0.01005747613164224  0.7769950690815436  1.0000
  H   H47       1.0  0.09464711791575553  0.21447751080427213  0.4984179351326078  1.0000
  H   H48       1.0  0.13675749279479282  0.2770271057732073  0.5100867728389816  1.0000
  H   H49       1.0  0.7871257546989412  0.5015787847817919  0.09308440856519692  1.0000
  H   H50       1.0  0.7129210916164084  0.48992085866154866  0.14686792223696438  1.0000
  H   H51       1.0  0.7871263566404706  0.2855312729194566  0.11980737963579463  1.0000
  H   H52       1.0  0.7129201846718801  0.22298120060364107  0.1402231713549185  1.0000
  H   H53       1.0  0.5549043227753643  0.16859663898142677  0.2627362066504305  1.0000
  H   H54       1.0  0.6279908470187153  0.1674458865048437  0.24171704817239004  1.0000
  H   H55       1.0  0.5549059077634979  0.3863025037628489  0.18233338728489917  1.0000
  H   H56       1.0  0.6279911732388684  0.4605336678321023  0.1302774205996329  1.0000
  H   H57       1.0  0.4458789827898216  0.3241880253192304  0.2734110957180109  1.0000
  H   H58       1.0  0.3728344616732926  0.3220429776173929  0.3106173012526838  1.0000
  H   H59       1.0  0.44589811288087583  0.12175819061199183  0.28058409815063373  1.0000
  H   H60       1.0  0.3728625574980525  0.05083598123736982  0.31644441824584396  1.0000
  H   H61       1.0  0.213668540825161  0.9948011482544173  0.4258714372002998  1.0000
  H   H62       1.0  0.2879653861121057  0.9971219864160973  0.41776112323936615  1.0000
  H   H63       1.0  0.21363640178872603  0.2188542823856281  0.3604371693535172  1.0000
  H   H64       1.0  0.28791353562329663  0.2908386707719757  0.2942265056855575  1.0000
  H   H65       1.0  0.21290797161351793  0.5930777370392943  0.0015873859368583584  1.0000
  H   H66       1.0  0.28712762029222466  0.6468524059375013  0.9899260612247861  1.0000
  H   H67       1.0  0.21285147307700916  0.6198027348937102  0.7855378136276416  1.0000
  H   H68       1.0  0.2870426218104144  0.6402007273554986  0.7229892976642845  1.0000
  H   H69       1.0  0.44508090064447  0.7627051730790624  0.6685839165065915  1.0000
  H   H70       1.0  0.3719862316767293  0.7416924936523159  0.6674400417604293  1.0000
  H   H71       1.0  0.44511978910492883  0.6822967673028016  0.886292954078762  1.0000
  H   H72       1.0  0.3720421880877042  0.6302503826984774  0.9605308418184892  1.0000
  H   H73       1.0  0.5541344094098051  0.7734163291065741  0.8241826171115464  1.0000
  H   H74       1.0  0.6271794328978118  0.8106202080095101  0.8220505225209327  1.0000
  H   H75       1.0  0.5541047982444668  0.780619424316093  0.6217282537110338  1.0000
  H   H76       1.0  0.627138600049058  0.8164747682983557  0.5508074327917712  1.0000
  H   H77       1.0  0.7863359663775783  0.9259116120019187  0.494780073200083  1.0000
  H   H78       1.0  0.712034369834143  0.9177912768062412  0.4971040110184789  1.0000
  H   H79       1.0  0.7863779492570019  0.8604429354557084  0.718862214354239  1.0000
  H   H80       1.0  0.7120987429724648  0.7942413551053276  0.7908440705681842  1.0000
  C   C1        1.0  0.1835225680053156  0.0917580384194423  0.40823446275206987  1.0000
  C   C2        1.0  6.109656105493997e-06  0.1390237306396003  0.3609566709665445  1.0000
  C   C3        1.0  0.9999762866028804  0.9085545166417649  0.4085961898518561  1.0000
  C   C4        1.0  0.8164876792103257  0.9082399334479943  0.5917559802968103  1.0000
  C   C5        1.0  1.6239182578276382e-05  0.8609867429907679  0.6390398841435144  1.0000
  C   C6        1.0  0.9999987311503488  0.09143212776226055  0.5914185803469322  1.0000
  C   C7        1.0  7.835285579502964e-06  0.5917576183786578  0.09175959036447529  1.0000
  C   C8        1.0  1.8017010042108896e-05  0.36097600397071256  0.1390289985087492  1.0000
  C   C9        1.0  0.8171515476409539  0.4085680752728321  0.09142440074300133  1.0000
  C   C10       1.0  6.615957246795291e-06  0.4082449564811269  0.9082378746694887  1.0000
  C   C11       1.0  0.9999840700284893  0.6390200386677023  0.8609709498813486  1.0000
  C   C12       1.0  0.18285174568593035  0.5914265665519807  0.9085795067932951  1.0000
  C   C13       1.0  1.3970513393344647e-05  0.8047589719240379  0.6952659914832467  1.0000
  C   C14       1.0  0.9999936000369799  0.6952545464210117  0.804747934212138  1.0000
  C   C15       1.0  0.9573498938814287  0.7777685640923909  0.7665201355842369  1.0000
  C   C16       1.0  0.04427165979943469  0.7238583998670122  0.7334948388429583  1.0000
  C   C17       1.0  0.9557246180761895  0.7222385417458311  0.8204231408129277  1.0000
  C   C18       1.0  0.042666973066047914  0.7761600574542554  0.6795879924124935  1.0000
  C   C19       1.0  1.2699666847038228e-05  0.19525218056451624  0.30473066545369687  1.0000
  C   C20       1.0  1.6559645160935013e-05  0.30474540760480545  0.1952509583995692  1.0000
  C   C21       1.0  0.9573529644114062  0.17958691516371067  0.27612469360167313  1.0000
  C   C22       1.0  0.0442879397629383  0.3204090106314439  0.22224497289147396  1.0000
  C   C23       1.0  0.9557385367570531  0.23349586620431506  0.2238379452372499  1.0000
  C   C24       1.0  0.042669288271809984  0.2664995302216511  0.27776416511634494  1.0000
  C   C25       1.0  7.131231284629242e-07  0.6285214893958794  0.12853411633575734  1.0000
  C   C26       1.0  0.9576432896521537  0.659963127151691  0.13360247222065175  1.0000
  C   C27       1.0  0.9554424324521378  0.6917127993879292  0.17211048607695284  1.0000
  C   C28       1.0  0.9999783535748819  0.6995496683919881  0.19959951215314203  1.0000
  C   C29       1.0  0.04452545083676541  0.6720789254321743  0.1917693135114647  1.0000
  C   C30       1.0  0.04234752963152739  0.6335935306425212  0.15999514452517621  1.0000
  C   C31       1.0  0.9999695535012383  0.7347940792944174  0.2348489684139634  1.0000
  C   C32       1.0  0.9999636868549974  0.7655228746116122  0.26556999179345564  1.0000
  C   C33       1.0  0.9999655257478892  0.8007701236809479  0.3008163694648687  1.0000
  C   C34       1.0  0.9578796260754032  0.831349338819656  0.30553251166206497  1.0000
  C   C35       1.0  0.9549322929696731  0.8633581640290159  0.34378866131928015  1.0000
  C   C36       1.0  0.9999611006812048  0.8717927344160188  0.37186440087339184  1.0000
  C   C37       1.0  0.04499136996143698  0.8437289157315034  0.363425450793514  1.0000
  C   C38       1.0  0.04204536385624628  0.8054784476390322  0.33141093833101826  1.0000
  C   C39       1.0  1.6237074895277023e-05  0.3714658715576603  0.8714790937350261  1.0000
  C   C40       1.0  0.04236746323825716  0.40873104426444223  0.797685209297704  1.0000
  C   C41       1.0  0.04455237466489586  0.372413553596921  0.7637429366035138  1.0000
  C   C42       1.0  3.834775698513878e-08  0.3004017957802602  0.8004516342307612  1.0000
  C   C43       1.0  0.9554687940281141  0.2637086036360472  0.8724654800812531  1.0000
  C   C44       1.0  0.9576593997058823  0.29766787123212163  0.9087668254893162  1.0000
  C   C45       1.0  0.9999785088304594  0.2651479696788641  0.7652099674036847  1.0000
  C   C46       1.0  0.9999688462788258  0.23442863478499035  0.7344789921968696  1.0000
  C   C47       1.0  0.999966569779069  0.19919136916675478  0.6992220895354111  1.0000
  C   C48       1.0  0.04204658994119373  0.2365671578843163  0.6265558266716555  1.0000
  C   C49       1.0  0.04500202782641342  0.20127031078807528  0.591590427822041  1.0000
  C   C50       1.0  0.9999765673858859  0.12817746167790744  0.6281676699740188  1.0000
  C   C51       1.0  0.9549408769157212  0.09158181327273962  0.7012607626599844  1.0000
  C   C52       1.0  0.9578794338556733  0.12652816897259092  0.736577935672621  1.0000
  C   C53       1.0  0.7436565135297641  0.3718218928402378  0.12817270280559984  1.0000
  C   C54       1.0  0.7071532031357464  0.40840934727143  0.1366162488746738  1.0000
  C   C55       1.0  0.6368892515742246  0.3734537052912544  0.16862244130318524  1.0000
  C   C56       1.0  0.6015918429684818  0.30079243859198357  0.1991986250370276  1.0000
  C   C57       1.0  0.636887434836808  0.2634261017255071  0.1944840359987836  1.0000
  C   C58       1.0  0.7071529661473976  0.2987301262424324  0.1562342971073322  1.0000
  C   C59       1.0  0.5310959342141715  0.2655499293593452  0.23443262694566155  1.0000
  C   C60       1.0  0.46964660490081667  0.23484003923143598  0.2651426009612906  1.0000
  C   C61       1.0  0.3991511999708878  0.19959126287938747  0.30038144800158045  1.0000
  C   C62       1.0  0.36383701881908337  0.2362915904696976  0.30821729906406153  1.0000
  C   C63       1.0  0.2935778267319833  0.20233381175951592  0.3399933367176617  1.0000
  C   C64       1.0  0.2570615203219616  0.12853675501087025  0.3714399189097153  1.0000
  C   C65       1.0  0.2935868197752002  0.09126631011588418  0.36635240869955515  1.0000
  C   C66       1.0  0.3638434901396935  0.1275811538046838  0.32784385711410385  1.0000
  C   C67       1.0  0.25634844616381264  0.6281660969271528  0.8718262240234652  1.0000
  C   C68       1.0  0.2928672225092156  0.6366066810392323  0.9084108638898274  1.0000
  C   C69       1.0  0.3631299110324805  0.6686060150809823  0.8734500673951118  1.0000
  C   C70       1.0  0.3984179643678091  0.6991947014647053  0.8007811767575532  1.0000
  C   C71       1.0  0.3631061934826649  0.6944717211548053  0.7634226383331751  1.0000
  C   C72       1.0  0.2928417040045233  0.6562266840015382  0.7987306863735388  1.0000
  C   C73       1.0  0.4689118330940902  0.7344367478523708  0.7655354156116803  1.0000
  C   C74       1.0  0.5303627423840993  0.7651523843620538  0.7348226861070942  1.0000
  C   C75       1.0  0.6008567648416729  0.8003961412799467  0.6995799676429545  1.0000
  C   C76       1.0  0.636177760179052  0.8082330085198847  0.736283066492739  1.0000
  C   C77       1.0  0.7064365624073191  0.8400064497727584  0.7023306064293777  1.0000
  C   C78       1.0  0.7429489457274343  0.8714562614606078  0.628529400232111  1.0000
  C   C79       1.0  0.7064214120060869  0.8663775218381884  0.5912520811668501  1.0000
  C   C80       1.0  0.6361647456633082  0.8278693967596239  0.6275637782445571  1.0000
  N   N1        1.0  0.9134286908255548  0.8011356041172562  0.7884987344951782  1.0000
  N   N2        1.0  0.08961223614616633  0.7019107206673353  0.7115152363847345  1.0000
  N   N3        1.0  0.9103708439092915  0.698859780665984  0.8877141256941173  1.0000
  N   N4        1.0  0.08659391510281007  0.7981119992646555  0.6122977768348508  1.0000
  N   N5        1.0  0.9134196265888547  0.11230164556106105  0.29806720335940884  1.0000
  N   N6        1.0  0.08962810397110846  0.3876955407832838  0.19889435293037389  1.0000
  N   N7        1.0  0.9103848960793643  0.2115278164230361  0.20189005921650244  1.0000
  N   N8        1.0  0.08658442803402262  0.2884679034728633  0.30115127242535084  1.0000
  N   N9        1.0  0.9148152680542554  0.659453582668057  0.10467949769985564  1.0000
  N   N10       1.0  0.0851967409727834  0.6047032403527695  0.1594716942848607  1.0000
  N   N11       1.0  0.0887746532770351  0.6790970141534699  0.2190897710118236  1.0000
  N   N12       1.0  0.911189463646338  0.7190223636094404  0.1791151761503755  1.0000
  N   N13       1.0  0.9155616887125007  0.8268064685854596  0.2757763902118384  1.0000
  N   N14       1.0  0.08434671315250601  0.7757086317292375  0.3268864875341962  1.0000
  N   N15       1.0  0.09158591031587808  0.8489865537312012  0.38761225597166776  1.0000
  N   N16       1.0  0.9083440305509215  0.8875424075687589  0.3490409024215212  1.0000
  N   N17       1.0  0.08521741506314838  0.4804676165946517  0.7553606627837797  1.0000
  N   N18       1.0  0.9148259462265858  0.2553594963806988  0.9805080650905748  1.0000
  N   N19       1.0  0.9112107913961225  0.1921486143267686  0.909713722450164  1.0000
  N   N20       1.0  0.08879973093439726  0.4096351014765175  0.6921827769044955  1.0000
  N   N21       1.0  0.08434373639644832  0.3086359755579267  0.5887946930602582  1.0000
  N   N22       1.0  0.915554475908685  0.08875050261081442  0.808641573335699  1.0000
  N   N23       1.0  0.9083478486301433  0.020810474792376955  0.7425821129749651  1.0000
  N   N24       1.0  0.09159375823096383  0.24260632300197926  0.5208196504008101  1.0000
  N   N25       1.0  0.7365934143819644  0.47918050357066727  0.11243837169907792  1.0000
  N   N26       1.0  0.7365932689371559  0.25740017951052613  0.15097635660520584  1.0000
  N   N27       1.0  0.6025916611399397  0.19136174062722947  0.22423381072225373  1.0000
  N   N28       1.0  0.6025922896493654  0.4112236469463823  0.1731620933067219  1.0000
  N   N29       1.0  0.39815388066845264  0.30785126760213194  0.28091130697581695  1.0000
  N   N30       1.0  0.3981808973999819  0.09035927763829224  0.3208167052989594  1.0000
  N   N31       1.0  0.2641706491433595  0.019528758974864488  0.39525055808152143  1.0000
  N   N32       1.0  0.264144830181209  0.24464121343173412  0.34052637345793363  1.0000
  N   N33       1.0  0.2634386319847978  0.6124253089845908  0.9791867527531298  1.0000
  N   N34       1.0  0.2633858316769775  0.6509628754788038  0.7574067763416182  1.0000
  N   N35       1.0  0.3973880660557398  0.7242126272693881  0.6913570233011086  1.0000
  N   N36       1.0  0.3974429431441493  0.6731362114050085  0.9112189418522193  1.0000
  N   N37       1.0  0.60186050833795  0.7809211692470301  0.8078476830172293  1.0000
  N   N38       1.0  0.601825579518682  0.8208506545998945  0.590330509158143  1.0000
  N   N39       1.0  0.7358348578961866  0.8952873562356629  0.5195088478754855  1.0000
  N   N40       1.0  0.7358706397863276  0.8405381271956854  0.7446440850698652  1.0000
  O   O1        1.0  4.15818249888388e-06  0.9999995313480878  0.4999981501002042  1.0000
  O   O2        1.0  0.15207861168864406  0.02626588458798549  0.4315053692281481  1.0000
  O   O3        1.0  0.04276015449880075  0.15503331414905824  0.3818962116960806  1.0000
  O   O4        1.0  0.9624453346192964  0.9377290850045978  0.41082828957217316  1.0000
  O   O5        1.0  0.15207734170044057  0.12580031054211094  0.4164259737835892  1.0000
  O   O6        1.0  0.03752251925509154  0.9108063164336143  0.4377615923120859  1.0000
  O   O7        1.0  0.9572458335261019  0.07534381590910774  0.3876879450966228  1.0000
  O   O8        1.0  0.8479258183047944  0.9315164948571206  0.526259645551143  1.0000
  O   O9        1.0  0.9572550324049518  0.8819073534619121  0.6550595936551673  1.0000
  O   O10       1.0  0.8479382188913506  0.9164194949173492  0.6258038998332935  1.0000
  O   O11       1.0  0.04277410663687683  0.887727625970825  0.5753572877625645  1.0000
  O   O12       1.0  0.03755608940843299  0.1267269148255821  0.5247153339492528  1.0000
  O   O13       1.0  0.9624679030059085  0.024728870302723603  0.6267079648063005  1.0000
  O   O14       1.0  6.332122083626029e-06  0.5000006146413085  2.5493329403571772e-06  1.0000
  O   O15       1.0  0.9577840007125005  0.5835843801183387  0.06848322693228677  1.0000
  O   O16       1.0  0.03697546931974924  0.4246568315743814  0.11810081148529158  1.0000
  O   O17       1.0  0.8485637724218054  0.37327642455519344  0.08917472973554645  1.0000
  O   O18       1.0  0.04223114977813951  0.568486531345819  0.08359256335221939  1.0000
  O   O19       1.0  0.8485633093469644  0.47527140181987443  0.062260702547206385  1.0000
  O   O20       1.0  0.9630597266234702  0.344962293663585  0.11229382552463096  1.0000
  O   O21       1.0  0.9577792543312498  0.37420437411252977  0.9737277547385477  1.0000
  O   O22       1.0  0.03692889572244694  0.6122836220237956  0.8449528087850241  1.0000
  O   O23       1.0  0.042229513249871814  0.47373655268151543  0.8741896792137072  1.0000
  O   O24       1.0  0.9630362873459645  0.6180871006016487  0.9246549015494878  1.0000
  O   O25       1.0  0.15145018776355104  0.5622703455216679  0.975285227311254  1.0000
  O   O26       1.0  0.15143206076317747  0.5891868646810892  0.8732863595726956  1.0000
