data_image0
_chemical_formula_structural       Nd4H44C52O28
_chemical_formula_sum              "Nd4 H44 C52 O28"
_cell_length_a       7.326433059
_cell_length_b       13.185008877030397
_cell_length_c       13.592
_cell_angle_alpha    99.02637795135485
_cell_angle_beta     90.0
_cell_angle_gamma    90.0

_space_group_name_H-M_alt    "P 1"
_space_group_IT_number       1

loop_
  _space_group_symop_operation_xyz
  'x, y, z'

loop_
  _atom_site_type_symbol
  _atom_site_label
  _atom_site_symmetry_multiplicity
  _atom_site_fract_x
  _atom_site_fract_y
  _atom_site_fract_z
  _atom_site_occupancy
  Nd  Nd1       1.0  0.0859927327427172  0.8142713108841518  0.5246835947340571  1.0000
  Nd  Nd2       1.0  0.5859932064384381  0.6857284688301916  0.4753161878086445  1.0000
  Nd  Nd3       1.0  0.9140068497280467  0.18572879824114344  0.4753167897373203  1.0000
  Nd  Nd4       1.0  0.4140063760323258  0.31427087234790446  0.5246833440609038  1.0000
  H   H1        1.0  0.9207891405918076  0.010855701617678896  0.6591131504952017  1.0000
  H   H2        1.0  0.4207900318167646  0.4891439689713692  0.3408862475761225  1.0000
  H   H3        1.0  0.07921044187895633  0.9891436395604174  0.3408863813743467  1.0000
  H   H4        1.0  0.5792109155746774  0.5108553722067269  0.6591132842934256  1.0000
  H   H5        1.0  0.0356353491388646  0.9314608215349125  0.7101571426953229  1.0000
  H   H6        1.0  0.5356358228345854  0.5685397261266302  0.28984275672230814  1.0000
  H   H7        1.0  0.9643642333318994  0.068539287590383  0.2898425060491547  1.0000
  H   H8        1.0  0.46436375963617144  0.4314603829986651  0.7101576277490624  1.0000
  H   H9        1.0  0.6750488211892645  0.8765226468018241  0.7413759269669314  1.0000
  H   H10       1.0  0.17504834749354364  0.6234779008597258  0.2586239724506996  1.0000
  H   H11       1.0  0.3249507612814995  0.1234782302706776  0.2586238386524755  1.0000
  H   H12       1.0  0.8249512349772206  0.37652144031837037  0.7413755594188487  1.0000
  H   H13       1.0  0.3345516133514722  0.8614977598359275  0.872182264827117  1.0000
  H   H14       1.0  0.8345507221265154  0.6385020198784161  0.1278175177155845  1.0000
  H   H15       1.0  0.6654506989606546  0.1385015813421688  0.1278172670424311  1.0000
  H   H16       1.0  0.1654488603442488  0.3614980892468793  0.8721821310288931  1.0000
  H   H17       1.0  0.8541578077087024  0.90427856244753  0.8751108792010385  1.0000
  H   H18       1.0  0.35415733401298166  0.5957219852140198  0.1248897559434923  1.0000
  H   H19       1.0  0.1458431396827393  0.0957223146249717  0.12489035787216811  1.0000
  H   H20       1.0  0.6458422484577824  0.4042788918584818  0.8751107454028143  1.0000
  H   H21       1.0  0.0389166184559286  0.9019232683854594  0.026844831086897624  1.0000
  H   H22       1.0  0.5389170921516495  0.5980765113288911  0.9731549514558041  1.0000
  H   H23       1.0  0.9610829640148353  0.0980776086870421  0.973156405986309  1.0000
  H   H24       1.0  0.4610824903191144  0.4019235977964114  0.026844697288673593  1.0000
  H   H25       1.0  0.3703466582100106  0.8472170137067322  0.03704682212320172  1.0000
  H   H26       1.0  0.8703457669850536  0.6527835339548103  0.9629538130213293  1.0000
  H   H27       1.0  0.6296529242607536  0.15278386336576227  0.962953679223105  1.0000
  H   H28       1.0  0.1296538154857103  0.34721503927608666  0.03704560197328992  1.0000
  H   H29       1.0  0.892778238376856  0.8684814716717495  0.1844362672953253  1.0000
  H   H30       1.0  0.3927763997604572  0.6315183080425939  0.8155635152473764  1.0000
  H   H31       1.0  0.1072227090145859  0.13151863745354578  0.815564117176045  1.0000
  H   H32       1.0  0.6072231827103067  0.3684818010827015  0.184436869224001  1.0000
  H   H33       1.0  0.6252592445886977  0.8128352496203561  0.26952463249234176  1.0000
  H   H34       1.0  0.1252574059722917  0.6871652980411866  0.730476002652189  1.0000
  H   H35       1.0  0.3747417028027442  0.18716562745213844  0.7304758688539649  1.0000
  H   H36       1.0  0.8747435414191502  0.3128348110841088  0.2695243818191884  1.0000
  H   H37       1.0  0.2610151467433184  0.8798570735437536  0.1854016439432371  1.0000
  H   H38       1.0  0.7610142555183614  0.6201442420649954  0.8145991080762229  1.0000
  H   H39       1.0  0.7389844357274458  0.12014380352874098  0.8145988574030697  1.0000
  H   H40       1.0  0.2389853269524025  0.3798558670603072  0.1854012763951545  1.0000
  H   H41       1.0  0.4402565305688101  0.0605818187051028  0.5669282402476554  1.0000
  H   H42       1.0  0.940257004264538  0.4394186198311515  0.43307274615239777  1.0000
  H   H43       1.0  0.5597430519019468  0.9394182904201995  0.43307140849682924  1.0000
  H   H44       1.0  0.05974257820622601  0.5605807213469518  0.5669275214440432  1.0000
  C   C1        1.0  0.4010751175007741  0.8480387172106203  0.6813669930724799  1.0000
  C   C2        1.0  0.9010742262758172  0.6519610625037302  0.3186327894702218  1.0000
  C   C3        1.0  0.5989258298906678  0.15196139191468208  0.3186333913988975  1.0000
  C   C4        1.0  0.0989253561949468  0.3480390466215723  0.6813661235473559  1.0000
  C   C5        1.0  0.5333768791075784  0.8685813048077333  0.7636333327255542  1.0000
  C   C6        1.0  0.0333750404911726  0.6314184749066101  0.2363664498171474  1.0000
  C   C7        1.0  0.4666254332045483  0.1314188043175619  0.23636631601892333  1.0000
  C   C8        1.0  0.9666231770589064  0.3685808662714861  0.7636330820524009  1.0000
  C   C9        1.0  0.4805230555782246  0.8704005717242821  0.8588601800073761  1.0000
  C   C10       1.0  0.9805221643532678  0.6295999759372675  0.1411404551371547  1.0000
  C   C11       1.0  0.5194778918132172  0.1296003053482195  0.1411403213389306  1.0000
  C   C12       1.0  0.0194760531968186  0.37039936524082856  0.8588598124592934  1.0000
  C   C13       1.0  0.5974558103172569  0.8767630142753902  0.9462145982846409  1.0000
  C   C14       1.0  0.097455336621536  0.6232375333861597  0.05378530113299011  1.0000
  C   C15       1.0  0.40254377215350706  0.12323786279711159  0.0537859030616659  1.0000
  C   C16       1.0  0.9025456107699057  0.37676180779193646  0.946214966463458  1.0000
  C   C17       1.0  0.7878936384887822  0.8924775178267834  0.9442529139356779  1.0000
  C   C18       1.0  0.2878931647930614  0.6075230298347662  0.055746985481953004  1.0000
  C   C19       1.0  0.21210730890266666  0.107523359245711  0.0557468516837361  1.0000
  C   C20       1.0  0.7121064176777028  0.3924763113433372  0.9442525463875953  1.0000
  C   C21       1.0  0.8917722918349826  0.8904032924398706  0.029718576713634134  1.0000
  C   C22       1.0  0.3917704532185766  0.6095972552216722  0.9702813227039969  1.0000
  C   C23       1.0  0.1082286555564664  0.109597584632624  0.9702826603595724  1.0000
  C   C24       1.0  0.6082304941728653  0.3904028539036233  0.029718326040480712  1.0000
  C   C25       1.0  0.5168845425193709  0.8613602972871488  0.03613132655707574  1.0000
  C   C26       1.0  0.0168827039029651  0.6386410183215999  0.9638694254623914  1.0000
  C   C27       1.0  0.48311640487207813  0.13864057978534558  0.9638691747892382  1.0000
  C   C28       1.0  0.9831141487264363  0.3613567869620979  0.0361306083841981  1.0000
  C   C29       1.0  0.8101104524129923  0.8724555984311948  0.11829006504419942  1.0000
  C   C30       1.0  0.3101099787172714  0.6275457171775543  0.881709951248361  1.0000
  C   C31       1.0  0.1898891300577716  0.1275460465885061  0.8817105531770366  1.0000
  C   C32       1.0  0.6898896037534925  0.372453624000542  0.1182895806211874  1.0000
  C   C33       1.0  0.6199756366326454  0.858551914377145  0.12269037756046691  1.0000
  C   C34       1.0  0.11997379801624673  0.6414486332844049  0.877309521857164  1.0000
  C   C35       1.0  0.3800266756794812  0.1414489626953568  0.8773093880589471  1.0000
  C   C36       1.0  0.8800257844545172  0.3585507078936914  0.12269074573927699  1.0000
  C   C37       1.0  0.534957457256148  0.8391827501014575  0.21482790237777044  1.0000
  C   C38       1.0  0.034954253719057214  0.6608185655072845  0.7851721139147968  1.0000
  C   C39       1.0  0.4650434901353009  0.16081812697103703  0.7851725989685363  1.0000
  C   C40       1.0  0.965043963831022  0.3391815436180109  0.21482753482968056  1.0000
  C   C41       1.0  0.3556191640623041  0.8505844621782614  0.23616732340310884  1.0000
  C   C42       1.0  0.8556182728373471  0.6494168534304876  0.7638334286163584  1.0000
  C   C43       1.0  0.64438041840846  0.14941641489423318  0.763833177943198  1.0000
  C   C44       1.0  0.1443813096334168  0.350583255694815  0.23616622012812633  1.0000
  C   C45       1.0  0.2733308260477472  0.8308543627186253  0.3297905291277488  1.0000
  C   C46       1.0  0.7733299348227902  0.6691461849429174  0.6702093702898893  1.0000
  C   C47       1.0  0.7266701213436948  0.16914574640667007  0.6702083838898361  1.0000
  C   C48       1.0  0.2266710125686586  0.3308546921295772  0.3297911310564174  1.0000
  C   C49       1.0  0.2957987853772579  0.0654828577348141  0.544815101329263  1.0000
  C   C50       1.0  0.795797894152301  0.4345168128542339  0.4551842967420613  1.0000
  C   C51       1.0  0.7042007970935062  0.9345172513904814  0.4551845474152146  1.0000
  C   C52       1.0  0.2042030532391408  0.5654825283238623  0.5448159708543869  1.0000
  O   O1        1.0  0.2295032229816769  0.8453194161757975  0.6987224149874932  1.0000
  O   O2        1.0  0.7295023317567202  0.6546803635385459  0.3012781032821081  1.0000
  O   O3        1.0  0.7704977244097648  0.1546799250022985  0.3012778526089548  1.0000
  O   O4        1.0  0.270497250714044  0.3453197455867495  0.6987222811892693  1.0000
  O   O5        1.0  0.4614059765205027  0.8309695547986138  0.5918622098670596  1.0000
  O   O6        1.0  0.9614050852955458  0.6690302249157296  0.408137572675642  1.0000
  O   O7        1.0  0.5385936059502612  0.1690297863794825  0.40813732200248853  1.0000
  O   O8        1.0  0.0385944971752181  0.33096988420956547  0.5918628117957354  1.0000
  O   O9        1.0  0.10940658210414263  0.8618517834950765  0.3494352318688314  1.0000
  O   O10       1.0  0.6094070557998634  0.6381479962192669  0.65056528640077  1.0000
  O   O11       1.0  0.8905930003666214  0.1381475576830198  0.6505657714545094  1.0000
  O   O12       1.0  0.39059252667090055  0.3618513449588292  0.34943498119567823  1.0000
  O   O13       1.0  0.2012944072679872  0.9855358236153292  0.5297303282587791  1.0000
  O   O14       1.0  0.7012948809637081  0.5144631881518222  0.4702686016820934  1.0000
  O   O15       1.0  0.7987038102820918  0.014463517562774097  0.4702684678838693  1.0000
  O   O16       1.0  0.2987047015070559  0.48553692097348017  0.529731782789284  1.0000
  O   O17       1.0  0.2352932165103638  0.15485655285826988  0.5366093247788655  1.0000
  O   O18       1.0  0.7352936902060919  0.3451431177307781  0.4633908090193586  1.0000
  O   O19       1.0  0.764706365960393  0.8451435562670253  0.463390323965612  1.0000
  O   O20       1.0  0.264707257185357  0.6548562234473252  0.5366087228501897  1.0000
  O   O21       1.0  0.3604591727970359  0.7852559618306287  0.39213204118624395  1.0000
  O   O22       1.0  0.860459646492757  0.714743817883722  0.6078684770833577  1.0000
  O   O23       1.0  0.6395390447530431  0.21474414729467375  0.6078683432851334  1.0000
  O   O24       1.0  0.1395399359780072  0.2852555232943743  0.3921317905130906  1.0000
  O   O25       1.0  0.9286251502212792  0.9372695741548964  0.6676767055660093  1.0000
  O   O26       1.0  0.4286246765255513  0.562730205559447  0.3323238127035921  1.0000
  O   O27       1.0  0.0713757971701696  0.06272976702319968  0.3323235620304388  1.0000
  O   O28       1.0  0.5713762708658905  0.43726990356584844  0.6676765717677854  1.0000
