data_image0
_chemical_formula_structural       Cu4H48C24S4I4N8
_chemical_formula_sum              "Cu4 H48 C24 S4 I4 N8"
_cell_length_a       5.505746321183427
_cell_length_b       13.17025436545701
_cell_length_c       13.499634312226927
_cell_angle_alpha    89.99949461575828
_cell_angle_beta     89.99960866263248
_cell_angle_gamma    98.5716121589372

_space_group_name_H-M_alt    "P 1"
_space_group_IT_number       1

loop_
  _space_group_symop_operation_xyz
  'x, y, z'

loop_
  _atom_site_type_symbol
  _atom_site_label
  _atom_site_symmetry_multiplicity
  _atom_site_fract_x
  _atom_site_fract_y
  _atom_site_fract_z
  _atom_site_occupancy
  Cu  Cu1       1.0  0.7578785335634421  0.49673260093601357  0.4923307585667373  1.0000
  Cu  Cu2       1.0  0.7421390204854036  0.0032683419269616985  0.9923398684579394  1.0000
  Cu  Cu3       1.0  0.24213805399013918  0.5032752350533655  0.5076615187946628  1.0000
  Cu  Cu4       1.0  0.2578682501685209  0.9967341552423647  0.007665742635339297  1.0000
  H   H1        1.0  0.3079105816263591  0.5694650404365261  0.7174919965285793  1.0000
  H   H2        1.0  0.1920847688550252  0.9305292290546985  0.21749996619571013  1.0000
  H   H3        1.0  0.6921036459489187  0.43053665303898464  0.2825054661893772  1.0000
  H   H4        1.0  0.8079020122693307  0.0694672154232094  0.7825078672366741  1.0000
  H   H5        1.0  0.5660687790721184  0.5931198284106498  0.8790462644387629  1.0000
  H   H6        1.0  0.933904687789095  0.9068618490808331  0.37904337703601937  1.0000
  H   H7        1.0  0.4339312398297537  0.40688270472211485  0.12095119829595546  1.0000
  H   H8        1.0  0.0660646398127653  0.09312698915870501  0.620959271129976  1.0000
  H   H9        1.0  0.44609480279681424  0.7101697661348823  0.8574349577621374  1.0000
  H   H10       1.0  0.053882069420183004  0.7898247346158979  0.3574394012569612  1.0000
  H   H11       1.0  0.5539128059188343  0.2898288830278659  0.14256472726142985  1.0000
  H   H12       1.0  0.9460865821674815  0.21017179969178554  0.6425639876363574  1.0000
  H   H13       1.0  0.9670483733654788  0.6702295908291444  0.8251409170876511  1.0000
  H   H14       1.0  0.5329355562840803  0.8297487273323654  0.3251309890054371  1.0000
  H   H15       1.0  0.03295438642874867  0.3297706208833232  0.17486173097914554  1.0000
  H   H16       1.0  0.46703857725578496  0.17024316421904462  0.674865733053501  1.0000
  H   H17       1.0  0.8526966803084264  0.7902693896913461  0.8321925875509348  1.0000
  H   H18       1.0  0.6472988304164031  0.7097157240764529  0.33218044120695106  1.0000
  H   H19       1.0  0.14731088534369968  0.2097338752926702  0.16781228277767465  1.0000
  H   H20       1.0  0.3526728571928998  0.29027925669161897  0.6678140585592586  1.0000
  H   H21       1.0  0.029572268805836178  0.7164609167224114  0.565827631898962  1.0000
  H   H22       1.0  0.4704238269335973  0.7835479427651888  0.06582426203128479  1.0000
  H   H23       1.0  0.9704364768317998  0.28354541951669887  0.4341750161317676  1.0000
  H   H24       1.0  0.5295622782785186  0.21645619783218709  0.9341739414771265  1.0000
  H   H25       1.0  0.1912771169175541  0.7495365422605359  0.6773924946214718  1.0000
  H   H26       1.0  0.3087332307989853  0.7504572845417526  0.17739062871944355  1.0000
  H   H27       1.0  0.8087395135320462  0.2504666778232547  0.3226116349334446  1.0000
  H   H28       1.0  0.6912529604600621  0.24953762437276333  0.8226053525477679  1.0000
  H   H29       1.0  0.8758749599150802  0.8853518096491014  0.5665923411636768  1.0000
  H   H30       1.0  0.6241174214059768  0.614656744873514  0.06657592784886648  1.0000
  H   H31       1.0  0.12413559865874647  0.11465451759823958  0.4334125291468921  1.0000
  H   H32       1.0  0.3758789286401124  0.3853504221043948  0.9334141272623312  1.0000
  H   H33       1.0  0.018915585008869577  0.9163316050933188  0.6826343608282455  1.0000
  H   H34       1.0  0.4811112283895084  0.5836674727297293  0.18261719418240566  1.0000
  H   H35       1.0  0.9810980094992059  0.0836731685704137  0.31737050948490253  1.0000
  H   H36       1.0  0.5189021142639944  0.4163319173383754  0.817375083221499  1.0000
  H   H37       1.0  0.4332279477377766  0.9096462810320316  0.6094592178272932  1.0000
  H   H38       1.0  0.06678828968464497  0.5903458878495369  0.10945207686829407  1.0000
  H   H39       1.0  0.5667805459214889  0.09035467154912877  0.3905434302279075  1.0000
  H   H40       1.0  0.9332184341092286  0.40965045790579774  0.8905424228412213  1.0000
  H   H41       1.0  0.28587720380200904  0.9982059029067257  0.5417979419573766  1.0000
  H   H42       1.0  0.2141402780834767  0.5017961674470895  0.0417822794365534  1.0000
  H   H43       1.0  0.7141379086804704  0.001798093968872599  0.45820618759624654  1.0000
  H   H44       1.0  0.7858697336448656  0.49820400839359263  0.9582099979686374  1.0000
  H   H45       1.0  0.3000944099032876  0.87432749812514  0.49246306566448067  1.0000
  H   H46       1.0  0.1998875202166701  0.6256810133808273  0.9924526822397933  1.0000
  H   H47       1.0  0.699910752816251  0.12567424022126517  0.5075410639136279  1.0000
  H   H48       1.0  0.8001070598766375  0.37432154672726614  0.007538113655392898  1.0000
  C   C1        1.0  0.6143072148608084  0.6573662390219539  0.6557457842793041  1.0000
  C   C2        1.0  0.8856875063005345  0.8426237194293336  0.15574138918968566  1.0000
  C   C3        1.0  0.38569609190999893  0.3426401241631609  0.3442561229983524  1.0000
  C   C4        1.0  0.11430138280919518  0.15737348389715317  0.8442627404322277  1.0000
  C   C5        1.0  0.5613741089780006  0.6562982951012655  0.8266156791937858  1.0000
  C   C6        1.0  0.9386093676069577  0.8436930881730191  0.3266096401768478  1.0000
  C   C7        1.0  0.4386361976538636  0.34370264850644355  0.17338548733722794  1.0000
  C   C8        1.0  0.061365945874726394  0.15630187461149347  0.6733893041490473  1.0000
  C   C9        1.0  0.8194994196016907  0.7126036383516733  0.8006950930034545  1.0000
  C   C10       1.0  0.6805027392475721  0.7873832958405556  0.30068882208016834  1.0000
  C   C11       1.0  0.1805081891066749  0.28739501080740837  0.19930533278091633  1.0000
  C   C12       1.0  0.31947801310822393  0.21261164000162572  0.6993101222380033  1.0000
  C   C13       1.0  0.027075200659105327  0.7607914887705007  0.634784860473971  1.0000
  C   C14       1.0  0.47293227295268986  0.7392120094607576  0.13477743584750354  1.0000
  C   C15       1.0  0.9729356959400304  0.23921099045193017  0.3652177875709269  1.0000
  C   C16       1.0  0.5270596091588542  0.26078825616937706  0.865218545387499  1.0000
  C   C17       1.0  0.03551081336776455  0.8749159773340052  0.6126326261083432  1.0000
  C   C18       1.0  0.4644961679016219  0.6250900526172315  0.11261809952031139  1.0000
  C   C19       1.0  0.964498565227835  0.1250872786619013  0.3873737257393016  1.0000
  C   C20       1.0  0.5355071819909581  0.3749116947759459  0.8873726963658581  1.0000
  C   C21       1.0  0.276053151160724  0.9167769951220706  0.5610203229329825  1.0000
  C   C22       1.0  0.22395096702712888  0.5832241799977209  0.061008347383243185  1.0000
  C   C23       1.0  0.7239580404293305  0.08322625191139109  0.43898232510805  1.0000
  C   C24       1.0  0.7760490949455487  0.4167737373174418  0.9389831892856291  1.0000
  S   S1        1.0  0.5526102666962274  0.6386583777209224  0.5323589111169296  1.0000
  S   S2        1.0  0.9474118378787395  0.8613457560119854  0.032363800115526  1.0000
  S   S3        1.0  0.44741028471135275  0.36134559223800267  0.467640033103322  1.0000
  S   S4        1.0  0.05259121686270869  0.13865522348951487  0.9676432925122496  1.0000
  I   I1        1.0  0.955468403754189  0.4397307182371434  0.6591285800811375  1.0000
  I   I2        1.0  0.5445345795064965  0.0602705503555612  0.15913214339979478  1.0000
  I   I3        1.0  0.044548521773719985  0.5602732697016676  0.3408666603402324  1.0000
  I   I4        1.0  0.45545759752312864  0.939730483048933  0.8408712454394089  1.0000
  N   N1        1.0  0.4686287316701152  0.618035346089236  0.7301385562405256  1.0000
  N   N2        1.0  0.0313904856260692  0.8819648329690963  0.23014075807328985  1.0000
  N   N3        1.0  0.5313788340402681  0.38196791892411136  0.2698603880016249  1.0000
  N   N4        1.0  0.9685981515198491  0.11802698670675937  0.7698618900514801  1.0000
  N   N5        1.0  0.8152362072234284  0.7162462648282497  0.692007694279283  1.0000
  N   N6        1.0  0.6847792184270034  0.7837470749577164  0.19200292514126008  1.0000
  N   N7        1.0  0.184771401455805  0.28375238431616606  0.3079956945483174  1.0000
  N   N8        1.0  0.31521000873716076  0.21624628035851856  0.8079960191717461  1.0000
