data_image0
_chemical_formula_structural       Ag4H36C32N20Cl4O12
_chemical_formula_sum              "Ag4 H36 C32 N20 Cl4 O12"
_cell_length_a       7.66866070504573
_cell_length_b       13.09743134351445
_cell_length_c       13.350686005262519
_cell_angle_alpha    85.27879189365632
_cell_angle_beta     73.67107976067612
_cell_angle_gamma    72.97706455779635

_space_group_name_H-M_alt    "P 1"
_space_group_IT_number       1

loop_
  _space_group_symop_operation_xyz
  'x, y, z'

loop_
  _atom_site_type_symbol
  _atom_site_label
  _atom_site_symmetry_multiplicity
  _atom_site_fract_x
  _atom_site_fract_y
  _atom_site_fract_z
  _atom_site_occupancy
  Ag  Ag1       1.0  0.9137036561167377  0.5959531446812534  0.8327500199229759  1.0000
  Ag  Ag2       1.0  0.34212568393633785  0.40454495410818236  0.166849102242125  1.0000
  Ag  Ag3       1.0  0.25972846931750837  0.9040769574011807  0.33275368503728936  1.0000
  Ag  Ag4       1.0  0.4970751142081369  0.0954717340219489  0.6667626104578375  1.0000
  H   H1        1.0  0.10346425908093689  0.5163266922210639  0.01968438050323579  1.0000
  H   H2        1.0  0.6398193469916296  0.4832786921566594  0.9800904636669258  1.0000
  H   H3        1.0  0.3699139567058791  0.983641127460551  0.5195241051002454  1.0000
  H   H4        1.0  0.8733876356108397  0.0167132427116101  0.4800564998848387  1.0000
  H   H5        1.0  0.7610968387185082  0.0865517763356749  0.8348987188494591  1.0000
  H   H6        1.0  0.6822701145368342  0.9140221792239771  0.16526506761857007  1.0000
  H   H7        1.0  0.5971444956554564  0.4136757137664517  0.33506503455403447  1.0000
  H   H8        1.0  0.34653081990386164  0.5858801640875413  0.6650984613691193  1.0000
  H   H9        1.0  0.6034797512015047  0.2465145409269098  0.08549613840893504  1.0000
  H   H10       1.0  0.9325898065895397  0.7537000930895703  0.9150871658063265  1.0000
  H   H11       1.0  0.5998153357324013  0.2536051527122609  0.5855639632157832  1.0000
  H   H12       1.0  0.4364850294718607  0.7462813009614566  0.4149275525345359  1.0000
  H   H13       1.0  0.7317770522337242  0.11732726726256712  0.036440868353459194  1.0000
  H   H14       1.0  0.8836341351519436  0.8828274798300485  0.964321963815017  1.0000
  H   H15       1.0  0.5990145680284298  0.382778852007192  0.5364672510717057  1.0000
  H   H16       1.0  0.5166476673403081  0.6171235715128844  0.4641088083214768  1.0000
  H   H17       1.0  0.8413474427906354  0.3215161258802652  0.949736725457832  1.0000
  H   H18       1.0  0.11287675516820164  0.6783743202550383  0.050603864666875595  1.0000
  H   H19       1.0  0.912565778681611  0.17849816677290423  0.4497200081982555  1.0000
  H   H20       1.0  0.5413662395296864  0.8215128517024369  0.5505366635614451  1.0000
  H   H21       1.0  0.9720518305224244  0.19022083249595312  0.9074018535628169  1.0000
  H   H22       1.0  0.07082784960951467  0.809587368930579  0.0932157834543403  1.0000
  H   H23       1.0  0.9120074782237994  0.3097695053876706  0.4072909485576162  1.0000
  H   H24       1.0  0.6304234672453288  0.6902886241344461  0.5931355714308991  1.0000
  H   H25       1.0  0.013053918381011373  0.1423943366068698  0.08895302325834112  1.0000
  H   H26       1.0  0.24176962172622746  0.8577300677776591  0.9116563410385368  1.0000
  H   H27       1.0  0.9053265185476038  0.3577109841705736  0.5887933030522277  1.0000
  H   H28       1.0  0.8499225384161093  0.6422026182419529  0.4116679695242452  1.0000
  H   H29       1.0  0.10819088453557407  0.24948173838123472  0.035155153367078584  1.0000
  H   H30       1.0  0.39114770155927664  0.7505875700333464  0.9654562603372908  1.0000
  H   H31       1.0  0.10753775623539484  0.2505908442111675  0.5350415455417163  1.0000
  H   H32       1.0  0.8918783582401275  0.7493594888480004  0.4656123504055927  1.0000
  H   H33       1.0  0.887935836228337  0.2749017413301615  0.13112067564654234  1.0000
  H   H34       1.0  0.2903470556720435  0.7252729680704136  0.8693883517425434  1.0000
  H   H35       1.0  0.9127089229859776  0.2252291312014663  0.6310248748115938  1.0000
  H   H36       1.0  0.7660732062703491  0.7746669043800622  0.3694097578862525  1.0000
  C   C1        1.0  0.19156412780049686  0.4504878066187032  0.9668379959314066  1.0000
  C   C2        1.0  0.6095123630269583  0.5493227902847835  0.032818317294612584  1.0000
  C   C3        1.0  0.39211031592483914  0.0495177026189708  0.4667312275414233  1.0000
  C   C4        1.0  0.9091182702533085  0.9506554097969657  0.5327763371053535  1.0000
  C   C5        1.0  0.43433467343465537  0.3010411858577626  0.9316615023770041  1.0000
  C   C6        1.0  0.6673767914279338  0.6989139381553146  0.06836098985761653  1.0000
  C   C7        1.0  0.48521417403092215  0.19905056055027612  0.43167994857308395  1.0000
  C   C8        1.0  0.11654871508623882  0.8010450981107979  0.5683021365164791  1.0000
  C   C9        1.0  0.3922644495787322  0.2840085462188853  0.8385739919419493  1.0000
  C   C10       1.0  0.5159894956119827  0.7161166566579595  0.16093212194779477  1.0000
  C   C11       1.0  0.42622527457044856  0.2160855956661081  0.3385618245646924  1.0000
  C   C12       1.0  0.9823753105345002  0.7838351931772891  0.6608762796076775  1.0000
  C   C13       1.0  0.24330180529469214  0.3622456220454637  0.8133984102845772  1.0000
  C   C14       1.0  0.42043294636788886  0.6379674149863845  0.18563392222270644  1.0000
  C   C15       1.0  0.35559572909123466  0.1378197741160747  0.31332091297018383  1.0000
  C   C16       1.0  0.808634207588618  0.8619724574640912  0.6855744261862354  1.0000
  C   C17       1.0  0.6369718234239417  0.1564893230072002  0.8508701030971011  1.0000
  C   C18       1.0  0.6444497122714736  0.8438466818416472  0.14922043395521453  1.0000
  C   C19       1.0  0.5430535224538531  0.34370622740220114  0.3510049426605093  1.0000
  C   C20       1.0  0.23853349544173616  0.6560532659929237  0.649063305773815  1.0000
  C   C21       1.0  0.6983336516802227  0.2021702700373638  0.01495647087599391  1.0000
  C   C22       1.0  0.9139967304549047  0.7979605222857061  0.9857139321448968  1.0000
  C   C23       1.0  0.6502892738883614  0.297932655263125  0.5150056727085895  1.0000
  C   C24       1.0  0.46214233270077854  0.7019809471494015  0.48553385642799185  1.0000
  C   C25       1.0  0.8780635135699485  0.2381766841405835  0.9760337263316288  1.0000
  C   C26       1.0  0.0918280860125264  0.761798402180446  0.024510929189617066  1.0000
  C   C27       1.0  0.8660076683586411  0.2618551753435909  0.4759648264973322  1.0000
  C   C28       1.0  0.603782170536803  0.7380879712847133  0.524410381754862  1.0000
  C   C29       1.0  0.9769622785696513  0.2256914582536851  0.06248740986846713  1.0000
  C   C30       1.0  0.2629493383699497  0.7744225657307027  0.9380535378627215  1.0000
  C   C31       1.0  0.9525272365052616  0.2744026836313083  0.5623669406640204  1.0000
  C   C32       1.0  0.7876813401254593  0.7254925534579117  0.438086506183339  1.0000
  N   N1        1.0  0.1445747419425489  0.4445318524174766  0.8780332068835576  1.0000
  N   N2        1.0  0.4684379992255927  0.5554647931961441  0.1211359227688504  1.0000
  N   N3        1.0  0.33923449768126807  0.05548962666656371  0.3779034762693668  1.0000
  N   N4        1.0  0.7741685334206917  0.9444974370392387  0.6210879388819065  1.0000
  N   N5        1.0  0.3348106016280354  0.38215443101438507  0.9977779740573708  1.0000
  N   N6        1.0  0.7147664339571378  0.6176905010587816  0.00222029572586276  1.0000
  N   N7        1.0  0.46686673569954723  0.11789259982383271  0.4977444376945924  1.0000
  N   N8        1.0  0.08272340023004426  0.8822797140997808  0.5021787782894762  1.0000
  N   N9        1.0  0.6497502014734878  0.4909538003189056  0.7526810676385338  1.0000
  N   N10       1.0  0.8940148688100182  0.5084272077174106  0.24741120132858196  1.0000
  N   N11       1.0  0.8906228333053575  0.008964673256088  0.2527041674560877  1.0000
  N   N12       1.0  0.1527069096825639  0.9915110677484338  0.7472973515860772  1.0000
  N   N13       1.0  0.5204339995206198  0.1924797672640608  0.7903811992069691  1.0000
  N   N14       1.0  0.504234764869075  0.8078578345694183  0.20919137368774435  1.0000
  N   N15       1.0  0.46267625632321363  0.307667873606249  0.2904503090113267  1.0000
  N   N16       1.0  0.062355187545506466  0.6920588816038277  0.7090931141818259  1.0000
  N   N17       1.0  0.5901192393272935  0.21848586357452152  0.9375217649048793  1.0000
  N   N18       1.0  0.7459521985321301  0.781585840317007  0.06288411387427562  1.0000
  N   N19       1.0  0.5582391451559944  0.281668963726645  0.4376311757408687  1.0000
  N   N20       1.0  0.2777482899845367  0.7183324728408849  0.5627405962164075  1.0000
  Cl  Cl1       1.0  0.18238075990593933  0.3576479032774387  0.7006476349614273  1.0000
  Cl  Cl2       1.0  0.24237367227811296  0.6431033175768519  0.29753691113109676  1.0000
  Cl  Cl3       1.0  0.2899830086087931  0.1425021330698186  0.20061086812323484  1.0000
  Cl  Cl4       1.0  0.6356497079847471  0.8568381518582628  0.7974518393932897  1.0000
  O   O1        1.0  0.5505184191108866  0.4698033357952269  0.7000081876495868  1.0000
  O   O2        1.0  0.7220380044335643  0.5292263356210896  0.30004908318564105  1.0000
  O   O3        1.0  0.7703681395937069  0.030121525718314505  0.19994554830428513  1.0000
  O   O4        1.0  0.0015325295817658808  0.9707654388300713  0.8000210166308861  1.0000
  O   O5        1.0  0.6920968667727155  0.5795664853277742  0.7375399060060132  1.0000
  O   O6        1.0  0.01057362315123801  0.4198863870171721  0.2623005883465623  1.0000
  O   O7        1.0  0.02141325620677747  0.9202791650291573  0.23772576967118642  1.0000
  O   O8        1.0  0.18090120959717365  0.08000813178827572  0.7621634553670233  1.0000
  O   O9        1.0  0.707082574754729  0.4250973478855471  0.8190718008295903  1.0000
  O   O10       1.0  0.950195426088122  0.5745958706471725  0.18127593118669688  1.0000
  O   O11       1.0  0.8821448328904393  0.0748834080902654  0.31902180684750897  1.0000
  O   O12       1.0  0.2748729218485053  0.9253352183878081  0.6810993205710928  1.0000
