data_image0
_chemical_formula_structural       Li6H10C18O14
_chemical_formula_sum              "Li6 H10 C18 O14"
_cell_length_a       7.359359305540459
_cell_length_b       8.005316190449161
_cell_length_c       9.425175751379467
_cell_angle_alpha    106.45270387127573
_cell_angle_beta     109.27887433604442
_cell_angle_gamma    104.32250138265711

_space_group_name_H-M_alt    "P 1"
_space_group_IT_number       1

loop_
  _space_group_symop_operation_xyz
  'x, y, z'

loop_
  _atom_site_type_symbol
  _atom_site_label
  _atom_site_symmetry_multiplicity
  _atom_site_fract_x
  _atom_site_fract_y
  _atom_site_fract_z
  _atom_site_occupancy
  Li  Li1       1.0  0.49993197427484387  0.5013069847664368  0.3591678140176881  1.0000
  Li  Li2       1.0  0.5000673240664213  0.49869544449369135  0.6408322851193233  1.0000
  Li  Li3       1.0  0.32468517309380457  0.8405970345019751  0.04357441646658325  1.0000
  Li  Li4       1.0  0.6753143967631771  0.15940256833777508  0.9564271807059085  1.0000
  Li  Li5       1.0  0.3786253142123286  0.23053754647872893  0.0917638744760794  1.0000
  Li  Li6       1.0  0.6213742475587836  0.7694620607917172  0.9082366607200496  1.0000
  H   H1        1.0  0.048597230452792094  0.7812900470638056  0.14968393356198104  1.0000
  H   H2        1.0  0.9514040797860233  0.218713791429721  0.8503148973112713  1.0000
  H   H3        1.0  0.9242249226518952  0.6312852059709613  0.521463108246543  1.0000
  H   H4        1.0  0.07577513363541043  0.3687087750429328  0.4785340511623487  1.0000
  H   H5        1.0  0.3984813080659322  0.1599705909754547  0.6574410042731387  1.0000
  H   H6        1.0  0.6015153793834783  0.8400290275049753  0.34255880728252197  1.0000
  H   H7        1.0  0.10326031896882878  0.33012852496382544  0.17038457032361976  1.0000
  H   H8        1.0  0.8967392347164063  0.6698710867373234  0.8296149028961393  1.0000
  H   H9        1.0  0.19376391899159273  0.45570024094979533  0.08365928876197157  1.0000
  H   H10       1.0  0.8062342056186722  0.544299371925639  0.9163408846139232  1.0000
  C   C1        1.0  0.3440264382277363  0.12518757864688718  0.3460080028532744  1.0000
  C   C2        1.0  0.6559714391244283  0.8748148473568307  0.6539938584162355  1.0000
  C   C3        1.0  0.7892821857004293  0.5116331073155252  0.18967546860925916  1.0000
  C   C4        1.0  0.21071940413997234  0.48836790032693495  0.8103259222758438  1.0000
  C   C5        1.0  0.2234870964185163  0.9422197511073662  0.7855522365910302  1.0000
  C   C6        1.0  0.776513894427573  0.05777985498879449  0.21444759844896305  1.0000
  C   C7        1.0  0.2382395773840926  0.9847899499341748  0.3981252300341039  1.0000
  C   C8        1.0  0.7617605672095845  0.0152110677439694  0.601874737054402  1.0000
  C   C9        1.0  0.0851143275312439  0.8125581302215181  0.27827660620553724  1.0000
  C   C10       1.0  0.9148852342398682  0.18744147704892808  0.7217239289905918  1.0000
  C   C11       1.0  0.9679501212039625  0.68628039692382  0.3206718928811227  1.0000
  C   C12       1.0  0.032054334872270836  0.3137206039393519  0.6793291596680786  1.0000
  C   C13       1.0  0.013394614741933812  0.7285085039251626  0.4861541774455062  1.0000
  C   C14       1.0  0.9866072385283144  0.2714896817276155  0.5138476494987072  1.0000
  C   C15       1.0  0.17220687712380567  0.8966778656205958  0.6077834956535069  1.0000
  C   C16       1.0  0.8277958062271012  0.10331891731159709  0.3922160752894611  1.0000
  C   C17       1.0  0.2806294938648719  0.026121909092943  0.5627103356269884  1.0000
  C   C18       1.0  0.7193714969812176  0.9738776970032176  0.4372894994130049  1.0000
  O   O1        1.0  0.4316474582891984  0.2985168292802384  0.44316408571322785  1.0000
  O   O2        1.0  0.5683498038969077  0.7014842040385857  0.5568340957584466  1.0000
  O   O3        1.0  0.33577916396303914  0.06417237772335228  0.20290274363269836  1.0000
  O   O4        1.0  0.6642209968023778  0.9358286310933934  0.7970993474085332  1.0000
  O   O5        1.0  0.7914225685602219  0.4401704732182237  0.050983234364551266  1.0000
  O   O6        1.0  0.2085755479641662  0.5598291440879208  0.9490158770349735  1.0000
  O   O7        1.0  0.6435441742895591  0.4419909495791288  0.22526977195995096  1.0000
  O   O8        1.0  0.3564579902875379  0.5580114729017182  0.774729988841166  1.0000
  O   O9        1.0  0.11893282979550435  0.8302832950643974  0.8271360083332551  1.0000
  O   O10       1.0  0.8810655259011142  0.16971351354416692  0.17286035319629175  1.0000
  O   O11       1.0  0.37633085263307453  0.0961923133078315  0.8900608680604803  1.0000
  O   O12       1.0  0.6236701543847546  0.9038072839269303  0.10994109093224581  1.0000
  O   O13       1.0  0.2292368936354237  0.3923575076320772  0.16014971046514853  1.0000
  O   O14       1.0  0.7707632590441235  0.6076435056153641  0.8398513185997201  1.0000
