data_image0
_chemical_formula_structural       Ag4H8C16N16
_chemical_formula_sum              "Ag4 H8 C16 N16"
_cell_length_a       6.881091233797905
_cell_length_b       7.591387522507249
_cell_length_c       10.440467339746084
_cell_angle_alpha    81.41828969633255
_cell_angle_beta     70.78283129358168
_cell_angle_gamma    63.05188780323346

_space_group_name_H-M_alt    "P 1"
_space_group_IT_number       1

loop_
  _space_group_symop_operation_xyz
  'x, y, z'

loop_
  _atom_site_type_symbol
  _atom_site_label
  _atom_site_symmetry_multiplicity
  _atom_site_fract_x
  _atom_site_fract_y
  _atom_site_fract_z
  _atom_site_occupancy
  Ag  Ag1       1.0  0.5246077239979243  0.7500342661620466  0.45057212572847055  1.0000
  Ag  Ag2       1.0  0.7251486565432117  0.750001517350654  0.049506142814031796  1.0000
  Ag  Ag3       1.0  0.4753903140130761  0.24996539631124648  0.5494238751014535  1.0000
  Ag  Ag4       1.0  0.2748467399248042  0.249998144918564  0.9504940217638733  1.0000
  H   H1        1.0  0.9211561086116474  0.9306888992733349  0.46845422448399887  1.0000
  H   H2        1.0  0.14822568875813893  0.9305920487486571  0.03155076030257223  1.0000
  H   H3        1.0  0.3206310181437858  0.569300977815267  0.03150073276530212  1.0000
  H   H4        1.0  0.11009528100307615  0.5692552816744723  0.4685859115430162  1.0000
  H   H5        1.0  0.07885063900450717  0.06930632988996879  0.5315460505160274  1.0000
  H   H6        1.0  0.8517790645128615  0.0694090914226635  0.9684485579444556  1.0000
  H   H7        1.0  0.6793711430068183  0.4306957291327221  0.9684972365354979  1.0000
  H   H8        1.0  0.8899030707314852  0.430738469638122  0.531414253166183  1.0000
  C   C1        1.0  0.011742332853792475  0.8524197198048283  0.3722472260647436  1.0000
  C   C2        1.0  0.1360850407777221  0.8524047117520582  0.12777553742720468  1.0000
  C   C3        1.0  0.2364704178102316  0.6473846315587294  0.12778937591366457  1.0000
  C   C4        1.0  0.11631987728441837  0.6473937803590741  0.3722984271476903  1.0000
  C   C5        1.0  0.9882691850997956  0.14757846504526378  0.6277498969051791  1.0000
  C   C6        1.0  0.8639122775330674  0.14759495061993277  0.8722227139072983  1.0000
  C   C7        1.0  0.7635237765152143  0.3526150307090247  0.8722104514030633  1.0000
  C   C8        1.0  0.8836911964596652  0.35260144890993667  0.6277006091312813  1.0000
  C   C9        1.0  0.020787508608719942  0.9586291507307789  0.25000666477649247  1.0000
  C   C10       1.0  0.22943068858412383  0.5412033026841029  0.2500459354470337  1.0000
  C   C11       1.0  0.9792158204149499  0.04137051164853739  0.7499932728638896  1.0000
  C   C12       1.0  0.7705656688052828  0.4587963596365012  0.749953272509174  1.0000
  C   C13       1.0  0.9129253424445591  0.17430919292122127  0.24999592177936586  1.0000
  C   C14       1.0  0.33733950933915224  0.3255494430293169  0.24997531791322564  1.0000
  C   C15       1.0  0.08707852240743105  0.8256860360879372  0.750007223085767  1.0000
  C   C16       1.0  0.6626629464185922  0.6744428305984298  0.7500245647294504  1.0000
  N   N1        1.0  0.7697480436799894  0.2891135745268869  0.3602893358178677  1.0000
  N   N2        1.0  0.9412141945441943  0.2891779852513067  0.1397112039566367  1.0000
  N   N3        1.0  0.4192829797829276  0.21075167259942157  0.13966824887084073  1.0000
  N   N4        1.0  0.3701305810853981  0.21080112277140725  0.3603022888248546  1.0000
  N   N5        1.0  0.23025193925357704  0.7108846099576523  0.6397131344592709  1.0000
  N   N6        1.0  0.058785807505799606  0.710818721392769  0.8602935168578938  1.0000
  N   N7        1.0  0.5807216390387779  0.7892406010811753  0.8603310144113082  1.0000
  N   N8        1.0  0.6298698994436196  0.7891955840238934  0.6396988876022291  1.0000
  N   N9        1.0  0.7113293631046105  0.4759124029138773  0.31607746136539566  1.0000
  N   N10       1.0  0.8128894403208379  0.4759471809207837  0.18396287504460676  1.0000
  N   N11       1.0  0.5033385932741224  0.02398715522218  0.18395306306756257  1.0000
  N   N12       1.0  0.47276367806819747  0.024016821524376997  0.3160900924711498  1.0000
  N   N13       1.0  0.288666052479833  0.5240857815148771  0.6839249537499157  1.0000
  N   N14       1.0  0.18710671408025084  0.5240495257688165  0.8160395401035245  1.0000
  N   N15       1.0  0.4966612018242031  0.976006596041955  0.8160487327856886  1.0000
  N   N16       1.0  0.5272353782134901  0.9759784074789123  0.6839117033492812  1.0000
