data_image0
_chemical_formula_structural       Cd2H16C12N8Cl4
_chemical_formula_sum              "Cd2 H16 C12 N8 Cl4"
_cell_length_a       3.892309344853831
_cell_length_b       9.660867976260448
_cell_length_c       13.101394936018371
_cell_angle_alpha    90.00008560292643
_cell_angle_beta     90.00016829178809
_cell_angle_gamma    92.802532561963

_space_group_name_H-M_alt    "P 1"
_space_group_IT_number       1

loop_
  _space_group_symop_operation_xyz
  'x, y, z'

loop_
  _atom_site_type_symbol
  _atom_site_label
  _atom_site_symmetry_multiplicity
  _atom_site_fract_x
  _atom_site_fract_y
  _atom_site_fract_z
  _atom_site_occupancy
  Cd  Cd1       1.0  0.9999995434207064  0.9999992783906183  0.9999998429168996  1.0000
  Cd  Cd2       1.0  0.9999960223572871  0.499999018523269  0.5000001417765104  1.0000
  H   H1        1.0  0.6891373690027223  0.7935264973244787  0.8081146830635288  1.0000
  H   H2        1.0  0.3108537878745707  0.706474715962756  0.3081165657383237  1.0000
  H   H3        1.0  0.3108671628112134  0.20647172712794776  0.19188515985499063  1.0000
  H   H4        1.0  0.6891357787711953  0.2935266703068394  0.6918855670078301  1.0000
  H   H5        1.0  0.7990762678834216  0.833377169384079  0.6173663624158721  1.0000
  H   H6        1.0  0.2009211164723581  0.6666266960853947  0.11736734170764149  1.0000
  H   H7        1.0  0.20092327553728498  0.16662210900653923  0.3826334805010205  1.0000
  H   H8        1.0  0.7990790174271892  0.3333767275287586  0.8826332644892645  1.0000
  H   H9        1.0  0.1818909931501835  0.05679593037584853  0.5871291943467156  1.0000
  H   H10       1.0  0.818111337177065  0.4432053396675288  0.08712720114971259  1.0000
  H   H11       1.0  0.8181059822645267  0.9432033568310275  0.41287064856905425  1.0000
  H   H12       1.0  0.18189620549527066  0.5567959848847723  0.9128718784943143  1.0000
  H   H13       1.0  0.3120805790189181  0.15985003900726721  0.782552773003111  1.0000
  H   H14       1.0  0.6879207068844266  0.34014857176725855  0.2825513165739295  1.0000
  H   H15       1.0  0.6879188167830321  0.8401482030776822  0.21744706991316318  1.0000
  H   H16       1.0  0.3120812569235198  0.6598496615014255  0.7174485263434673  1.0000
  C   C1        1.0  0.8407683234174145  0.8791712291898437  0.7750213736681103  1.0000
  C   C2        1.0  0.1592276364755278  0.6208298918144595  0.2750237931013472  1.0000
  C   C3        1.0  0.1592363560114336  0.12082803156738463  0.22497770597354355  1.0000
  C   C4        1.0  0.8407669185634673  0.37917044051693694  0.7249783396464267  1.0000
  C   C5        1.0  0.09945465110084939  0.018003640692832303  0.6612090349451305  1.0000
  C   C6        1.0  0.9005485722726051  0.481998832764532  0.1612079197509857  1.0000
  C   C7        1.0  0.9005450399386062  0.9819966740034548  0.33879080797239414  1.0000
  C   C8        1.0  0.09945897039973059  0.5180024917877759  0.8387911598930484  1.0000
  C   C9        1.0  0.1611918874672114  0.06902899844162387  0.7578026209812876  1.0000
  C   C10       1.0  0.8388121602529282  0.43097265660317424  0.25780139603627106  1.0000
  C   C11       1.0  0.8388102239594841  0.9309702711327291  0.24219722193673476  1.0000
  C   C12       1.0  0.161192666794669  0.56902764045973  0.7421976836060081  1.0000
  N   N1        1.0  0.9983809389974992  0.9815358977544977  0.8278777023706139  1.0000
  N   N2        1.0  0.0016154051230615365  0.5184643061723054  0.32787681876614977  1.0000
  N   N3        1.0  0.0016237404351855  0.018463363003590402  0.1721221405485309  1.0000
  N   N4        1.0  0.9983790022895034  0.48153498985170284  0.6721237874259957  1.0000
  N   N5        1.0  0.8985382333209627  0.8977888553775133  0.6741168867280578  1.0000
  N   N6        1.0  0.10146199484672282  0.6022130566796379  0.17411694522662202  1.0000
  N   N7        1.0  0.1014664461117221  0.10221040538058193  0.32588295619109425  1.0000
  N   N8        1.0  0.8985402641987222  0.39778724920039105  0.8258828976920256  1.0000
  Cl  Cl1       1.0  0.5225178874525156  0.20011405576602206  0.9913306561439653  1.0000
  Cl  Cl2       1.0  0.4774803632615773  0.2998850435989128  0.4913312604209352  1.0000
  Cl  Cl3       1.0  0.47748407635543083  0.7998841775026692  0.0086691867734316  1.0000
  Cl  Cl4       1.0  0.5225141917697371  0.7001152887307569  0.5086693457718353  1.0000
