data_image0
_chemical_formula_structural       Cu2H18C32N6Cl2O8
_chemical_formula_sum              "Cu2 H18 C32 N6 Cl2 O8"
_cell_length_a       9.241980158664385
_cell_length_b       10.204710935959257
_cell_length_c       12.3686100176438
_cell_angle_alpha    106.183967335848
_cell_angle_beta     94.04208803985038
_cell_angle_gamma    117.49632719290784

_space_group_name_H-M_alt    "P 1"
_space_group_IT_number       1

loop_
  _space_group_symop_operation_xyz
  'x, y, z'

loop_
  _atom_site_type_symbol
  _atom_site_label
  _atom_site_symmetry_multiplicity
  _atom_site_fract_x
  _atom_site_fract_y
  _atom_site_fract_z
  _atom_site_occupancy
  Cu  Cu1       1.0  0.35720499201163136  0.0260186307263552  0.4283348589047406  1.0000
  Cu  Cu2       1.0  0.6427959855473732  0.9739827459533432  0.5716655227476082  1.0000
  H   H1        1.0  0.4113077524584626  0.2688057479892977  0.3053013742383683  1.0000
  H   H2        1.0  0.5886879636296671  0.7311896968754186  0.6946997934798489  1.0000
  H   H3        1.0  0.35334066577174644  0.49567283869529893  0.3401555182450124  1.0000
  H   H4        1.0  0.6466556617613506  0.5043237858531456  0.6598427189128273  1.0000
  H   H5        1.0  0.22756330997702193  0.5565256560040057  0.5014325475934597  1.0000
  H   H6        1.0  0.7724341127916077  0.4434709846397454  0.4985673671944113  1.0000
  H   H7        1.0  0.01652134937781113  0.2872230882595589  0.7798260290478538  1.0000
  H   H8        1.0  0.9834735479758479  0.7127770289091373  0.2201745550402308  1.0000
  H   H9        1.0  0.0045089049095353015  0.0466611120308329  0.8069737151866929  1.0000
  H   H10       1.0  0.9954805906034924  0.9533307289377507  0.19302549081717052  1.0000
  H   H11       1.0  0.07634511762222483  0.8290541725552532  0.74215906747105  1.0000
  H   H12       1.0  0.9236536715849368  0.1709471721193339  0.25783957607138314  1.0000
  H   H13       1.0  0.2248069088015399  0.8199167267439478  0.5812983306877442  1.0000
  H   H14       1.0  0.7751991972758817  0.1800882380148252  0.41870476077414037  1.0000
  H   H15       1.0  0.6794187978252851  0.1779813777855139  0.19676577127374628  1.0000
  H   H16       1.0  0.32059195509919663  0.8220283388262644  0.8032370389574267  1.0000
  H   H17       1.0  0.20119109944199923  0.8032840334214199  0.9778705312578069  1.0000
  H   H18       1.0  0.7988167101370823  0.19672212683813237  0.02212888154851101  1.0000
  C   C1        1.0  0.35207481657835876  0.2978689808759185  0.37414086914828454  1.0000
  C   C2        1.0  0.6479204199576571  0.7021276279482224  0.6258589246798179  1.0000
  C   C3        1.0  0.3206531808068576  0.4234183452927454  0.3946055417198693  1.0000
  C   C4        1.0  0.6793392516938965  0.5765770514715669  0.6053922102584081  1.0000
  C   C5        1.0  0.24931608446760126  0.4578888775162612  0.4853601685304767  1.0000
  C   C6        1.0  0.7506779207015768  0.5421053711984385  0.5146390178177994  1.0000
  C   C7        1.0  0.2039344068768543  0.3632172959352005  0.5554805836080803  1.0000
  C   C8        1.0  0.7960602139757429  0.6367781328342161  0.44451890648010556  1.0000
  C   C9        1.0  0.12601373223690623  0.3783566560197755  0.6522575991765649  1.0000
  C   C10       1.0  0.8739824591648855  0.6216376245145342  0.34774170813147254  1.0000
  C   C11       1.0  0.08232382687383932  0.2753600907464602  0.7113538429718033  1.0000
  C   C12       1.0  0.9176697008624475  0.7246353221131515  0.2886455866364983  1.0000
  C   C13       1.0  0.11577752199836061  0.14852078611868794  0.6816603487300839  1.0000
  C   C14       1.0  0.8842142969381968  0.8514734307763946  0.3183387166584239  1.0000
  C   C15       1.0  0.07136010082881232  0.0375454881571571  0.7386486163075573  1.0000
  C   C16       1.0  0.9286306239318309  0.9624487127353735  0.2613495800259928  1.0000
  C   C17       1.0  0.10963903809116006  0.9189329606534784  0.7027509485184423  1.0000
  C   C18       1.0  0.8903630315245434  0.08106843184327062  0.2972486850387098  1.0000
  C   C19       1.0  0.19130685163530367  0.9107509018266101  0.6112934275089614  1.0000
  C   C20       1.0  0.8087009579437776  0.0892552584329422  0.3887059852973636  1.0000
  C   C21       1.0  0.1959044356487212  0.13092432951206232  0.5900569188197906  1.0000
  C   C22       1.0  0.8040970214623968  0.869075883208211  0.4099448367226656  1.0000
  C   C23       1.0  0.2391069526929357  0.23729314904268511  0.5272311939352434  1.0000
  C   C24       1.0  0.7608910857591197  0.7627046716557898  0.47276902459254433  1.0000
  C   C25       1.0  0.35964654421538716  0.978409271619846  0.20101884976399026  1.0000
  C   C26       1.0  0.6403567557075435  0.021594480893597303  0.798980582697922  1.0000
  C   C27       1.0  0.4335142542943089  0.9901425366088006  0.09767707155602076  1.0000
  C   C28       1.0  0.5664936935352998  0.0098659678503878  0.9023228882502462  1.0000
  C   C29       1.0  0.6018699634982384  0.1005907215497217  0.11008677305238017  1.0000
  C   C30       1.0  0.39813921887705567  0.8994201432971637  0.8899162199589412  1.0000
  C   C31       1.0  0.3316161924163127  0.8893916188567204  0.9867040783246708  1.0000
  C   C32       1.0  0.6683933302009493  0.11061573773835678  0.013298933001742293  1.0000
  N   N1        1.0  0.3128879398888458  0.2081493480011716  0.43950299664387416  1.0000
  N   N2        1.0  0.6871077730204433  0.7918460965853029  0.5604957453491224  1.0000
  N   N3        1.0  0.2321547370388118  0.013151876499740903  0.5558820840852192  1.0000
  N   N4        1.0  0.7678495188095057  0.986849547816618  0.44411767043170153  1.0000
  N   N5        1.0  0.08570851778091533  0.50485845542061  0.6932129980247267  1.0000
  N   N6        1.0  0.9142906116682141  0.4951393810021685  0.3067856638327981  1.0000
  Cl  Cl1       1.0  0.3525873733747603  0.7931028565281438  0.40409852387918477  1.0000
  Cl  Cl2       1.0  0.6474181159596241  0.20690092808315796  0.5959034552677095  1.0000
  O   O1        1.0  0.4674534941872325  0.0563485040207041  0.3011201502853281  1.0000
  O   O2        1.0  0.532549053920974  0.943651724423873  0.6988800485868651  1.0000
  O   O3        1.0  0.20441700846459554  0.9006157361689449  0.18867916019674164  1.0000
  O   O4        1.0  0.7955847793519837  0.09938096746478213  0.8113153364851583  1.0000
  O   O5        1.0  0.08869652348627  0.5812764113548994  0.6296241352939234  1.0000
  O   O6        1.0  0.9112940609046163  0.41871544515249337  0.3703718968895372  1.0000
  O   O7        1.0  0.05161995400492699  0.5300684077672314  0.7891088824096285  1.0000
  O   O8        1.0  0.9483883372454969  0.4699365887184043  0.2108935214369509  1.0000
