data_image0
_chemical_formula_structural       Al2H4C20S2O10F6
_chemical_formula_sum              "Al2 H4 C20 S2 O10 F6"
_cell_length_a       6.638550998232805
_cell_length_b       11.166374171064964
_cell_length_c       12.72156612075919
_cell_angle_alpha    83.82923387504795
_cell_angle_beta     75.07714190000969
_cell_angle_gamma    73.49788504499939

_space_group_name_H-M_alt    "P 1"
_space_group_IT_number       1

loop_
  _space_group_symop_operation_xyz
  'x, y, z'

loop_
  _atom_site_type_symbol
  _atom_site_label
  _atom_site_symmetry_multiplicity
  _atom_site_fract_x
  _atom_site_fract_y
  _atom_site_fract_z
  _atom_site_occupancy
  Al  Al1       1.0  0.5031639429379455  0.49498884456263426  0.5152762464768443  1.0000
  Al  Al2       1.0  0.0021312901794416925  0.4996479036898336  0.5131671212063864  1.0000
  H   H1        1.0  0.2819283641069105  0.3521293183700677  0.5842931344496237  1.0000
  H   H2        1.0  0.7672837963820882  0.5844771752918875  0.3910121123381031  1.0000
  H   H3        1.0  0.2836788780763726  0.47170890161839923  0.8613628340421543  1.0000
  H   H4        1.0  0.7158400788654119  0.5436434000258643  0.162383968026127  1.0000
  C   C1        1.0  0.8613837024158002  0.2704746420915498  0.5032436899195005  1.0000
  C   C2        1.0  0.66079329333931  0.506287180986476  0.7079663069708532  1.0000
  C   C3        1.0  0.15740689152325882  0.7219545675934711  0.5149167646984623  1.0000
  C   C4        1.0  0.34476502508371  0.4975597339607487  0.31671376732074213  1.0000
  C   C5        1.0  0.4073634833657067  0.4912700348644705  0.8934986537222329  1.0000
  C   C6        1.0  0.5899667113972457  0.526369739766629  0.13059827032715526  1.0000
  C   C7        1.0  0.5963050813946894  0.5114339384745604  0.8268644236477272  1.0000
  C   C8        1.0  0.4034190301313174  0.5031191193792068  0.1973988013284682  1.0000
  C   C9        1.0  0.5905776562739717  0.5238684647898425  0.019917384526976882  1.0000
  C   C10       1.0  0.4036105362615034  0.4984894175821706  0.003969739215570209  1.0000
  C   C11       1.0  0.939524866282511  0.13019086535203428  0.4945260204573785  1.0000
  C   C12       1.0  0.12063622546487103  0.0683220548643604  0.41295608661346955  1.0000
  C   C13       1.0  0.839212863659931  0.0581813830892415  0.5739857752855073  1.0000
  C   C14       1.0  0.2187410742442637  0.1355408328227767  0.3229526300974257  1.0000
  C   C15       1.0  0.4020783332186113  0.07893000125529429  0.24709205474831458  1.0000
  C   C16       1.0  0.09420206554455743  0.8631411051773912  0.5035942504542774  1.0000
  C   C17       1.0  0.9142369633450402  0.9266441091254549  0.5776428883785485  1.0000
  C   C18       1.0  0.20342203173321177  0.9338397927623344  0.4189605299304446  1.0000
  C   C19       1.0  0.3865914091280729  0.8788207836580141  0.3366146143043238  1.0000
  C   C20       1.0  0.4877477942479445  0.9487223948097423  0.2549442341631263  1.0000
  S   S1        1.0  0.7689491197663403  0.5402419617117359  0.8975046323417217  1.0000
  S   S2        1.0  0.2274782571287731  0.47921518475863667  0.1262037561615728  1.0000
  O   O1        1.0  0.668798149251664  0.320682496164217  0.49546772405970074  1.0000
  O   O2        1.0  0.845523078119939  0.5233195355523178  0.6607323109470258  1.0000
  O   O3        1.0  0.019403455107635574  0.6704315962258036  0.500948152502211  1.0000
  O   O4        1.0  0.48628768918077014  0.5053452050213707  0.36521806253265515  1.0000
  O   O5        1.0  0.3371411516648379  0.6678167749633275  0.5371439698725736  1.0000
  O   O6        1.0  0.15490696200069465  0.4866439206062195  0.36233319144952963  1.0000
  O   O7        1.0  0.993028577668639  0.32378452583124323  0.5223219361896908  1.0000
  O   O8        1.0  0.5288359539174436  0.48246242857060656  0.6612920554802884  1.0000
  O   O9        1.0  0.25595840252501734  0.43934928105002774  0.5601034252678829  1.0000
  O   O10       1.0  0.7502820432749504  0.5499862578576042  0.46501393702052946  1.0000
  F   F1        1.0  0.8066682702964908  0.8643332180843546  0.6594234031273842  1.0000
  F   F2        1.0  0.6690729618670872  0.11175324727498288  0.6541944086735612  1.0000
  F   F3        1.0  0.4675345885744376  0.7533745519938224  0.3324509053262048  1.0000
  F   F4        1.0  0.6634045482731498  0.8924835521450233  0.1793727192599306  1.0000
  F   F5        1.0  0.49486806695855284  0.1452525133332614  0.1634550455828787  1.0000
  F   F6        1.0  0.1281548290931056  0.25839863393554197  0.3068711808722497  1.0000
