data_image0
_chemical_formula_structural       Zn4H23C34N2ClO13
_chemical_formula_sum              "Zn4 H23 C34 N2 Cl1 O13"
_cell_length_a       13.005232545724873
_cell_length_b       13.240587190070224
_cell_length_c       18.126287595183502
_cell_angle_alpha    68.91889492232488
_cell_angle_beta     71.8093944168129
_cell_angle_gamma    88.79834154378082

_space_group_name_H-M_alt    "P 1"
_space_group_IT_number       1

loop_
  _space_group_symop_operation_xyz
  'x, y, z'

loop_
  _atom_site_type_symbol
  _atom_site_label
  _atom_site_symmetry_multiplicity
  _atom_site_fract_x
  _atom_site_fract_y
  _atom_site_fract_z
  _atom_site_occupancy
  Zn  Zn1       1.0  0.43209261598114773  0.4325314257862801  0.4389293592990384  1.0000
  Zn  Zn2       1.0  0.5651436824792809  0.385395638983006  0.5680981707839834  1.0000
  Zn  Zn3       1.0  0.3984604132791246  0.5542363840541428  0.5730659819476358  1.0000
  Zn  Zn4       1.0  0.5978905735670634  0.6211256098556178  0.4058334895958851  1.0000
  H   H1        1.0  0.7252215019701536  0.7302131665452124  0.8742752968374178  1.0000
  H   H2        1.0  0.4170980619484297  0.23870457382234633  0.8332561685709335  1.0000
  H   H3        1.0  0.37021147544134436  0.2350807881103379  0.10591849998273521  1.0000
  H   H4        1.0  0.7729554929462948  0.7549666772693444  0.9871758684847267  1.0000
  H   H5        1.0  0.4900567294813243  0.46203007019161674  0.19976868481910504  1.0000
  H   H6        1.0  0.617784058285899  0.6322202295849311  0.8268573415376609  1.0000
  H   H7        1.0  0.43475581196699403  0.3576709414849759  0.15992367155875092  1.0000
  H   H8        1.0  0.4644387097988697  0.6076903264764938  0.7319376133183654  1.0000
  H   H9        1.0  0.4575002753858256  0.7614299560708917  0.7759620554143184  1.0000
  H   H10       1.0  0.42901914743990927  0.6692695149832918  0.8804719297099908  1.0000
  H   H11       1.0  0.3322646886597838  0.6747513811019844  0.8283181135777229  1.0000
  H   H12       1.0  0.3716017012140255  0.18561038452754275  0.9879729306700042  1.0000
  H   H13       1.0  0.8136931371184132  0.782736362328656  0.08619072183653739  1.0000
  H   H14       1.0  0.9031807867551366  0.6405417998721676  0.16149839621263593  1.0000
  H   H15       1.0  0.7798731266342497  0.5987870996799816  0.24732444690754107  1.0000
  H   H16       1.0  0.8509488925002201  0.7256012952848466  0.2194805616754393  1.0000
  H   H17       1.0  0.8864241130384797  0.44334249925474023  0.5703306776264228  1.0000
  H   H18       1.0  0.11422445331314177  0.4996114275744575  0.43093093355699347  1.0000
  H   H19       1.0  0.05074589367184501  0.4479891627311477  0.6208174841503791  1.0000
  H   H20       1.0  0.44495271792947466  0.10975267318799811  0.4374101809395868  1.0000
  H   H21       1.0  0.4279702387310847  0.8796249086255585  0.5753413701708043  1.0000
  H   H22       1.0  0.47418602646903446  0.03985795125140611  0.6109083203064004  1.0000
  H   H23       1.0  0.4894583450415978  0.9551632263571577  0.38342381008589405  1.0000
  C   C1        1.0  0.7784064341226155  0.5153033499092318  0.46335570025941303  1.0000
  C   C2        1.0  0.44776244863354  0.3841244270824192  0.0931465478919904  1.0000
  C   C3        1.0  0.410733269232395  0.31579841641853085  0.06333911172530551  1.0000
  C   C4        1.0  0.2201206903732994  0.4742629707524912  0.5384094958418829  1.0000
  C   C5        1.0  0.4257783126147101  0.3461164799547518  0.9765916381334706  1.0000
  C   C6        1.0  0.470054687816507  0.4547128979735576  0.9212420557835871  1.0000
  C   C7        1.0  0.4025970324772031  0.26881261995277583  0.944937068260721  1.0000
  C   C8        1.0  0.4254118606920584  0.2982123675448066  0.860267277914872  1.0000
  C   C9        1.0  0.46405592991270334  0.49024668906905333  0.8374669055690377  1.0000
  C   C10       1.0  0.10118815063351862  0.46311310431728736  0.5564642631658147  1.0000
  C   C11       1.0  0.0582266554857611  0.4799595709958526  0.4944868383614108  1.0000
  C   C12       1.0  0.6978560694981722  0.6645417918334645  0.11861282505533663  1.0000
  C   C13       1.0  0.8992872342543874  0.5167240801572178  0.44482332933026925  1.0000
  C   C14       1.0  0.943843144463095  0.47731905126570245  0.5067219337071336  1.0000
  C   C15       1.0  0.4664256857948387  0.8999699907610295  0.4487471597633857  1.0000
  C   C16       1.0  0.4786678785094835  0.21118457413282243  0.5323543799401663  1.0000
  C   C17       1.0  0.4443816709897844  0.9380396088559522  0.5112652909097124  1.0000
  C   C18       1.0  0.4637546442410923  0.09281684690247971  0.5522055033532  1.0000
  C   C19       1.0  0.44877371519057613  0.05241318250557471  0.49730894818833354  1.0000
  C   C20       1.0  0.47519932400526693  0.7830461228717314  0.46419895960995916  1.0000
  C   C21       1.0  0.463898732746955  0.43343214293372523  0.7173674041800098  1.0000
  C   C22       1.0  0.5716998269702029  0.5609734370374754  0.2701119840581327  1.0000
  C   C23       1.0  0.5532807669424641  0.524267808744753  0.15120756343799258  1.0000
  C   C24       1.0  0.6117693801874181  0.5817398443876487  0.17906562494107445  1.0000
  C   C25       1.0  0.45257554473514  0.40878996920444177  0.8058338122647727  1.0000
  C   C26       1.0  0.7094910817352937  0.691049731981032  0.034289219582937805  1.0000
  C   C27       1.0  0.4199791094555678  0.6796481882260611  0.8202712891903089  1.0000
  C   C28       1.0  0.8284042066974138  0.6687468429656251  0.19417229598273156  1.0000
  C   C29       1.0  0.5689197271728826  0.5469691121935869  0.06628391596330374  1.0000
  C   C30       1.0  0.6469079348558822  0.6365412150953845  0.006730531718297066  1.0000
  C   C31       1.0  0.5112507118663955  0.48457449754165083  0.03739104269664749  1.0000
  C   C32       1.0  0.5243581381312694  0.5190358022089043  0.9507594279084657  1.0000
  C   C33       1.0  0.6030003449822626  0.6097067450590361  0.8935519163358024  1.0000
  C   C34       1.0  0.6629401989894247  0.6644486862187906  0.9199461703016996  1.0000
  N   N1        1.0  0.47346814186334285  0.5990102895924779  0.7879160632107656  1.0000
  N   N2        1.0  0.7666122473232662  0.721636289416111  0.1384029568680063  1.0000
  Cl  Cl1       1.0  0.9772868621452131  0.5775468377219611  0.34112864011351013  1.0000
  O   O1        1.0  0.5011544003574855  0.49741414991578387  0.49598432569149525  1.0000
  O   O2        1.0  0.4955433801522701  0.3596404822300699  0.6876688514372874  1.0000
  O   O3        1.0  0.6027224437033566  0.6306314438933571  0.29460207050603765  1.0000
  O   O4        1.0  0.44138063422525414  0.5272038103189801  0.6736213326901604  1.0000
  O   O5        1.0  0.5045739331391202  0.4758963362197053  0.3185598002717782  1.0000
  O   O6        1.0  0.4345792035238887  0.27331660996834023  0.48119029853835826  1.0000
  O   O7        1.0  0.5506026639402533  0.7619026775688912  0.4083455262886701  1.0000
  O   O8        1.0  0.7213241440546766  0.4388051572534907  0.5300035789280599  1.0000
  O   O9        1.0  0.2521369894704222  0.4906771641220331  0.5938152146368624  1.0000
  O   O10       1.0  0.7455349278466129  0.5905358460866881  0.4115702126771055  1.0000
  O   O11       1.0  0.28071179622357784  0.4686808411182569  0.4695289045735081  1.0000
  O   O12       1.0  0.5364319067953501  0.24038081626714108  0.5684150195670341  1.0000
  O   O13       1.0  0.40930840302405597  0.7142840060429098  0.531364348358842  1.0000
