data_image0
_chemical_formula_structural       K2Cu2H26C34S2N4O6
_chemical_formula_sum              "K2 Cu2 H26 C34 S2 N4 O6"
_cell_length_a       8.256712983700663
_cell_length_b       9.454516327298066
_cell_length_c       11.893255450931399
_cell_angle_alpha    74.89851754393723
_cell_angle_beta     83.20560642121069
_cell_angle_gamma    71.15829645484484

_space_group_name_H-M_alt    "P 1"
_space_group_IT_number       1

loop_
  _space_group_symop_operation_xyz
  'x, y, z'

loop_
  _atom_site_type_symbol
  _atom_site_label
  _atom_site_symmetry_multiplicity
  _atom_site_fract_x
  _atom_site_fract_y
  _atom_site_fract_z
  _atom_site_occupancy
  K   K1        1.0  0.6049435011153294  0.6883643443007801  0.9313628678804591  1.0000
  K   K2        1.0  0.39504962118703435  0.3116273382256055  0.06864048573893201  1.0000
  Cu  Cu1       1.0  0.18584502167524872  0.042971363465866795  0.05924940701030581  1.0000
  Cu  Cu2       1.0  0.8141563096969978  0.9570284135351909  0.940746564895669  1.0000
  H   H1        1.0  0.9874510511279055  0.741255853151017  0.16835502905939861  1.0000
  H   H2        1.0  0.012550637806938908  0.2587427855061364  0.8316503989426779  1.0000
  H   H3        1.0  0.8261345984505797  0.9447053549436785  0.27292169089288637  1.0000
  H   H4        1.0  0.17386349640167253  0.055300179532622507  0.7270825971745438  1.0000
  H   H5        1.0  0.9259862656403971  0.5194316918589409  0.1136668961392431  1.0000
  H   H6        1.0  0.07401710183120255  0.4805692474228638  0.8863295121402714  1.0000
  H   H7        1.0  0.6590156501835764  0.6040674377728621  0.2309980095953463  1.0000
  H   H8        1.0  0.340988532068458  0.3959346593777867  0.7689997749359065  1.0000
  H   H9        1.0  0.5138522908428484  0.4146140938096323  0.3454011904889285  1.0000
  H   H10       1.0  0.48615028104316604  0.5853891469885255  0.654595645684026  1.0000
  H   H11       1.0  0.6386213667129895  0.13803432572647276  0.3377702963255799  1.0000
  H   H12       1.0  0.36137997685754203  0.8619689128187815  0.6622291614721477  1.0000
  H   H13       1.0  0.20907997008971793  0.5631496360618725  0.3051355517296487  1.0000
  H   H14       1.0  0.7909217083502897  0.43684900583378544  0.6948723988922936  1.0000
  H   H15       1.0  0.2697508218850899  0.7193922292009989  0.3247241744369235  1.0000
  H   H16       1.0  0.7302472362809312  0.28060985128761473  0.6752825138517694  1.0000
  H   H17       1.0  0.1329037166293077  0.8344642470658812  0.48272566499260716  1.0000
  H   H18       1.0  0.8670894807489663  0.16553780821858058  0.5172788966958706  1.0000
  H   H19       1.0  0.8918643158827494  0.8863678918840064  0.6270583561508617  1.0000
  H   H20       1.0  0.10812889199035423  0.1136341601619506  0.3729436829177503  1.0000
  H   H21       1.0  0.6412829760897342  0.7956638345280425  0.6261611676805643  1.0000
  H   H22       1.0  0.3587094170029347  0.20433705964907733  0.37383949513630915  1.0000
  H   H23       1.0  0.6376827860278809  0.6438700478761775  0.48292141098666974  1.0000
  H   H24       1.0  0.3623112541170456  0.35613315664110706  0.5170777999672396  1.0000
  H   H25       1.0  0.8821109930535374  0.5861079949502185  0.34326945358395733  1.0000
  H   H26       1.0  0.11788547573613069  0.413895222708895  0.656731241106705  1.0000
  C   C1        1.0  0.4156130676298346  0.09400743126059302  0.8514419036993104  1.0000
  C   C2        1.0  0.5843935468565961  0.9059877473074637  0.14854366579887573  1.0000
  C   C3        1.0  0.24008152326419466  0.7287803222504864  0.09477642963956616  1.0000
  C   C4        1.0  0.7599205757074189  0.2712171618702329  0.9052258413592753  1.0000
  C   C5        1.0  0.09687828457118292  0.7750333192757708  0.18474229760919064  1.0000
  C   C6        1.0  0.9031234078619408  0.22496531830187652  0.8152622895196019  1.0000
  C   C7        1.0  0.9075220900435639  0.012137194839375797  0.2221150185041268  1.0000
  C   C8        1.0  0.09247921684073651  0.9878625897181906  0.7778868395148707  1.0000
  C   C9        1.0  0.8491929857704152  0.17272471811273246  0.2206697646334703  1.0000
  C   C10       1.0  0.15080996816613643  0.8272773767850127  0.7793306415225628  1.0000
  C   C11       1.0  0.9352800896477121  0.28072782756239434  0.15634152918917016  1.0000
  C   C12       1.0  0.06472166046130917  0.7192742575259317  0.843655612478621  1.0000
  C   C13       1.0  0.8620947681031268  0.4367110493060267  0.16356718564451006  1.0000
  C   C14       1.0  0.13790981369083968  0.5632898965466994  0.8364299645033882  1.0000
  C   C15       1.0  0.7131754685665187  0.4829442397446684  0.22939424343199016  1.0000
  C   C16       1.0  0.286829935004441  0.5170578618178895  0.7706026012210645  1.0000
  C   C17       1.0  0.6303034298928055  0.37650914172269273  0.29360924349799694  1.0000
  C   C18       1.0  0.36969831671793696  0.6234929444451396  0.7063887390430779  1.0000
  C   C19       1.0  0.6989891151792167  0.22397105574786744  0.28883550253252116  1.0000
  C   C20       1.0  0.301014271487226  0.7760333429191348  0.7111627098921716  1.0000
  C   C21       1.0  0.16123445535942696  0.6849435627153967  0.3083143498248475  1.0000
  C   C22       1.0  0.8387656162128324  0.3150562217482785  0.6916918115655052  1.0000
  C   C23       1.0  0.022648202780594335  0.7090897122069179  0.4016294104990266  1.0000
  C   C24       1.0  0.9773473970510196  0.2909088989931803  0.5983765125276079  1.0000
  C   C25       1.0  0.024527544480463338  0.7922239589480141  0.482878737134044  1.0000
  C   C26       1.0  0.9754676628057696  0.20777580139100854  0.5171261385293775  1.0000
  C   C27       1.0  0.8884358607976564  0.8218556115975488  0.5641003530584855  1.0000
  C   C28       1.0  0.11155731388749505  0.17814298538122134  0.4359032453581051  1.0000
  C   C29       1.0  0.7484718866178071  0.7697046181631678  0.564097240371858  1.0000
  C   C30       1.0  0.25152171380067767  0.23029628474385794  0.4359058460599671  1.0000
  C   C31       1.0  0.7464011163498084  0.6851191076977229  0.48402750668088157  1.0000
  C   C32       1.0  0.25359127674286  0.3148817864793897  0.5159731561359919  1.0000
  C   C33       1.0  0.8832071438687664  0.6539788416297155  0.4044283634090533  1.0000
  C   C34       1.0  0.1167909352869287  0.34602323238188865  0.5955732796399148  1.0000
  S   S1        1.0  0.5517339939251472  0.04598467253194371  0.7486830293081397  1.0000
  S   S2        1.0  0.44827582209848776  0.9540047593558897  0.2513026327614868  1.0000
  N   N1        1.0  0.31550782343760636  0.1317892029695713  0.9271746929214828  1.0000
  N   N2        1.0  0.6844975418350501  0.8681990491776759  0.07280568554469372  1.0000
  N   N3        1.0  0.0459144641039302  0.9417113652574045  0.17000225757090703  1.0000
  N   N4        1.0  0.9540868357838124  0.05828842145917431  0.8300012821946654  1.0000
  O   O1        1.0  0.293920965540181  0.8373481723620488  0.027129466162570316  1.0000
  O   O2        1.0  0.706077916197657  0.1626515979741967  0.9728700672463833  1.0000
  O   O3        1.0  0.30233773705728595  0.5911047291954432  0.09061321438821325  1.0000
  O   O4        1.0  0.697668823160143  0.4088939314273574  0.9093918175942194  1.0000
  O   O5        1.0  0.07521773245748162  0.2448626165969543  0.09104032471067572  1.0000
  O   O6        1.0  0.9247852092807849  0.7551360167565876  0.9089565955536046  1.0000
