data_image0
_chemical_formula_structural       Cu2H32C28N20O12
_chemical_formula_sum              "Cu2 H32 C28 N20 O12"
_cell_length_a       8.57625294638322
_cell_length_b       8.576247169669317
_cell_length_c       14.055195057021686
_cell_angle_alpha    90.00008268813485
_cell_angle_beta     89.9997974433647
_cell_angle_gamma    117.47271474254165

_space_group_name_H-M_alt    "P 1"
_space_group_IT_number       1

loop_
  _space_group_symop_operation_xyz
  'x, y, z'

loop_
  _atom_site_type_symbol
  _atom_site_label
  _atom_site_symmetry_multiplicity
  _atom_site_fract_x
  _atom_site_fract_y
  _atom_site_fract_z
  _atom_site_occupancy
  Cu  Cu1       1.0  3.9124184067760063e-07  0.9999998899095104  0.9999986671827301  1.0000
  Cu  Cu2       1.0  0.4999984322139923  0.4999992465544453  0.4999991455130441  1.0000
  H   H1        1.0  0.6108901001576896  0.798674474310566  0.08507784540100262  1.0000
  H   H2        1.0  0.8891076622149826  0.7013234429882971  0.5850783863212997  1.0000
  H   H3        1.0  0.7986746105241167  0.6108901704685011  0.9149216074042458  1.0000
  H   H4        1.0  0.7013247457979687  0.8891102113031337  0.4149216626258864  1.0000
  H   H5        1.0  0.3891107909377851  0.20132265934089594  0.9149211571007997  1.0000
  H   H6        1.0  0.11088858590632363  0.2986737359549282  0.414920616185576  1.0000
  H   H7        1.0  0.20132635243483318  0.38910960283678264  0.08507810657935981  1.0000
  H   H8        1.0  0.2986738956738931  0.110889584648028  0.5850780513602558  1.0000
  H   H9        1.0  0.41541601430360936  0.8581606689169662  0.8175560018870416  1.0000
  H   H10       1.0  0.08458567039350846  0.6418398484967228  0.31755680001830916  1.0000
  H   H11       1.0  0.8581590015519539  0.4154149190803764  0.1824435376391449  1.0000
  H   H12       1.0  0.64183891817963  0.0845841327622239  0.6824437999059543  1.0000
  H   H13       1.0  0.5845832434707035  0.14184044119956246  0.18244442357971746  1.0000
  H   H14       1.0  0.915416453306868  0.3581599134854656  0.6824436254447335  1.0000
  H   H15       1.0  0.14184257770944705  0.584586168390267  0.8175568878250843  1.0000
  H   H16       1.0  0.3581620447772025  0.9154156405429107  0.3175566255583534  1.0000
  H   H17       1.0  0.7806374923269388  0.9889920417391025  0.8069140467127057  1.0000
  H   H18       1.0  0.7193653717678502  0.5110070381379401  0.3069158568896314  1.0000
  H   H19       1.0  0.9889921225276195  0.7806357701509087  0.1930851764783199  1.0000
  H   H20       1.0  0.5110067750465178  0.7193634037507766  0.693084421666704  1.0000
  H   H21       1.0  0.21936230989058458  0.011007742889276499  0.19308495579146986  1.0000
  H   H22       1.0  0.28063559119321  0.4889927351674927  0.6930831456132793  1.0000
  H   H23       1.0  0.011010073040452489  0.21936663148539987  0.8069145375051364  1.0000
  H   H24       1.0  0.4889935716078711  0.2806350553889843  0.30691529231697967  1.0000
  H   H25       1.0  0.21475587121584994  0.7852455044286658  0.9719524793158882  1.0000
  H   H26       1.0  0.28524544039608185  0.7147536213965324  0.4719529065696762  1.0000
  H   H27       1.0  0.7852450917388651  0.21475426887631244  0.028048657629121  1.0000
  H   H28       1.0  0.7147543618108684  0.2852461632310791  0.5280496533380018  1.0000
  H   H29       1.0  0.2889646687927083  0.7110354620633572  0.07513663630441411  1.0000
  H   H30       1.0  0.2110349742903352  0.788965193103671  0.5751369319700929  1.0000
  H   H31       1.0  0.711036838605217  0.28896298575346435  0.924863077678012  1.0000
  H   H32       1.0  0.7889625783014581  0.21103725382424443  0.42486349349912444  1.0000
  C   C1        1.0  0.6118688343544818  0.8364708680434206  0.011313676939948902  1.0000
  C   C2        1.0  0.8881293663712949  0.6635270808351664  0.511314897457254  1.0000
  C   C3        1.0  0.8364723517083023  0.6118680203127551  0.9886857511365295  1.0000
  C   C4        1.0  0.6635271106996541  0.8881310043907007  0.48868517621750857  1.0000
  C   C5        1.0  0.3881308959974489  0.1635262769309875  0.9886853255631183  1.0000
  C   C6        1.0  0.11186749805246166  0.3364714122734184  0.4886848165302384  1.0000
  C   C7        1.0  0.1635291556896235  0.3881304275040733  0.0113139628458896  1.0000
  C   C8        1.0  0.3364709144676468  0.1118674773949451  0.5113145377687119  1.0000
  C   C9        1.0  0.5127722640314332  0.8672614668314225  0.8698454625660261  1.0000
  C   C10       1.0  0.987228449038973  0.6327362832611456  0.3698460881248309  1.0000
  C   C11       1.0  0.8672605192795331  0.5127710895001485  0.1301547205523619  1.0000
  C   C12       1.0  0.6327364307795733  0.9872281339890208  0.6301546534694185  1.0000
  C   C13       1.0  0.4872269218772942  0.13273700363113514  0.1301549628996241  1.0000
  C   C14       1.0  0.012771897613298186  0.36726217587846577  0.6301543373395546  1.0000
  C   C15       1.0  0.13273928293587292  0.48722869512807426  0.8698449934325154  1.0000
  C   C16       1.0  0.3672633714337152  0.012771650639045604  0.36984577199616103  1.0000
  C   C17       1.0  0.6921585935873722  0.935251268412678  0.8666151756772892  1.0000
  C   C18       1.0  0.8078427549852165  0.5647477972284349  0.36661541878827114  1.0000
  C   C19       1.0  0.9352498287186677  0.6921563083516133  0.13338484968934242  1.0000
  C   C20       1.0  0.5647471021449276  0.8078429137546763  0.6333847690769616  1.0000
  C   C21       1.0  0.3078417530670166  0.0647471907270898  0.13338453830640162  1.0000
  C   C22       1.0  0.1921570472322998  0.43525198739993703  0.6333835837159114  1.0000
  C   C23       1.0  0.0647499734967312  0.3078434762766094  0.866614864295535  1.0000
  C   C24       1.0  0.43525208376379965  0.1921555567078741  0.3666156563886886  1.0000
  C   C25       1.0  0.2854316047343985  0.7145694932530376  0.9970932526165728  1.0000
  C   C26       1.0  0.21456901303704257  0.7854309472974706  0.4970931857305771  1.0000
  C   C27       1.0  0.7145687419157624  0.28542896588642463  0.0029078843285149  1.0000
  C   C28       1.0  0.7854284676870477  0.21456885997632474  0.5029079512182335  1.0000
  N   N1        1.0  0.7519626163148985  0.9175623244939217  0.9552620403318245  1.0000
  N   N2        1.0  0.7480393662029172  0.5824366918727789  0.455262429450599  1.0000
  N   N3        1.0  0.9175635912040078  0.7519599552254164  0.044737246694204216  1.0000
  N   N4        1.0  0.5824361879513378  0.7480392821869162  0.5447363623093437  1.0000
  N   N5        1.0  0.24803711403703943  0.0824348204804792  0.04473696217124261  1.0000
  N   N6        1.0  0.25196159676025326  0.41756308143280313  0.5447358615716169  1.0000
  N   N7        1.0  0.08243675545249117  0.2480385039145006  0.9552617558087847  1.0000
  N   N8        1.0  0.41756306982509267  0.2519618279297617  0.4552633516767275  1.0000
  N   N9        1.0  0.4646017718078426  0.8049159770397836  0.9616087100257005  1.0000
  N   N10       1.0  0.03539905683302182  0.6950844787021211  0.4616096630645928  1.0000
  N   N11       1.0  0.8049145643114172  0.46460005182444775  0.03839154356901281  1.0000
  N   N12       1.0  0.6950848277788638  0.0354003758552963  0.5383909342717743  1.0000
  N   N13       1.0  0.5353991911511072  0.19508379626549302  0.03839100395791209  1.0000
  N   N14       1.0  0.9645995846367299  0.3049153172488844  0.5383907624022513  1.0000
  N   N15       1.0  0.1950863986475326  0.5353997214808359  0.9616081704146  1.0000
  N   N16       1.0  0.3049138136908809  0.9645994200957091  0.4616094911950697  1.0000
  N   N17       1.0  0.1047627948155636  0.8952397726434498  0.7610107164368645  1.0000
  N   N18       1.0  0.39523697629348936  0.6047634312785278  0.2610100939658794  1.0000
  N   N19       1.0  0.895237695563644  0.10476396580380509  0.23899113199113495  1.0000
  N   N20       1.0  0.6047628259219168  0.39523635334969504  0.7389896200189983  1.0000
  O   O1        1.0  0.0995665102414165  0.9004312111177201  0.8514762067491477  1.0000
  O   O2        1.0  0.400433123972256  0.5995653492779879  0.35147485681956436  1.0000
  O   O3        1.0  0.9004326037974976  0.09956461969055401  0.14852564167679824  1.0000
  O   O4        1.0  0.5995672945519387  0.40043574951605615  0.6485234342038383  1.0000
  O   O5        1.0  0.18370895110130897  0.8162927185319618  0.7224390919298784  1.0000
  O   O6        1.0  0.3162905047796229  0.683711827391221  0.22244084667494954  1.0000
  O   O7        1.0  0.816292771893366  0.18371364824677985  0.2775606220558728  1.0000
  O   O8        1.0  0.6837116907905667  0.3162905742452438  0.7775581558278049  1.0000
  O   O9        1.0  0.03384589454749697  0.9661597351017194  0.7101926050909313  1.0000
  O   O10       1.0  0.46615370598762235  0.5338474557192541  0.21019034157681926  1.0000
  O   O11       1.0  0.9661523462038699  0.03384666564492989  0.28981137778281874  1.0000
  O   O12       1.0  0.5338478732716537  0.46615363175124  0.7898107953681122  1.0000
