data_image0
_chemical_formula_structural       Zn8H56C64Cl4O26
_chemical_formula_sum              "Zn8 H56 C64 Cl4 O26"
_cell_length_a       17.965787540113556
_cell_length_b       18.493542660132967
_cell_length_c       20.405287600309308
_cell_angle_alpha    60.99804076214042
_cell_angle_beta     62.645630783062074
_cell_angle_gamma    89.91338731543321

_space_group_name_H-M_alt    "P 1"
_space_group_IT_number       1

loop_
  _space_group_symop_operation_xyz
  'x, y, z'

loop_
  _atom_site_type_symbol
  _atom_site_label
  _atom_site_symmetry_multiplicity
  _atom_site_fract_x
  _atom_site_fract_y
  _atom_site_fract_z
  _atom_site_occupancy
  Zn  Zn1       1.0  0.1313447810162246  0.5441337923795405  0.9231120541927068  1.0000
  Zn  Zn2       1.0  0.9603356145144771  0.5486623740526682  0.06838927431677888  1.0000
  Zn  Zn3       1.0  0.9683024748761326  0.37895941645899006  0.06225847182818708  1.0000
  Zn  Zn4       1.0  0.956262093347739  0.5440680348542559  0.9128319201178172  1.0000
  Zn  Zn5       1.0  0.3767956054802326  0.9692556358934329  0.06226276139761919  1.0000
  Zn  Zn6       1.0  0.5448235804549667  0.1294539057084308  0.9189776709388296  1.0000
  Zn  Zn7       1.0  0.5403516710883167  0.959658662959342  0.9145045314433133  1.0000
  Zn  Zn8       1.0  0.5540446363018601  0.9609891609497935  0.06759843749967591  1.0000
  H   H1        1.0  0.4292169496591  0.8232455582732573  0.34733319292781306  1.0000
  H   H2        1.0  0.20306376931154796  0.8378798264674571  0.3237982111846449  1.0000
  H   H3        1.0  0.08584661307683208  0.6836665942988988  0.6356872560567268  1.0000
  H   H4        1.0  0.311708391393182  0.6705819020728542  0.6597356649714926  1.0000
  H   H5        1.0  0.6775850162011564  0.08485528116160171  0.6389462602091385  1.0000
  H   H6        1.0  0.6662883231557261  0.30866971720674746  0.6543051269494028  1.0000
  H   H7        1.0  0.8210990673356588  0.422773753943666  0.343607243270533  1.0000
  H   H8        1.0  0.8326670180993856  0.1989628537676893  0.3281973469604509  1.0000
  H   H9        1.0  0.21760082026199967  0.31562373617835243  0.8841257979079344  1.0000
  H   H10       1.0  0.13179527659070095  0.22837102299858011  0.9867215413469309  1.0000
  H   H11       1.0  0.22438319748692961  0.13946930442654817  0.9807799016954488  1.0000
  H   H12       1.0  0.3105751077328164  0.2282409675706847  0.8800573535444869  1.0000
  H   H13       1.0  0.1997008323086789  0.10896192424474552  0.1246980245890654  1.0000
  H   H14       1.0  0.2709649063997688  0.17256062769938296  0.1265639422167979  1.0000
  H   H15       1.0  0.1106077951647393  0.20146652127843376  0.1283062473939793  1.0000
  H   H16       1.0  0.18465706959872816  0.26644958203828384  0.12625219536811025  1.0000
  H   H17       1.0  0.3232448670041138  0.411069567976014  0.8806640818331674  1.0000
  H   H18       1.0  0.3084133182616142  0.39267353263124977  0.9793361681374863  1.0000
  H   H19       1.0  0.39683109350468015  0.29963739866561684  0.9814189479220445  1.0000
  H   H20       1.0  0.4142071957791769  0.3207293510084241  0.881031984400515  1.0000
  H   H21       1.0  0.9086641829319502  0.8166763953204706  0.876351235347471  1.0000
  H   H22       1.0  0.8874919774144984  0.7911440703469382  0.9800317585367679  1.0000
  H   H23       1.0  0.7985935265482241  0.8835907120608795  0.9791108458780329  1.0000
  H   H24       1.0  0.819025467810917  0.9073956991113694  0.8761773432830608  1.0000
  H   H25       1.0  0.6728162431534199  0.7584658533227612  0.1196523459020824  1.0000
  H   H26       1.0  0.6022057930347272  0.69462751362299  0.11750951512150462  1.0000
  H   H27       1.0  0.7608279656638643  0.6650083639076173  0.11984900643061279  1.0000
  H   H28       1.0  0.690904330194364  0.6029713132226252  0.11539773279500307  1.0000
  H   H29       1.0  0.8100303716778825  0.7268867898616025  0.8689011611068337  1.0000
  H   H30       1.0  0.7217336169961187  0.6387830348867067  0.9659183651539678  1.0000
  H   H31       1.0  0.6308743539540201  0.7291318476544292  0.9686299973977199  1.0000
  H   H32       1.0  0.7188261631122258  0.8168460949133729  0.8708056239753716  1.0000
  H   H33       1.0  0.17740773610375285  0.8105800485355348  0.917094092264719  1.0000
  H   H34       1.0  0.2683945285616928  0.7803832149769646  0.8632957629270948  1.0000
  H   H35       1.0  0.35876939846303907  0.8753938613094975  0.8590314728313331  1.0000
  H   H36       1.0  0.26711253333915863  0.9041361084326385  0.9140603880054742  1.0000
  H   H37       1.0  0.40156806000217693  0.7506889272331067  0.94527355824178  1.0000
  H   H38       1.0  0.3423406321029816  0.6918358043042403  0.061371143359465884  1.0000
  H   H39       1.0  0.30962756965939076  0.6543734399811926  0.9518763507171144  1.0000
  H   H40       1.0  0.2494261132378169  0.5977349484495421  0.0679278459109156  1.0000
  H   H41       1.0  0.08919118574114998  0.727017478614016  0.08460226241022177  1.0000
  H   H42       1.0  0.11829530506338413  0.6396710966331725  0.1458863826196861  1.0000
  H   H43       1.0  0.21020174186569557  0.7330008947797496  0.14185013729725424  1.0000
  H   H44       1.0  0.1804132050474081  0.8201782308568611  0.08141236052427561  1.0000
  H   H45       1.0  0.914866767663078  0.281560598901592  0.905880785931018  1.0000
  H   H46       1.0  0.8786223278531224  0.3658798343548143  0.8491495713509636  1.0000
  H   H47       1.0  0.7932506039536519  0.2674049827600484  0.8525860304899952  1.0000
  H   H48       1.0  0.8261988237501328  0.18271412226368972  0.9134738235993112  1.0000
  H   H49       1.0  0.6625472987345443  0.30816188212340007  0.9311657435753845  1.0000
  H   H50       1.0  0.5997696864707505  0.2491978551999878  0.04722291215148289  1.0000
  H   H51       1.0  0.7483212753108502  0.4029165883295747  0.9317451337848297  1.0000
  H   H52       1.0  0.6871818568716392  0.3413769150194809  0.0478107277307913  1.0000
  H   H53       1.0  0.8280224561603688  0.19202643466351796  0.07341306532581629  1.0000
  H   H54       1.0  0.7370539586020398  0.21777199796751032  0.1320474353103194  1.0000
  H   H55       1.0  0.6449406593025699  0.12556744018099414  0.13516891514426277  1.0000
  H   H56       1.0  0.7352631012124601  0.09602915220630594  0.08111380599733309  1.0000
  C   C1        1.0  0.13919293305072955  0.6377286560412402  0.0032801131559736974  1.0000
  C   C2        1.0  0.87889494689405  0.3726679866798578  0.228964686748121  1.0000
  C   C3        1.0  0.1472500161605055  0.3657569538863683  0.9977508673840987  1.0000
  C   C4        1.0  0.864317640141479  0.3673740606438616  0.9867703268837857  1.0000
  C   C5        1.0  0.13563241498767542  0.625020037244738  0.7548322372613258  1.0000
  C   C6        1.0  0.8623932272864822  0.6432008359277219  0.9876259424418451  1.0000
  C   C7        1.0  0.36535252809060387  0.14581285815145162  0.9947041654157688  1.0000
  C   C8        1.0  0.618576451517768  0.1349982324573276  0.7536129680005104  1.0000
  C   C9        1.0  0.35936744228503414  0.8640906619518204  0.9950992288332402  1.0000
  C   C10       1.0  0.6440457294914452  0.8646496708801411  0.9891779774144424  1.0000
  C   C11       1.0  0.3782467844070608  0.8836070615356563  0.22841970795369795  1.0000
  C   C12       1.0  0.6486854890043289  0.13943646130708492  0.9919523054982803  1.0000
  C   C13       1.0  0.3584870088224222  0.8085488977988504  0.3784233645603052  1.0000
  C   C14       1.0  0.2301308416555443  0.8164354840304571  0.3658538486286459  1.0000
  C   C15       1.0  0.1764566921694311  0.7719592557495293  0.45586117899897255  1.0000
  C   C16       1.0  0.21067011808351316  0.7436727089842781  0.5122572595909743  1.0000
  C   C17       1.0  0.1565509599429618  0.6984004085656965  0.6047828209656672  1.0000
  C   C18       1.0  0.2846529949189715  0.6913401780142223  0.6176794684928383  1.0000
  C   C19       1.0  0.33848108648280817  0.735236583602138  0.5276574074001984  1.0000
  C   C20       1.0  0.30448598655710396  0.7633091129009134  0.47104508488141766  1.0000
  C   C21       1.0  0.32200313296022637  0.8348157525913605  0.32675308918101115  1.0000
  C   C22       1.0  0.19277992335867106  0.672734625227932  0.6566550898569189  1.0000
  C   C23       1.0  0.6932296435493868  0.15469576413961775  0.6058248694143556  1.0000
  C   C24       1.0  0.6870947538880825  0.2816632758584134  0.6139476047482333  1.0000
  C   C25       1.0  0.7323026584537118  0.334299841665576  0.5236437619037275  1.0000
  C   C26       1.0  0.7600291280592867  0.30012007162684295  0.4694486481420412  1.0000
  C   C27       1.0  0.8056100618424012  0.35294008310274455  0.37672475998240873  1.0000
  C   C28       1.0  0.8118187891907596  0.2259579198076338  0.3685549317176324  1.0000
  C   C29       1.0  0.7673658635526266  0.17338185722637436  0.45884791524355245  1.0000
  C   C30       1.0  0.7394149045208634  0.20756872551882566  0.5130702892288569  1.0000
  C   C31       1.0  0.66737038655112  0.19102710504715503  0.655329200818592  1.0000
  C   C32       1.0  0.8308115895036963  0.31656076078220957  0.3272645795240622  1.0000
  C   C33       1.0  0.20030270596993194  0.26513057513079025  0.9511233827229902  1.0000
  C   C34       1.0  0.2613374683388729  0.20609210506169265  0.9484441134804342  1.0000
  C   C35       1.0  0.3084455934336248  0.20671810992400458  0.9954757657587336  1.0000
  C   C36       1.0  0.2383580953334316  0.17516104363279078  0.0914553716834448  1.0000
  C   C37       1.0  0.1796816241963697  0.23658129597858854  0.0925485266671586  1.0000
  C   C38       1.0  0.20791123274733533  0.3082955044377869  0.9974131473057213  1.0000
  C   C39       1.0  0.3034803553828738  0.3598804111916322  0.9481282769788208  1.0000
  C   C40       1.0  0.36288941762684584  0.29934048657467816  0.9483914267965902  1.0000
  C   C41       1.0  0.8561886084603569  0.7934809291087819  0.9440154970802366  1.0000
  C   C42       1.0  0.796662954007978  0.8543913731486372  0.9439178660585483  1.0000
  C   C43       1.0  0.7011163886161283  0.8034122682367199  0.988777181238099  1.0000
  C   C44       1.0  0.6708399364324507  0.7300777365137138  0.08389914438791378  1.0000
  C   C45       1.0  0.7297355772875705  0.6689047263006174  0.08329695517681299  1.0000
  C   C46       1.0  0.8016953804570405  0.7010004808627317  0.9877999799836843  1.0000
  C   C47       1.0  0.7588376134429354  0.7044427646929422  0.9366427250442229  1.0000
  C   C48       1.0  0.6987153521974034  0.7644642920420072  0.9379056466733857  1.0000
  C   C49       1.0  0.2326196760257559  0.7865634931016174  0.9199176551875184  1.0000
  C   C50       1.0  0.29262424217962035  0.8491249131712666  0.9173951214352485  1.0000
  C   C51       1.0  0.29839704292501057  0.8011461629979308  0.0009150272159530072  1.0000
  C   C52       1.0  0.3355865489225565  0.7250827588115811  0.003591787907694802  1.0000
  C   C53       1.0  0.27455319400035444  0.6621607871016764  0.007430241654610389  1.0000
  C   C54       1.0  0.1964778965708831  0.6960616549653905  0.005539985215705198  1.0000
  C   C55       1.0  0.14543352016885078  0.7040314222297682  0.08503766265193488  1.0000
  C   C56       1.0  0.20605999036236256  0.7659341085054978  0.0825523389071137  1.0000
  C   C57       1.0  0.8562401884661168  0.3010352884517716  0.9082952611667493  1.0000
  C   C58       1.0  0.7981108104215338  0.2361362465869804  0.9114146306136489  1.0000
  C   C59       1.0  0.7049989097613292  0.198878706537812  0.9939783369853714  1.0000
  C   C60       1.0  0.6669491057479248  0.2749338511228034  0.9902089254161481  1.0000
  C   C61       1.0  0.7247984845140678  0.3372784952975679  0.989939694606889  1.0000
  C   C62       1.0  0.8039536537404713  0.30549489671196994  0.9907203321687988  1.0000
  C   C63       1.0  0.7714056791643387  0.21437638935786654  0.0734713718661482  1.0000
  C   C64       1.0  0.7109619420402707  0.1517710505979224  0.07658937293221868  1.0000
  Cl  Cl1       1.0  0.45048170214388245  0.7566618239330654  0.4826309563373172  1.0000
  Cl  Cl2       1.0  0.06439638475423248  0.750239470723756  0.5010852056789898  1.0000
  Cl  Cl3       1.0  0.7449725665379745  0.06273196081297544  0.5073650564342315  1.0000
  Cl  Cl4       1.0  0.7557287413088288  0.4449649556352145  0.47514775477537796  1.0000
  O   O1        1.0  0.0032173808691667305  0.5052488523389372  0.9907393944460523  1.0000
  O   O2        1.0  0.17857047817732769  0.6187835771610037  0.9458311381335562  1.0000
  O   O3        1.0  0.8927164910356422  0.45392336377985026  0.19389726555084513  1.0000
  O   O4        1.0  0.0654295876665714  0.3276838658621345  0.044017939244490385  1.0000
  O   O5        1.0  0.05688155481264089  0.613855602040502  0.05673015735694519  1.0000
  O   O6        1.0  0.18200147136174394  0.44701496747287445  0.9511921083911545  1.0000
  O   O7        1.0  0.901909056670476  0.3337420517264107  0.18863814976121773  1.0000
  O   O8        1.0  0.8946944669005318  0.33302789022704365  0.0367543643167991  1.0000
  O   O9        1.0  0.05309063642866362  0.6082504180265643  0.788090176446012  1.0000
  O   O10       1.0  0.8814782209982113  0.4482296453813818  0.9331064851664265  1.0000
  O   O11       1.0  0.17532264871677233  0.6053185964671783  0.7967193749479334  1.0000
  O   O12       1.0  0.8886558954813922  0.6244563251305452  0.040973018055126396  1.0000
  O   O13       1.0  0.8832463330378602  0.6189952883526644  0.9342081933568948  1.0000
  O   O14       1.0  0.5046974599879946  0.0032062174108560544  0.9918046867076171  1.0000
  O   O15       1.0  0.32619093947518246  0.06623053012303609  0.03519811424020249  1.0000
  O   O16       1.0  0.5949817724849567  0.17395526231226202  0.7939467269162037  1.0000
  O   O17       1.0  0.4403876847536734  0.8882822338693543  0.9364768374289197  1.0000
  O   O18       1.0  0.4476319651701886  0.17829222921776736  0.9536262832899141  1.0000
  O   O19       1.0  0.32505877984082326  0.8887707232206024  0.048140724122390594  1.0000
  O   O20       1.0  0.6047611643019265  0.05372977887404321  0.7887968370894712  1.0000
  O   O21       1.0  0.6170097637719535  0.8876657757459583  0.936138741395439  1.0000
  O   O22       1.0  0.46050021245375206  0.8944030055077125  0.19405458562138023  1.0000
  O   O23       1.0  0.6285339548606856  0.8888792763566045  0.0420710920755525  1.0000
  O   O24       1.0  0.3378145171615472  0.9103275051656895  0.1874270911544968  1.0000
  O   O25       1.0  0.6326161691967229  0.17583718732110756  0.9302640509792042  1.0000
  O   O26       1.0  0.6225054840333043  0.0588627195938969  0.05026059829269508  1.0000
