data_image0
_chemical_formula_structural       Cd4H38C74N16Cl2O12
_chemical_formula_sum              "Cd4 H38 C74 N16 Cl2 O12"
_cell_length_a       9.893698461475791
_cell_length_b       12.283634250634742
_cell_length_c       15.72341248694098
_cell_angle_alpha    67.7301923908561
_cell_angle_beta     74.18682938885689
_cell_angle_gamma    80.02578772104698

_space_group_name_H-M_alt    "P 1"
_space_group_IT_number       1

loop_
  _space_group_symop_operation_xyz
  'x, y, z'

loop_
  _atom_site_type_symbol
  _atom_site_label
  _atom_site_symmetry_multiplicity
  _atom_site_fract_x
  _atom_site_fract_y
  _atom_site_fract_z
  _atom_site_occupancy
  Cd  Cd1       1.0  0.7205160749060227  0.39135467224777204  0.6053904661725582  1.0000
  Cd  Cd2       1.0  0.27947781838761887  0.6086458309515381  0.39461025203740246  1.0000
  Cd  Cd3       1.0  0.8407044139039925  0.7225186934021154  0.39104488210204374  1.0000
  Cd  Cd4       1.0  0.15929368145720696  0.2774818506590434  0.6089557292767226  1.0000
  H   H1        1.0  0.0863863812178778  0.9125308824253724  0.30530728193759427  1.0000
  H   H2        1.0  0.9136052873789923  0.08747049150498751  0.6946891141336167  1.0000
  H   H3        1.0  0.23162721272403533  0.033463551510571704  0.14804474682402  1.0000
  H   H4        1.0  0.768374217192772  0.9665352608211039  0.8519551598350787  1.0000
  H   H5        1.0  0.6777671955929492  0.769011989589501  0.6377648846423866  1.0000
  H   H6        1.0  0.32223658517300896  0.23099392419256046  0.36222742893242815  1.0000
  H   H7        1.0  0.9212116206571324  0.554503618955998  0.6471507143446474  1.0000
  H   H8        1.0  0.07878561155285982  0.44549515116140975  0.3528499347866543  1.0000
  H   H9        1.0  0.92683230319345  0.6245434655402137  0.7769001558461568  1.0000
  H   H10       1.0  0.07317131653413608  0.3754544868797041  0.22309898782356907  1.0000
  H   H11       1.0  0.780874198948453  0.5274739853730637  0.9398589518501765  1.0000
  H   H12       1.0  0.21912952138537628  0.4725327999610017  0.06013820296500678  1.0000
  H   H13       1.0  0.5238562729792164  0.3537583647003827  0.20491641904501992  1.0000
  H   H14       1.0  0.4761375249963109  0.646243020870223  0.7950840552771938  1.0000
  H   H15       1.0  0.366612424741504  0.20234905271934883  0.22274105785372464  1.0000
  H   H16       1.0  0.6333836801666664  0.7976505838061456  0.7772620755719402  1.0000
  H   H17       1.0  0.37265571674426917  0.1028167296837381  0.998387433887956  1.0000
  H   H18       1.0  0.6273518574158741  0.8971741819023581  0.0016194604397625628  1.0000
  H   H19       1.0  0.3731374989947724  0.055986954085192095  0.8530082005614545  1.0000
  H   H20       1.0  0.6268806865542587  0.9440031739032052  0.14700025967857033  1.0000
  H   H21       1.0  0.5246813068477465  0.1674253970381656  0.6996343004270287  1.0000
  H   H22       1.0  0.4753264492271398  0.8325637525101541  0.30037181039416083  1.0000
  H   H23       1.0  0.224951258543193  0.9924004309630303  0.0028676691544902567  1.0000
  H   H24       1.0  0.7750410299306479  0.007595633863004997  0.9971371822943882  1.0000
  H   H25       1.0  0.2234913056346599  0.8998713827414022  0.7750600868231177  1.0000
  H   H26       1.0  0.7765100333247759  0.10012831060915767  0.2249402115892423  1.0000
  H   H27       1.0  0.07183584479209766  0.7434146523091631  0.7948929443101278  1.0000
  H   H28       1.0  0.9281664351936739  0.25658593802349833  0.20510501767338246  1.0000
  H   H29       1.0  0.8209762243953164  0.5635995856368153  0.06177395835471349  1.0000
  H   H30       1.0  0.1790312326429628  0.4363922150826412  0.9382295138801808  1.0000
  H   H31       1.0  0.6792139347012666  0.46277348457618234  0.22694810922760666  1.0000
  H   H32       1.0  0.3207944546418489  0.5372192158302056  0.7730517552964076  1.0000
  H   H33       1.0  0.694948234503684  0.5230791687381213  0.3570037594596799  1.0000
  H   H34       1.0  0.3050545307941803  0.47691700703322243  0.6429966932446121  1.0000
  H   H35       1.0  0.554337783286833  0.9567293267380493  0.6600510729291998  1.0000
  H   H36       1.0  0.4456683910083896  0.043273958332420606  0.3399428723547829  1.0000
  H   H37       1.0  0.23616542514041322  0.9380932451847956  0.5290466336363907  1.0000
  H   H38       1.0  0.7638297222258005  0.0619152164061134  0.47095342527076406  1.0000
  C   C1        1.0  0.08510394534425099  0.9016323016679026  0.23972868439190614  1.0000
  C   C2        1.0  0.9148878316529904  0.09836818583391961  0.7602698624900981  1.0000
  C   C3        1.0  0.16636210535572366  0.9677709058004068  0.15212599856783277  1.0000
  C   C4        1.0  0.8336307385112177  0.0322295868453395  0.8478749052601842  1.0000
  C   C5        1.0  0.5197510722919104  0.7445133679270555  0.5772871720693546  1.0000
  C   C6        1.0  0.4802467196719391  0.2554898286576517  0.4227101650821012  1.0000
  C   C7        1.0  0.577465043341256  0.8043819438703963  0.6175955692275252  1.0000
  C   C8        1.0  0.4225352243877296  0.19561774568865078  0.3824017365978066  1.0000
  C   C9        1.0  0.5833686193609181  0.6227809496806103  0.5812737137315339  1.0000
  C   C10       1.0  0.41663012235076025  0.37722314118137484  0.41872255827310323  1.0000
  C   C11       1.0  0.8576236862865584  0.5160162454178804  0.7185967779033932  1.0000
  C   C12       1.0  0.14238557056851414  0.48397822757984704  0.2814036845090939  1.0000
  C   C13       1.0  0.8605976642728805  0.5545463682187731  0.7914746493178414  1.0000
  C   C14       1.0  0.13941369143559967  0.445448125886081  0.20852544185854785  1.0000
  C   C15       1.0  0.780305767076854  0.5014290678702905  0.8810382573446561  1.0000
  C   C16       1.0  0.2197030867019905  0.49856894137468544  0.11895805131175761  1.0000
  C   C17       1.0  0.6949940074109122  0.41210674771568995  0.8963898401590527  1.0000
  C   C18       1.0  0.3050006406335797  0.5878964158559086  0.1036086894875723  1.0000
  C   C19       1.0  0.6067446890456764  0.35364492462174013  0.9884455642026638  1.0000
  C   C20       1.0  0.393247673869915  0.6463599812329122  0.011553484545586907  1.0000
  C   C21       1.0  0.5242944639342256  0.32984602728547696  0.14457056824219447  1.0000
  C   C22       1.0  0.475704116739081  0.6701501022143647  0.8554325338573533  1.0000
  C   C23       1.0  0.4365812769679138  0.24441579497232627  0.15496847879584408  1.0000
  C   C24       1.0  0.5634169311544069  0.7555838613078906  0.8450349190347312  1.0000
  C   C25       1.0  0.5202010288422514  0.2663025341758996  0.9996192014304768  1.0000
  C   C26       1.0  0.47979963852958457  0.7337033371261654  0.0003787541266148922  1.0000
  C   C27       1.0  0.5199513381359537  0.23443906205809378  0.9198069454166173  1.0000
  C   C28       1.0  0.4800542982091541  0.7655597897830191  0.08019349005229515  1.0000
  C   C29       1.0  0.43620325755505707  0.1473156913716807  0.9287717072799141  1.0000
  C   C30       1.0  0.5638083018719084  0.8526770339333399  0.07123077859501592  1.0000
  C   C31       1.0  0.43707825764730057  0.1217587690890909  0.8502361629170351  1.0000
  C   C32       1.0  0.5629328426320654  0.8782383626627847  0.14976764608321247  1.0000
  C   C33       1.0  0.5221974444333385  0.18449345606296672  0.763153156065819  1.0000
  C   C34       1.0  0.4778129658880559  0.8155001424121976  0.23684863589840435  1.0000
  C   C35       1.0  0.6042242058059132  0.29195425311213097  0.8300870440040812  1.0000
  C   C36       1.0  0.3957716000656433  0.7080480345844932  0.16991345083528836  1.0000
  C   C37       1.0  0.6950709520722569  0.3809708771975195  0.8183240301594737  1.0000
  C   C38       1.0  0.3049230418276352  0.6190384589159379  0.18167469919595186  1.0000
  C   C39       1.0  0.1635121993305617  0.9455874771870681  0.07265031538219101  1.0000
  C   C40       1.0  0.836476555229936  0.05441208681587279  0.9273534817288294  1.0000
  C   C41       1.0  0.08000850619847451  0.8587560460656363  0.08079570367605274  1.0000
  C   C42       1.0  0.9199815793823376  0.1412408827293916  0.9192080038391524  1.0000
  C   C43       1.0  0.07760514822883377  0.8288505071876316  0.000355181828730648  1.0000
  C   C44       1.0  0.9223886497466933  0.17115087838298143  0.9996452924934829  1.0000
  C   C45       1.0  0.15678528930388316  0.8549547284751353  0.8436998796794911  1.0000
  C   C46       1.0  0.8432120338634874  0.14504316062338063  0.15630037769854974  1.0000
  C   C47       1.0  0.07163952359668713  0.767153504007453  0.8553096349265631  1.0000
  C   C48       1.0  0.9283620925956129  0.2328435449340347  0.14469012386701505  1.0000
  C   C49       1.0  0.9921420745223342  0.7401847051684103  0.012157159532321854  1.0000
  C   C50       1.0  0.007854854290300804  0.2598167174725461  0.9878402153716693  1.0000
  C   C51       1.0  0.9073896609724841  0.6788001320292311  0.10511049995105276  1.0000
  C   C52       1.0  0.0926063268138151  0.32120039362962427  0.8948892113817879  1.0000
  C   C53       1.0  0.8236663324209843  0.5880999746811498  0.12095699055326037  1.0000
  C   C54       1.0  0.17633547004680136  0.41189531087014325  0.8790426203748043  1.0000
  C   C55       1.0  0.7476500888710048  0.5316328480204717  0.21114745613984112  1.0000
  C   C56       1.0  0.2523559113035958  0.4683624797450888  0.7888514123160137  1.0000
  C   C57       1.0  0.7550359809421181  0.5661164994048279  0.28532066893291136  1.0000
  C   C58       1.0  0.24496488486008158  0.43387788781195286  0.714681914065018  1.0000
  C   C59       1.0  0.910365783413134  0.7075438696337955  0.1836911096798062  1.0000
  C   C60       1.0  0.0896274504477859  0.29245309082192966  0.8163120409812451  1.0000
  C   C61       1.0  0.9990415480218857  0.7985204621126416  0.1711006282951288  1.0000
  C   C62       1.0  0.0009534900165846009  0.2014791692689357  0.8289001481845306  1.0000
  C   C63       1.0  0.3042731402454635  0.06302218435384789  0.6172893205470089  1.0000
  C   C64       1.0  0.6957319241909233  0.9369819617150629  0.38270965159539827  1.0000
  C   C65       1.0  0.3479663614859945  0.7473189152963755  0.48287706066459896  1.0000
  C   C66       1.0  0.6520374628874491  0.25268698496157077  0.5171216093203626  1.0000
  C   C67       1.0  0.3809480029125325  0.9526206879281317  0.6038263915986662  1.0000
  C   C68       1.0  0.6190556090209255  0.04738698383447121  0.3961686124057167  1.0000
  C   C69       1.0  0.5089837380221381  0.9077608734684758  0.6308340379539601  1.0000
  C   C70       1.0  0.4910174881761761  0.09223970766303322  0.3691634740065838  1.0000
  C   C71       1.0  0.3984149842230806  0.7955335542170302  0.5421621563310169  1.0000
  C   C72       1.0  0.6015866110928486  0.20447321812437022  0.4578315558741792  1.0000
  C   C73       1.0  0.3296313956001455  0.8982543676688337  0.556693045669384  1.0000
  C   C74       1.0  0.670373998707113  0.1017559817816789  0.4432964059485443  1.0000
  N   N1        1.0  0.7775106812811998  0.43161511749771353  0.731995449971457  1.0000
  N   N2        1.0  0.22248549714134208  0.5683836434185423  0.2680047491368854  1.0000
  N   N3        1.0  0.6031215817303135  0.26634460211826644  0.7539945239341108  1.0000
  N   N4        1.0  0.3968840458933016  0.7336542524276696  0.246004640252771  1.0000
  N   N5        1.0  0.6082691746984352  0.38455538800259603  0.062180439861094755  1.0000
  N   N6        1.0  0.3917311235557932  0.6154442920895776  0.9378213154513518  1.0000
  N   N7        1.0  0.43429264235692955  0.2123256110372012  0.08380312211974676  1.0000
  N   N8        1.0  0.5657078334512915  0.7876723083696009  0.9161972140451553  1.0000
  N   N9        1.0  0.0037804444271784766  0.8208141166282916  0.24787084416954744  1.0000
  N   N10       1.0  0.9962152748477565  0.17918905073481986  0.7521306780641056  1.0000
  N   N11       1.0  0.8346255445104375  0.65130055188353  0.27166425813176437  1.0000
  N   N12       1.0  0.16536855686244678  0.34869818116353474  0.7283394904177599  1.0000
  N   N13       1.0  0.16025149542235784  0.8854570172407464  0.9155438458852386  1.0000
  N   N14       1.0  0.839744687360934  0.11454174232309813  0.08445698886411891  1.0000
  N   N15       1.0  0.9903245582064173  0.7099535983831515  0.9381028949345379  1.0000
  N   N16       1.0  0.009675054450589502  0.2900425470799064  0.0618974789828926  1.0000
  Cl  Cl1       1.0  0.969422378302575  0.3582457395272273  0.5142186992062037  1.0000
  Cl  Cl2       1.0  0.030570166527759617  0.6417574042896489  0.48577956603551803  1.0000
  O   O1        1.0  0.689009623236231  0.604773862437945  0.5175848334018414  1.0000
  O   O2        1.0  0.31099255707066215  0.3952276116184309  0.4824122490528993  1.0000
  O   O3        1.0  0.5356931837054618  0.5395578798315341  0.6553293358069114  1.0000
  O   O4        1.0  0.4643036410675593  0.4604444278855411  0.3446665239273017  1.0000
  O   O5        1.0  0.3811764050195947  0.6367170189863814  0.495777515890822  1.0000
  O   O6        1.0  0.6188210835468908  0.36328883012186713  0.5042165470333159  1.0000
  O   O7        1.0  0.2817766236937373  0.8161350944636466  0.42258500701020557  1.0000
  O   O8        1.0  0.7182214034412128  0.18387604049220846  0.5774163059435936  1.0000
  O   O9        1.0  0.19692677357082997  0.1047232006971157  0.5805971828823432  1.0000
  O   O10       1.0  0.8030775055894711  0.8952782944663867  0.41939952833629224  1.0000
  O   O11       1.0  0.3468290424921818  0.11150302114049991  0.6628950865518705  1.0000
  O   O12       1.0  0.6531697384662393  0.8885010575497814  0.33710690622190514  1.0000
