data_image0
_chemical_formula_structural       Zn2H12C25N2O13
_chemical_formula_sum              "Zn2 H12 C25 N2 O13"
_cell_length_a       9.321493745730953
_cell_length_b       9.837246202780301
_cell_length_c       11.005382720434165
_cell_angle_alpha    95.59174512248613
_cell_angle_beta     83.47670125585095
_cell_angle_gamma    94.72783821189321

_space_group_name_H-M_alt    "P 1"
_space_group_IT_number       1

loop_
  _space_group_symop_operation_xyz
  'x, y, z'

loop_
  _atom_site_type_symbol
  _atom_site_label
  _atom_site_symmetry_multiplicity
  _atom_site_fract_x
  _atom_site_fract_y
  _atom_site_fract_z
  _atom_site_occupancy
  Zn  Zn1       1.0  0.48408729402009243  0.36139109230015254  0.4889016112174076  1.0000
  Zn  Zn2       1.0  0.5113057429116025  0.6545306012097144  0.5152999204970925  1.0000
  H   H1        1.0  0.7931062662445852  0.2025482624051804  0.5865064881773209  1.0000
  H   H2        1.0  0.31268686189074657  0.2060291033732753  0.8865839637568699  1.0000
  H   H3        1.0  0.2410022128365554  0.19922741430334412  0.4018652685756905  1.0000
  H   H4        1.0  0.9561280193764077  0.2341062290284128  0.3981229309433019  1.0000
  H   H5        1.0  0.807330658474804  0.9565831619712313  0.6181991330884742  1.0000
  H   H6        1.0  0.28678123472582223  0.8431335450725685  0.48470418251731934  1.0000
  H   H7        1.0  0.5640239509914549  0.7075710589535191  0.8968572374804041  1.0000
  H   H8        1.0  0.8459324690472555  0.9155854512684912  0.4562110715701096  1.0000
  H   H9        1.0  0.5615759647471777  0.7138950041314446  0.12299218315003911  1.0000
  H   H10       1.0  0.6021563873042267  0.17671429146467688  0.1665758515501139  1.0000
  H   H11       1.0  0.2249966937795662  0.09520422935425901  0.11819161942223391  1.0000
  H   H12       1.0  0.4621392618894689  0.01077420963294171  0.8438896287835362  1.0000
  C   C1        1.0  0.5007633310148024  0.49248024613056895  0.7341740747286635  1.0000
  C   C2        1.0  0.6083214069723579  0.09473575692143749  0.49895002003083994  1.0000
  C   C3        1.0  0.7674340792777413  0.13188645696915563  0.5073409032514817  1.0000
  C   C4        1.0  0.7808641603957868  0.5301565385678019  0.48883486559059014  1.0000
  C   C5        1.0  0.7779064283448703  0.9734155734218887  0.5274355756257947  1.0000
  C   C6        1.0  0.4997885979913406  0.49789277056726905  0.2665072385523644  1.0000
  C   C7        1.0  0.21484888045635833  0.5166012230889265  0.5194533247527247  1.0000
  C   C8        1.0  0.9341949330308381  0.5256598838865258  0.49807282591371665  1.0000
  C   C9        1.0  0.061538124609917574  0.5205943739493009  0.5100298636926582  1.0000
  C   C10       1.0  0.477131552458424  0.37362692917709955  0.9306398842753723  1.0000
  C   C11       1.0  0.5070108524921153  0.4916620095309554  0.8687621448953138  1.0000
  C   C12       1.0  0.5387835726572445  0.6169262022414658  0.06940867013759092  1.0000
  C   C13       1.0  0.5395885900525315  0.6134835608610772  0.9421844582344149  1.0000
  C   C14       1.0  0.5144482740615715  0.13037762966393976  0.1121158303745773  1.0000
  C   C15       1.0  0.26577343172954937  0.2053098370038384  0.1232667406784529  1.0000
  C   C16       1.0  0.5137965944993751  0.11725273575458318  0.8436086159291634  1.0000
  C   C17       1.0  0.2345925155624755  0.09656612443120592  0.4363443317552864  1.0000
  C   C18       1.0  0.8498846085098888  0.17668306709369833  0.38843436446688884  1.0000
  C   C19       1.0  0.5060184960466357  0.497526577882418  0.13088268741665132  1.0000
  C   C20       1.0  0.4767993034478905  0.37744327031055763  0.057140567874171204  1.0000
  C   C21       1.0  0.42163699065161353  0.22976644994941614  0.06474413064663762  1.0000
  C   C22       1.0  0.42301415434720013  0.22420004186942322  0.914859188414674  1.0000
  C   C23       1.0  0.6181759440931529  0.956636570287259  0.5148260039352908  1.0000
  C   C24       1.0  0.3818962016634586  0.9150037223911981  0.48938783768830524  1.0000
  C   C25       1.0  0.3728497114173948  0.0525315197373075  0.4706432471646949  1.0000
  N   N1        1.0  0.5060737751480814  0.8639454949822324  0.5125471702648171  1.0000
  N   N2        1.0  0.48866820398108496  0.14725772437354584  0.476389982884271  1.0000
  O   O1        1.0  0.4744203444130691  0.37676551056847535  0.6747010288928834  1.0000
  O   O2        1.0  0.19167188644247088  0.29600629891663033  0.170643785303227  1.0000
  O   O3        1.0  0.633549155787719  0.14034516315113174  0.7892183602407813  1.0000
  O   O4        1.0  0.12164834866751312  0.023470433641648504  0.44473157760438653  1.0000
  O   O5        1.0  0.8046256657375325  0.14916865392014245  0.2886052805351724  1.0000
  O   O6        1.0  0.5215210452462954  0.6079711616472853  0.6894316647353023  1.0000
  O   O7        1.0  0.7075361355022591  0.4148704266019578  0.48333945164748127  1.0000
  O   O8        1.0  0.7337871432263867  0.6476866827884606  0.48893510836946064  1.0000
  O   O9        1.0  0.49177566290188685  0.38003213967977706  0.3079492197911833  1.0000
  O   O10       1.0  0.5025952313431503  0.6125468917440318  0.33031293998704575  1.0000
  O   O11       1.0  0.2644955103859985  0.39882204291485834  0.5064579721025383  1.0000
  O   O12       1.0  0.2857384423116329  0.6311733645633025  0.5387129698545436  1.0000
  O   O13       1.0  0.48998188953392935  0.0062168136482014975  0.0943533470698057  1.0000
