data_image0
_chemical_formula_structural       Cd4H32C48S8N40O8
_chemical_formula_sum              "Cd4 H32 C48 S8 N40 O8"
_cell_length_a       10.894621071007869
_cell_length_b       11.007989481022348
_cell_length_c       13.842010654031636
_cell_angle_alpha    90.00021677563923
_cell_angle_beta     90.00010818081142
_cell_angle_gamma    89.9999136646168

_space_group_name_H-M_alt    "P 1"
_space_group_IT_number       1

loop_
  _space_group_symop_operation_xyz
  'x, y, z'

loop_
  _atom_site_type_symbol
  _atom_site_label
  _atom_site_symmetry_multiplicity
  _atom_site_fract_x
  _atom_site_fract_y
  _atom_site_fract_z
  _atom_site_occupancy
  Cd  Cd1       1.0  0.5636006496034369  0.7266693225129826  0.8664644889389308  1.0000
  Cd  Cd2       1.0  0.9364008664911622  0.27333165094113804  0.36646519451741  1.0000
  Cd  Cd3       1.0  0.0636016078177661  0.7733304089054869  0.1335338214095287  1.0000
  Cd  Cd4       1.0  0.43640402933995404  0.2266683805293112  0.6335343408277225  1.0000
  H   H1        1.0  0.07330801227649889  0.985266346270457  0.8383024210733298  1.0000
  H   H2        1.0  0.4266944514963242  0.014738878243114994  0.3383059547789316  1.0000
  H   H3        1.0  0.5733074949177848  0.5147315536764693  0.1616973483704243  1.0000
  H   H4        1.0  0.926696276684588  0.4852629847134651  0.6616979009774155  1.0000
  H   H5        1.0  0.1565137761689712  0.09765333153111298  0.6856304214992335  1.0000
  H   H6        1.0  0.34348372677441563  0.9023484336854533  0.1856364757362456  1.0000
  H   H7        1.0  0.6565167172063369  0.40234621286400324  0.3143687037810068  1.0000
  H   H8        1.0  0.8434837542679292  0.5976508763963224  0.8143673017378036  1.0000
  H   H9        1.0  0.017987464898148196  0.0513221693245853  0.5309164559638049  1.0000
  H   H10       1.0  0.4820041543606238  0.9486724930417479  0.0309199613169255  1.0000
  H   H11       1.0  0.5179916303318278  0.4486739498876914  0.4690817439182382  1.0000
  H   H12       1.0  0.9820064638736169  0.5513238832096335  0.9690840191014091  1.0000
  H   H13       1.0  0.19919950170370268  0.7189838184962981  0.6787689352854613  1.0000
  H   H14       1.0  0.300798902429662  0.2810242727545855  0.1787774119079941  1.0000
  H   H15       1.0  0.6991980529827868  0.7810220678028654  0.32122885129856366  1.0000
  H   H16       1.0  0.8007941742172521  0.21897868816382268  0.8212248145181816  1.0000
  H   H17       1.0  0.055250405947667496  0.6147102614976063  0.5498538771554777  1.0000
  H   H18       1.0  0.4447458488002595  0.3852944846657777  0.0498621526585126  1.0000
  H   H19       1.0  0.5552527851362327  0.8852922077909042  0.4501473107177034  1.0000
  H   H20       1.0  0.9447425093453177  0.11470190052916958  0.9501402846562924  1.0000
  H   H21       1.0  0.0778759640934936  0.7185871132522407  0.37900170188896  1.0000
  H   H22       1.0  0.42212292716376254  0.281413764793939  0.8790103101863807  1.0000
  H   H23       1.0  0.5778770798113795  0.7814080545163903  0.6209951844908588  1.0000
  H   H24       1.0  0.9221238391170273  0.21858447131765496  0.1209920939893365  1.0000
  H   H25       1.0  0.9746438275988608  0.8548533143735069  0.9208797634180854  1.0000
  H   H26       1.0  0.525360574526104  0.1451479206927857  0.4208794851707793  1.0000
  H   H27       1.0  0.4746430109796406  0.645144889810865  0.0791191491482479  1.0000
  H   H28       1.0  0.0253606580383021  0.3548509127264481  0.5791230601450791  1.0000
  H   H29       1.0  0.32585189634035316  0.8423006758454648  0.7436911382470726  1.0000
  H   H30       1.0  0.1741494193959454  0.1576986432312992  0.24370267437434018  1.0000
  H   H31       1.0  0.8258513935359558  0.6576968438922677  0.2563017768154694  1.0000
  H   H32       1.0  0.6741489366735961  0.34230450835340054  0.7563015338156163  1.0000
  C   C1        1.0  0.8178500638726403  0.7892067158362934  0.9826530909282455  1.0000
  C   C2        1.0  0.6821498991133126  0.21079481623045376  0.4826546827057783  1.0000
  C   C3        1.0  0.31784808008700344  0.7107926328232637  0.0173448694811924  1.0000
  C   C4        1.0  0.18214809556887698  0.28920650643830464  0.5173452025716472  1.0000
  C   C5        1.0  0.8473395981002766  0.8409968466946153  0.8110885188979536  1.0000
  C   C6        1.0  0.6526627011597341  0.15900476895094326  0.3110877459763941  1.0000
  C   C7        1.0  0.3473335203743487  0.6590033660076173  0.1889109295918345  1.0000
  C   C8        1.0  0.1526603190042408  0.34100114026347944  0.6889113736671959  1.0000
  C   C9        1.0  0.9252531451355351  0.912061382913528  0.7473277136360466  1.0000
  C   C10       1.0  0.5747471632430246  0.08793992618824831  0.2473280598769918  1.0000
  C   C11       1.0  0.42525375488782646  0.5879359871972768  0.252672571444343  1.0000
  C   C12       1.0  0.07474941845860879  0.412060649746067  0.7526760026763882  1.0000
  C   C13       1.0  0.0300159242714244  0.979861043549725  0.7674759656646089  1.0000
  C   C14       1.0  0.4699845314301569  0.0201420235835386  0.2674788564462958  1.0000
  C   C15       1.0  0.5300183247162877  0.5201369215672713  0.23252301791552546  1.0000
  C   C16       1.0  0.9699856191866799  0.4798570489023603  0.7325221729762745  1.0000
  C   C17       1.0  0.07522324478062359  0.0404231406721252  0.6851563571728292  1.0000
  C   C18       1.0  0.4247733391270572  0.9595768054044241  0.18516270088128553  1.0000
  C   C19       1.0  0.5752261006634215  0.45957380080498916  0.31484120412751787  1.0000
  C   C20       1.0  0.9247734540776734  0.5404223822982175  0.8148404732520759  1.0000
  C   C21       1.0  0.004523136199409799  0.0182518294794605  0.6040510032051642  1.0000
  C   C22       1.0  0.4954695788615168  0.9817440929322957  0.10405462673882938  1.0000
  C   C23       1.0  0.5045252380731  0.48174431000422396  0.3959471769487379  1.0000
  C   C24       1.0  0.9954735960988758  0.5182540799119764  0.8959508182884902  1.0000
  C   C25       1.0  0.45460709354080103  0.975753682552245  0.7573296232881788  1.0000
  C   C26       1.0  0.04539609113341209  0.0242457020751843  0.2573333491002217  1.0000
  C   C27       1.0  0.9546067588189403  0.5242454602219268  0.2426670926087837  1.0000
  C   C28       1.0  0.5453981276408725  0.4757558264664965  0.7426663358216244  1.0000
  C   C29       1.0  0.3468445966163358  0.9262766137397307  0.6082116834359397  1.0000
  C   C30       1.0  0.15315914317523044  0.0737284129897731  0.1082200490649825  1.0000
  C   C31       1.0  0.846839960621345  0.5737254165566625  0.3917827072635944  1.0000
  C   C32       1.0  0.6531597812978089  0.42627477019038196  0.8917826834960891  1.0000
  C   C33       1.0  0.25937942543956183  0.8430388493538247  0.564393439317449  1.0000
  C   C34       1.0  0.24062237198241124  0.1569659667043197  0.0644000135760621  1.0000
  C   C35       1.0  0.7593766062855065  0.6569614957567822  0.43560226811204217  1.0000
  C   C36       1.0  0.7406214064684062  0.3430389016678603  0.9356028471291609  1.0000
  C   C37       1.0  0.1923281079597459  0.7478426825646243  0.6037618065510273  1.0000
  C   C38       1.0  0.3076737852334047  0.25216504806041223  0.1037680400141667  1.0000
  C   C39       1.0  0.6923259673542148  0.7521595803569242  0.3962366923981762  1.0000
  C   C40       1.0  0.8076673602074677  0.24784062780105381  0.8962334740488274  1.0000
  C   C41       1.0  0.115514931974289  0.6912182478031282  0.5350332114534311  1.0000
  C   C42       1.0  0.3844840403673118  0.3087873355288266  0.0350390035845152  1.0000
  C   C43       1.0  0.6155147089487869  0.808784130767414  0.46497023202676496  1.0000
  C   C44       1.0  0.8844797037064112  0.19121277411058196  0.9649626230068193  1.0000
  C   C45       1.0  0.1253857087833197  0.7437098977504132  0.4448000184879675  1.0000
  C   C46       1.0  0.3746142604290911  0.2562949303680995  0.9448106497093391  1.0000
  C   C47       1.0  0.625382112890854  0.7562924659470982  0.5551969375058832  1.0000
  C   C48       1.0  0.8746131386546097  0.24370428569623925  0.0551909624227562  1.0000
  S   S1        1.0  0.8842088819793544  0.9240714919578606  0.6269261180592594  1.0000
  S   S2        1.0  0.6157883798419519  0.0759265129902218  0.126927211111223  1.0000
  S   S3        1.0  0.3842116385198933  0.575924123075673  0.37307266200913597  1.0000
  S   S4        1.0  0.11579090984573531  0.42407309272387295  0.8730754666938196  1.0000
  S   S5        1.0  0.22663741816250388  0.8617077496747851  0.44297611134680176  1.0000
  S   S6        1.0  0.273362546611601  0.138294344375069  0.942984075622057  1.0000
  S   S7        1.0  0.7266367583122103  0.638289919432303  0.5570195481098068  1.0000
  S   S8        1.0  0.7733621692046453  0.3617095662699725  0.0570159432963777  1.0000
  N   N1        1.0  0.6992447728824088  0.7555349017525755  0.9842401510828297  1.0000
  N   N2        1.0  0.8007588655029777  0.2444657295129389  0.4842427393111278  1.0000
  N   N3        1.0  0.19924457022318615  0.7444655338908956  0.0157576355603197  1.0000
  N   N4        1.0  0.3007589446463825  0.255533597737724  0.5157594870544955  1.0000
  N   N5        1.0  0.6755475980345409  0.7196442573521435  0.07605554596930379  1.0000
  N   N6        1.0  0.8244568831039344  0.2803553198802362  0.5760575060769497  1.0000
  N   N7        1.0  0.1755477148770481  0.7803562139677  0.9239429283936786  1.0000
  N   N8        1.0  0.3244549572401141  0.21964306326295713  0.4239440325674906  1.0000
  N   N9        1.0  0.7750160032602692  0.7315293101209048  0.1274520714649512  1.0000
  N   N10       1.0  0.7249895207964839  0.2684705142117422  0.6274531280215713  1.0000
  N   N11       1.0  0.2750150951080386  0.7684710114568813  0.8725472710671268  1.0000
  N   N12       1.0  0.22498469832186163  0.23152892710598388  0.3725475424537876  1.0000
  N   N13       1.0  0.8847903100188147  0.8345735311934986  0.906351431228046  1.0000
  N   N14       1.0  0.6152122209926246  0.1654285424549897  0.40635062256047405  1.0000
  N   N15       1.0  0.38479225181124127  0.6654248082569083  0.0936466272572645  1.0000
  N   N16       1.0  0.1152169598521411  0.3345728809835434  0.5936506095279626  1.0000
  N   N17       1.0  0.5228500671641713  0.9263578592587008  0.8277037689655415  1.0000
  N   N18       1.0  0.9771486009857498  0.07364020255340618  0.32770538464068727  1.0000
  N   N19       1.0  0.022852338708204897  0.5736401166479581  0.1722959265541775  1.0000
  N   N20       1.0  0.4771497212071978  0.42635885914039306  0.6722927655244177  1.0000
  N   N21       1.0  0.3677917606031825  0.9113594851636221  0.7056765632698472  1.0000
  N   N22       1.0  0.13220670899622888  0.08863783427628391  0.2056834977256159  1.0000
  N   N23       1.0  0.8677896186597565  0.5886406967390273  0.2943200254337626  1.0000
  N   N24       1.0  0.6322071324990902  0.4113653804485863  0.7943199265762287  1.0000
  N   N25       1.0  0.5959666920760113  0.016668608016509295  0.8616086697705186  1.0000
  N   N26       1.0  0.9040320585522181  0.9833287083623928  0.3616063845423625  1.0000
  N   N27       1.0  0.09596918117868111  0.483328302241368  0.1383925341128318  1.0000
  N   N28       1.0  0.4040346320263311  0.516669602113133  0.6383888123809598  1.0000
  N   N29       1.0  0.5733122599650143  0.11598273949323361  0.8134980158999311  1.0000
  N   N30       1.0  0.9266854557347911  0.8840152540079625  0.3134940233257808  1.0000
  N   N31       1.0  0.07331318011502222  0.38401420487090127  0.18650315479119678  1.0000
  N   N32       1.0  0.4266852428271052  0.6159848392265984  0.6865004843493593  1.0000
  N   N33       1.0  0.8665913675166903  0.7750284200286898  0.0708838318686347  1.0000
  N   N34       1.0  0.6334121831538085  0.22497113233537652  0.5708839023195793  1.0000
  N   N35       1.0  0.36659066258110323  0.7249717636852109  0.9291149223925146  1.0000
  N   N36       1.0  0.13341110423680647  0.2750284468497027  0.4291188013034954  1.0000
  N   N37       1.0  0.4836248186776827  0.09353804161402478  0.7476938928827295  1.0000
  N   N38       1.0  0.016373753128554797  0.9064603882464013  0.247692255730847  1.0000
  N   N39       1.0  0.9836257667557715  0.40646010190091886  0.2523049892076159  1.0000
  N   N40       1.0  0.5163727179628949  0.5935412311316952  0.7523052629881946  1.0000
  O   O1        1.0  0.7523330835609555  0.7895369494678377  0.7810609431334684  1.0000
  O   O2        1.0  0.7476663889973806  0.21046543024738898  0.2810611850412528  1.0000
  O   O3        1.0  0.2523380158882205  0.7104615893878544  0.2189369212905703  1.0000
  O   O4        1.0  0.24767700787836586  0.2895412443738721  0.7189416859953752  1.0000
  O   O5        1.0  0.39991545683818686  0.007353886839567299  0.5601494176297024  1.0000
  O   O6        1.0  0.10008541237413478  0.992646366651044  0.060152494327923  1.0000
  O   O7        1.0  0.8999130596548  0.4926452911256618  0.43984789693993054  1.0000
  O   O8        1.0  0.6000840455416422  0.5073569435728587  0.9398480367933643  1.0000
