data_image0
_chemical_formula_structural       Zn2P8H32C20N4O28
_chemical_formula_sum              "Zn2 P8 H32 C20 N4 O28"
_cell_length_a       8.557055423000985
_cell_length_b       9.182013553919598
_cell_length_c       11.610161435853364
_cell_angle_alpha    96.43283494795406
_cell_angle_beta     89.99997927389505
_cell_angle_gamma    90.00005262175614

_space_group_name_H-M_alt    "P 1"
_space_group_IT_number       1

loop_
  _space_group_symop_operation_xyz
  'x, y, z'

loop_
  _atom_site_type_symbol
  _atom_site_label
  _atom_site_symmetry_multiplicity
  _atom_site_fract_x
  _atom_site_fract_y
  _atom_site_fract_z
  _atom_site_occupancy
  Zn  Zn1       1.0  0.0  0.0  0.0  1.0000
  Zn  Zn2       1.0  0.5000003880422383  0.49999997904678395  0.5000004539725609  1.0000
  P   P1        1.0  0.09292364622690032  0.7608651206651089  0.185183405324473  1.0000
  P   P2        1.0  0.5929227022990277  0.7391349284692694  0.3148173675332657  1.0000
  P   P3        1.0  0.9070759612314915  0.23913483601616292  0.8148166411819061  1.0000
  P   P4        1.0  0.40707807378566235  0.26086502821249274  0.6851826789730069  1.0000
  P   P5        1.0  0.4948198294046692  0.2845041889553244  0.2291275319195734  1.0000
  P   P6        1.0  0.9948200527612839  0.21549729954127636  0.27087292402686103  1.0000
  P   P7        1.0  0.5051809466800209  0.7154957677264379  0.7708725145866994  1.0000
  P   P8        1.0  0.005179554697321001  0.7845026557281756  0.7291262610406691  1.0000
  H   H1        1.0  0.27365837375406704  0.4092764312600537  0.8685051927249177  1.0000
  H   H2        1.0  0.7736585441561133  0.0907244188830063  0.6314951102238808  1.0000
  H   H3        1.0  0.726342402330417  0.5907235268335143  0.131495715220197  1.0000
  H   H4        1.0  0.22634223192909528  0.9092766337840459  0.3685050322845314  1.0000
  H   H5        1.0  0.12272686211430538  0.6133729878127385  0.9459196108130713  1.0000
  H   H6        1.0  0.6227273602414768  0.8866288232300975  0.5540802919226877  1.0000
  H   H7        1.0  0.8772739139708962  0.38662806485431395  0.05408053169534101  1.0000
  H   H8        1.0  0.3772734158437316  0.11337222943695477  0.4459198505857175  1.0000
  H   H9        1.0  0.28902368273965356  0.5453315236044743  0.2876907212666211  1.0000
  H   H10       1.0  0.7890253376285018  0.9546686879776373  0.2123091528880607  1.0000
  H   H11       1.0  0.7109735874659364  0.4546684344876297  0.7123101866788345  1.0000
  H   H12       1.0  0.21097543845640127  0.045331267292297604  0.7876900321793627  1.0000
  H   H13       1.0  0.4250468027812743  0.2679289047420355  0.9774746213122114  1.0000
  H   H14       1.0  0.9250483340278424  0.23206987710544522  0.5225237379868588  1.0000
  H   H15       1.0  0.5749528046771177  0.7320710519392293  0.0225254251941678  1.0000
  H   H16       1.0  0.07495361068336588  0.7679300781649803  0.47747544708045103  1.0000
  H   H17       1.0  0.8904046849644376  0.6776310235320295  0.2816361530995479  1.0000
  H   H18       1.0  0.3904045039697053  0.8223681767765852  0.2183636057882126  1.0000
  H   H19       1.0  0.10959492249395453  0.32236893314923526  0.7183638934068313  1.0000
  H   H20       1.0  0.6095951034883883  0.17763068250757647  0.781635483277185  1.0000
  H   H21       1.0  0.2896802706237978  0.1685794466302895  0.2710655464623599  1.0000
  H   H22       1.0  0.789679459496739  0.3314196784835204  0.228934756461598  1.0000
  H   H23       1.0  0.7103205054606861  0.8314205114632857  0.7289353614827547  1.0000
  H   H24       1.0  0.21032014796187326  0.6685802767859315  0.7710644286059322  1.0000
  H   H25       1.0  0.2981074262474337  0.9013415312182502  0.9447197219960658  1.0000
  H   H26       1.0  0.798107642172596  0.5986582358112643  0.5552808168475494  1.0000
  H   H27       1.0  0.7018921812109654  0.0986584254630216  0.05528032451031349  1.0000
  H   H28       1.0  0.20189313391210112  0.40134172087049075  0.4447192296587232  1.0000
  H   H29       1.0  0.2966714475113862  0.9959473026856643  0.06993723660832529  1.0000
  H   H30       1.0  0.7966725538438341  0.5040529152865929  0.4300626360931333  1.0000
  H   H31       1.0  0.7033281599464943  0.004051558010317501  0.9300627138959144  1.0000
  H   H32       1.0  0.20332822224137456  0.49594813738045923  0.569937506415272  1.0000
  C   C1        1.0  0.18981089041937343  0.5548096060085188  0.005715011852814201  1.0000
  C   C2        1.0  0.6898123963212298  0.9451905226727035  0.4942848811548188  1.0000
  C   C3        1.0  0.8101887170385071  0.44518925468745607  0.9942849386514254  1.0000
  C   C4        1.0  0.3101883797639715  0.054810529994348725  0.5057152613535933  1.0000
  C   C5        1.0  0.1926074037982701  0.5957533641844037  0.12426894315074578  1.0000
  C   C6        1.0  0.6926089284043542  0.9042467654217324  0.37573008788662327  1.0000
  C   C7        1.0  0.8073922036601288  0.404246592496861  0.8757311033556335  1.0000
  C   C8        1.0  0.3073918476803428  0.0957531912600231  0.6242699586196494  1.0000
  C   C9        1.0  0.2839121191195774  0.5140000374859071  0.1943436550099022  1.0000
  C   C10       1.0  0.7839125897681499  0.9860001698245568  0.3056562201162123  1.0000
  C   C11       1.0  0.7160874883380898  0.48599882462188054  0.8056571569331866  1.0000
  C   C12       1.0  0.2160870176904552  0.013999785444895  0.6943429649513178  1.0000
  C   C13       1.0  0.3717156414974098  0.3949170283922783  0.1445488160817519  1.0000
  C   C14       1.0  0.8717192208502881  0.1050821624473528  0.3554497483752996  1.0000
  C   C15       1.0  0.6282816287076614  0.6050818337145429  0.8554519958615643  1.0000
  C   C16       1.0  0.128281555234615  0.8949177928225894  0.6445494366921238  1.0000
  C   C17       1.0  0.3626950270670193  0.3588163145127794  0.025013442634403298  1.0000
  C   C18       1.0  0.8626962452412315  0.14118396618547283  0.47498608097800604  1.0000
  C   C19       1.0  0.6373045803913726  0.6411836421684923  0.9749866038719761  1.0000
  C   C20       1.0  0.1373045308436716  0.8588159890844695  0.5250131040894175  1.0000
  N   N1        1.0  0.2739528591622644  0.438505556630183  0.9601728614995794  1.0000
  N   N2        1.0  0.7739542150287877  0.0614952909358095  0.539825718515452  1.0000
  N   N3        1.0  0.7260467482966463  0.5614954960363792  0.03982728100893951  1.0000
  N   N4        1.0  0.22604656105663426  0.9385057603194231  0.46017356255411107  1.0000
  O   O1        1.0  0.9859505142756576  0.8116228490805569  0.0947348402236088  1.0000
  O   O2        1.0  0.4859512782671587  0.6883775270505127  0.405264996510077  1.0000
  O   O3        1.0  0.0140502618090395  0.1883771076011982  0.9052652062826638  1.0000
  O   O4        1.0  0.5140494978175312  0.3116224296312425  0.5947350499961885  1.0000
  O   O5        1.0  0.22315423139954052  0.8653380959271928  0.2333074217785054  1.0000
  O   O6        1.0  0.7231543777784708  0.6346609632175773  0.2666915074521868  1.0000
  O   O7        1.0  0.7768465446853626  0.13466185934274225  0.7666917632889181  1.0000
  O   O8        1.0  0.27684522967992103  0.3653389934636877  0.7333085390541927  1.0000
  O   O9        1.0  0.0039654254761743  0.714710781367927  0.2947049634256302  1.0000
  O   O10       1.0  0.5039657495770626  0.7852891920229083  0.20529496489745466  1.0000
  O   O11       1.0  0.9960341819827365  0.2852902712986349  0.7052951790828957  1.0000
  O   O12       1.0  0.49603502650762726  0.2147107646588537  0.7947050816088179  1.0000
  O   O13       1.0  0.5168811650387539  0.3622662618910795  0.348764446856734  1.0000
  O   O14       1.0  0.016882005378619197  0.1377370149819939  0.151233707597811  1.0000
  O   O15       1.0  0.4831184424206682  0.6377358867607724  0.6512357916539315  1.0000
  O   O16       1.0  0.9831176020799928  0.8622629402874582  0.8487654774697191  1.0000
  O   O17       1.0  0.642392788170632  0.24599844182264263  0.1592197508041906  1.0000
  O   O18       1.0  0.14239247966271762  0.25400275219058704  0.3407807721123461  1.0000
  O   O19       1.0  0.3576068192880584  0.7540026122557393  0.8407812531431772  1.0000
  O   O20       1.0  0.8576071277956743  0.745997204490685  0.6592192743940402  1.0000
  O   O21       1.0  0.392999685491347  0.13882655141056696  0.23154682340685181  1.0000
  O   O22       1.0  0.8929977152524559  0.361173757432141  0.2684544173249108  1.0000
  O   O23       1.0  0.6070010905929166  0.8611734080948281  0.768454945977119  1.0000
  O   O24       1.0  0.1070018922059361  0.6388261992491309  0.7315456291814756  1.0000
  O   O25       1.0  0.25271684322360943  0.9885488031683637  0.9916500698025673  1.0000
  O   O26       1.0  0.7527169971222775  0.5114509245215616  0.5083496162275551  1.0000
  O   O27       1.0  0.7472827642347823  0.011451153512901198  0.008349976703812002  1.0000
  O   O28       1.0  0.2472826103361143  0.4885490321597032  0.491650430278824  1.0000
