data_image0
_chemical_formula_structural       CdH22C22S2N4O10
_chemical_formula_sum              "Cd1 H22 C22 S2 N4 O10"
_cell_length_a       5.779773115891355
_cell_length_b       10.567767299663084
_cell_length_c       11.675200310993187
_cell_angle_alpha    67.92389990983791
_cell_angle_beta     78.98524784833766
_cell_angle_gamma    76.09533030967701

_space_group_name_H-M_alt    "P 1"
_space_group_IT_number       1

loop_
  _space_group_symop_operation_xyz
  'x, y, z'

loop_
  _atom_site_type_symbol
  _atom_site_label
  _atom_site_symmetry_multiplicity
  _atom_site_fract_x
  _atom_site_fract_y
  _atom_site_fract_z
  _atom_site_occupancy
  Cd  Cd1       1.0  0.5000006731144849  0.5000028824306852  0.49999549925907155  1.0000
  H   H1        1.0  0.6737380452759468  0.516822727734315  0.7065784611073909  1.0000
  H   H2        1.0  0.32625351611000747  0.4831729528429563  0.2934186792755397  1.0000
  H   H3        1.0  0.4940141619897813  0.6638362523089257  0.6552425005620321  1.0000
  H   H4        1.0  0.5059810800728002  0.33615842124565637  0.3447606561266809  1.0000
  H   H5        1.0  0.05790536420516195  0.6502952857104916  0.7862610692215951  1.0000
  H   H6        1.0  0.9420729621867779  0.3497029704743682  0.21374921651631945  1.0000
  H   H7        1.0  0.7959834796437306  0.7774148895897355  0.763848640664463  1.0000
  H   H8        1.0  0.20399290068792905  0.22257639069349008  0.2361762641687193  1.0000
  H   H9        1.0  0.5237059085213855  0.7160977994708377  0.054752975385341004  1.0000
  H   H10       1.0  0.4763174264456822  0.28390446819171433  0.9452415403160188  1.0000
  H   H11       1.0  0.9911988713707699  0.8801399486640163  0.18682278367476368  1.0000
  H   H12       1.0  0.008827191189041595  0.11986537275875973  0.8131712689388876  1.0000
  H   H13       1.0  0.21546311183647748  0.8781168947259631  0.9195239459328234  1.0000
  H   H14       1.0  0.7845832620339976  0.1218920435703907  0.08046271140399601  1.0000
  H   H15       1.0  0.07052606696261418  0.3291724916235951  0.47873348602923477  1.0000
  H   H16       1.0  0.9294820288685981  0.6708199144156167  0.5212735844468596  1.0000
  H   H17       1.0  0.2899278369791176  0.08330422117665388  0.544798697549055  1.0000
  H   H18       1.0  0.7100527768008643  0.9166864279882392  0.4551952060211234  1.0000
  H   H19       1.0  0.6138697104212626  0.9611412560774963  0.732271241183149  1.0000
  H   H20       1.0  0.3860932070431673  0.03886405067839151  0.2677088403508421  1.0000
  H   H21       1.0  0.4265935266738481  0.20724236379435723  0.6577993940814436  1.0000
  H   H22       1.0  0.5733970062706886  0.7927645920035715  0.34218788365863867  1.0000
  C   C1        1.0  0.4636013122560029  0.9420167756651594  0.9951740899799972  1.0000
  C   C2        1.0  0.5364170839702495  0.05799080627677  0.004821577335981393  1.0000
  C   C3        1.0  0.5812028996190218  0.8053932006800936  0.058222454317700546  1.0000
  C   C4        1.0  0.4188192344676693  0.1946133280253122  0.9417766704327093  1.0000
  C   C5        1.0  0.7652728440128487  0.7859310325713124  0.12631985992848624  1.0000
  C   C6        1.0  0.23474726865091353  0.2140765573082888  0.8736782188554743  1.0000
  C   C7        1.0  0.8407042122516445  0.8995688590468518  0.13519186382713141  1.0000
  C   C8        1.0  0.15932011480938965  0.10043646984286171  0.8648006302756528  1.0000
  C   C9        1.0  0.2733856334638034  0.967018970372081  0.9237988259618959  1.0000
  C   C10       1.0  0.7266476751838907  0.0329789218898568  0.07619460845915427  1.0000
  C   C11       1.0  0.9762226544749169  0.24472977302073678  0.5360606819784052  1.0000
  C   C12       1.0  0.02378774959090176  0.7552676709563287  0.4639401268418766  1.0000
  C   C13       1.0  0.0986245328737354  0.10739492632381341  0.5733363739214923  1.0000
  C   C14       1.0  0.9013735312003913  0.8925955711486324  0.42666884997174737  1.0000
  C   C15       1.0  0.9743266737584122  0.0004591709348317929  0.6468274244093948  1.0000
  C   C16       1.0  0.025640229378268344  0.9995424144103214  0.3531818715535451  1.0000
  C   C17       1.0  0.7274031536253247  0.0366495251051475  0.6775051060591081  1.0000
  C   C18       1.0  0.27259365326705154  0.9633532550813866  0.32248820886434965  1.0000
  C   C19       1.0  0.6181587298215375  0.17558815625339716  0.6361626181473313  1.0000
  C   C20       1.0  0.38182690161718097  0.8244169301953974  0.3638309003709637  1.0000
  C   C21       1.0  0.10835191238410138  0.8526871658492611  0.6902187934914606  1.0000
  C   C22       1.0  0.8916504059951292  0.14731370018649406  0.3097901132754046  1.0000
  S   S1        1.0  0.9038138727056264  0.6142348196581011  0.21055928780958766  1.0000
  S   S2        1.0  0.09619485393786678  0.38576891575327465  0.7894428903629988  1.0000
  N   N1        1.0  0.739257721179804  0.2784663895066828  0.5680384060166901  1.0000
  N   N2        1.0  0.26073315487779064  0.7215386437320676  0.4319580821199622  1.0000
  N   N3        1.0  0.9775505725746992  0.7543789796535093  0.7544690912201871  1.0000
  N   N4        1.0  0.022403799064946366  0.24560948305193625  0.24554766265237044  1.0000
  O   O1        1.0  0.8201149192018915  0.5927573338023393  0.3440389206825146  1.0000
  O   O2        1.0  0.1798849774575543  0.4072465621806246  0.6559622885926828  1.0000
  O   O3        1.0  0.8215005603573148  0.5229571187450544  0.16499441138670792  1.0000
  O   O4        1.0  0.17850440936447848  0.4770476853074612  0.835005162308569  1.0000
  O   O5        1.0  0.16360739563152998  0.6130925151890949  0.18475430843007945  1.0000
  O   O6        1.0  0.8363995565031104  0.38690410567914313  0.8152548122237135  1.0000
  O   O7        1.0  0.3325326835700507  0.8267647887964812  0.6669068851009784  1.0000
  O   O8        1.0  0.6674274863681404  0.17322785887023434  0.3331181529927321  1.0000
  O   O9        1.0  0.6110176623653556  0.5902800385872595  0.6304381890716897  1.0000
  O   O10       1.0  0.3889895748007675  0.40970919839251246  0.36956493230315596  1.0000
