data_image0
_chemical_formula_structural       Zn2Mo4H28C12S8N4O16
_chemical_formula_sum              "Zn2 Mo4 H28 C12 S8 N4 O16"
_cell_length_a       8.624128020323665
_cell_length_b       9.933030928439228
_cell_length_c       10.206900623061294
_cell_angle_alpha    89.9996301595706
_cell_angle_beta     90.00024212097512
_cell_angle_gamma    107.98114454012696

_space_group_name_H-M_alt    "P 1"
_space_group_IT_number       1

loop_
  _space_group_symop_operation_xyz
  'x, y, z'

loop_
  _atom_site_type_symbol
  _atom_site_label
  _atom_site_symmetry_multiplicity
  _atom_site_fract_x
  _atom_site_fract_y
  _atom_site_fract_z
  _atom_site_occupancy
  Zn  Zn1       1.0  0.4632779809341728  0.15704317402631326  0.40640186443988563  1.0000
  Zn  Zn2       1.0  0.5367220474350847  0.8429564848895272  0.9064008138596193  1.0000
  Mo  Mo1       1.0  0.054079514698969426  0.19074504139654644  0.4100319078411798  1.0000
  Mo  Mo2       1.0  0.9459213079641416  0.809253537929479  0.9100335040526559  1.0000
  Mo  Mo3       1.0  0.8835065370977021  0.3854676247596275  0.4674106290549531  1.0000
  Mo  Mo4       1.0  0.11649598786891605  0.6145316732734116  0.9674124397684308  1.0000
  H   H1        1.0  0.926004970807256  0.96487788739222  0.22957274983522066  1.0000
  H   H2        1.0  0.07399147261612882  0.03512070202386042  0.7295731100666315  1.0000
  H   H3        1.0  0.12418009015812716  0.992957743549262  0.24224011452577798  1.0000
  H   H4        1.0  0.8758167659925535  0.007041829226679402  0.74223860689073  1.0000
  H   H5        1.0  0.8958904479445311  0.5097183762291879  0.7151691190387764  1.0000
  H   H6        1.0  0.10411284787743824  0.4902866506653752  0.21517465774912378  1.0000
  H   H7        1.0  0.8336458899260394  0.6081327871504314  0.6077296237071721  1.0000
  H   H8        1.0  0.16635941309059635  0.39187287730526793  0.1077399144659594  1.0000
  H   H9        1.0  0.24197358587081647  0.8680925252873876  0.3965265290313624  1.0000
  H   H10       1.0  0.7580237185466318  0.13190613296715276  0.8965297044400629  1.0000
  H   H11       1.0  0.1343461896995636  0.8093484153319184  0.544500920240047  1.0000
  H   H12       1.0  0.8656547944073409  0.19064598111250325  0.04450123597263199  1.0000
  H   H13       1.0  0.9533777716239416  0.7646696493288446  0.3428605036744301  1.0000
  H   H14       1.0  0.046618249090691705  0.2353261517146308  0.8428614820759889  1.0000
  H   H15       1.0  0.5536052972307532  0.5686280765111251  0.5499888990337992  1.0000
  H   H16       1.0  0.4464009977055312  0.4313779305491181  0.0500048406058511  1.0000
  H   H17       1.0  0.41106384315219907  0.3990069490816524  0.5821958145879123  1.0000
  H   H18       1.0  0.5889394422675809  0.6009999244109211  0.08220729124428769  1.0000
  H   H19       1.0  0.6185086360600567  0.4832717211094464  0.7644784847590315  1.0000
  H   H20       1.0  0.38149323554572595  0.5167351296259143  0.26448974592507557  1.0000
  H   H21       1.0  0.34086581287564144  0.15898151935797966  0.15770910444685876  1.0000
  H   H22       1.0  0.659138195410023  0.8410132652464598  0.6577094817284176  1.0000
  H   H23       1.0  0.43019909826612956  0.039741024355663505  0.16218797675957566  1.0000
  H   H24       1.0  0.5697884392764224  0.96023997030391  0.6621804369404174  1.0000
  H   H25       1.0  0.5177091546154743  0.9144677419040337  0.3749914455057847  1.0000
  H   H26       1.0  0.48229115839937015  0.0855331616747037  0.874975311908095  1.0000
  H   H27       1.0  0.6634557472553412  0.018088882907207407  0.4612753334257107  1.0000
  H   H28       1.0  0.3365482635771785  0.9819146852746031  0.9612668281234347  1.0000
  C   C1        1.0  0.9928396287992172  0.868730648093269  0.39111975850176606  1.0000
  C   C2        1.0  0.007160387063713414  0.13126592645565444  0.8911212428084028  1.0000
  C   C3        1.0  0.8630626354821372  0.8823526052958003  0.4864402916102862  1.0000
  C   C4        1.0  0.13693079496338362  0.11763387721757114  0.9864344850318006  1.0000
  C   C5        1.0  0.15193654946558147  0.886148981235472  0.46434709633334137  1.0000
  C   C6        1.0  0.8480624875874911  0.11385033384470236  0.9643467857393659  1.0000
  C   C7        1.0  0.6492123064726844  0.43675399173760365  0.6743563212405732  1.0000
  C   C8        1.0  0.3507893032909521  0.5632533931891502  0.17436522458054776  1.0000
  C   C9        1.0  0.6259084957941925  0.27956198925216574  0.693873956168879  1.0000
  C   C10       1.0  0.3740920110014301  0.7204452796228723  0.19388000651401424  1.0000
  C   C11       1.0  0.5397746633394007  0.45594349627303654  0.5626277328961534  1.0000
  C   C12       1.0  0.4602293489709623  0.5440624351409725  0.0626391047669586  1.0000
  S   S1        1.0  0.07392513695059932  0.32564927165875457  0.5982865166227072  1.0000
  S   S2        1.0  0.926077507132952  0.6743490397263231  0.0982889412670644  1.0000
  S   S3        1.0  0.833872738492154  0.2228205702274551  0.2958829723956455  1.0000
  S   S4        1.0  0.1661262169252212  0.7771776268947479  0.7958819900188558  1.0000
  S   S5        1.0  0.22729538340358604  0.06479600454245123  0.5361041789260028  1.0000
  S   S6        1.0  0.7727024732229283  0.9351994989956864  0.03610345694955439  1.0000
  S   S7        1.0  0.6017319447659589  0.3948672065394874  0.40699116937233265  1.0000
  S   S8        1.0  0.3982688690730571  0.6051313907888132  0.9069999206200092  1.0000
  N   N1        1.0  0.020911536130278015  0.9858072227952805  0.2958732760019841  1.0000
  N   N2        1.0  0.9790843161754238  0.0141920317053206  0.7958720918169246  1.0000
  N   N3        1.0  0.8208426278456431  0.5055818782008573  0.6361420702788294  1.0000
  N   N4        1.0  0.17916006244972493  0.4944225586690507  0.13614981009330754  1.0000
  O   O1        1.0  0.21649904636406353  0.28237580794104394  0.3177649222839563  1.0000
  O   O2        1.0  0.7835015082302161  0.7176233182795926  0.8177674888889827  1.0000
  O   O3        1.0  0.9970428586598032  0.539319087966746  0.39624281420100255  1.0000
  O   O4        1.0  0.0029575161265355822  0.4606816895902526  0.8962461559820624  1.0000
  O   O5        1.0  0.7707671959292457  0.7782309213724548  0.5460736363178214  1.0000
  O   O6        1.0  0.2292437581767999  0.2217719354942815  0.046072471334994695  1.0000
  O   O7        1.0  0.8606344546739068  0.010881466843351001  0.5037156225222786  1.0000
  O   O8        1.0  0.13936559529324197  0.9891174043758113  0.0037093702679839996  1.0000
  O   O9        1.0  0.5262319702941556  0.21255833892512052  0.7783580071146047  1.0000
  O   O10       1.0  0.4737576249756757  0.7874431339963481  0.2783698746538761  1.0000
  O   O11       1.0  0.7083844130560664  0.2274877624241611  0.6145504788980176  1.0000
  O   O12       1.0  0.29162166161381015  0.7725199785128752  0.11454905383337179  1.0000
  O   O13       1.0  0.3881993266253261  0.1010811945147125  0.21749539205683274  1.0000
  O   O14       1.0  0.6117990570101739  0.8989132338578545  0.7174942612804927  1.0000
  O   O15       1.0  0.544237783791907  0.9903383550137268  0.445623864047036  1.0000
  O   O16       1.0  0.4557658056315504  0.009664247520134903  0.9456090870198535  1.0000
