data_image0
_chemical_formula_structural       Hg4H54C48N14Cl8O6
_chemical_formula_sum              "Hg4 H54 C48 N14 Cl8 O6"
_cell_length_a       8.23702310839582
_cell_length_b       13.537633475323364
_cell_length_c       14.007
_cell_angle_alpha    105.0370307814184
_cell_angle_beta     95.52430720331806
_cell_angle_gamma    96.90685518410025

_space_group_name_H-M_alt    "P 1"
_space_group_IT_number       1

loop_
  _space_group_symop_operation_xyz
  'x, y, z'

loop_
  _atom_site_type_symbol
  _atom_site_label
  _atom_site_symmetry_multiplicity
  _atom_site_fract_x
  _atom_site_fract_y
  _atom_site_fract_z
  _atom_site_occupancy
  Hg  Hg1       1.0  0.990246714294862  0.1185514699966248  0.616682385839468  1.0000
  Hg  Hg2       1.0  0.009754819927970046  0.8814487804674942  0.38331919167695366  1.0000
  Hg  Hg3       1.0  0.5314776824899708  0.8073239353194239  0.21106471644466035  1.0000
  Hg  Hg4       1.0  0.46852403814764887  0.1926770888985487  0.7889342099284207  1.0000
  H   H1        1.0  0.5372911545530599  0.2863987978245817  0.10885879013054021  1.0000
  H   H2        1.0  0.4627048404352649  0.7136037739010916  0.8911402001397734  1.0000
  H   H3        1.0  0.4383595668752917  0.5345540378219624  0.08104082452349812  1.0000
  H   H4        1.0  0.5616381218454478  0.4654454388883096  0.9189574855586076  1.0000
  H   H5        1.0  0.40490913062190265  0.3995332171121078  0.02527288475560851  1.0000
  H   H6        1.0  0.5950920307713687  0.6004654858443176  0.9747268557599967  1.0000
  H   H7        1.0  0.6573859653386904  0.468135781027371  0.1559799422066632  1.0000
  H   H8        1.0  0.3426143491883735  0.5318644694367549  0.8440165687592939  1.0000
  H   H9        1.0  0.5231332543256428  0.4905800589760929  0.24877230117764537  1.0000
  H   H10       1.0  0.4768712785330819  0.5094225127495804  0.7512271724371973  1.0000
  H   H11       1.0  0.009034622833134205  0.2595054352340398  0.12060695070185551  1.0000
  H   H12       1.0  0.9909710285142879  0.7405017790147356  0.8793966060579523  1.0000
  H   H13       1.0  0.1216216904977543  0.4433361963569595  0.980027703856841  1.0000
  H   H14       1.0  0.8783796573102975  0.5566632803533125  0.01997009944416563  1.0000
  H   H15       1.0  0.9890013281465854  0.415477962714526  0.0653110669492349  1.0000
  H   H16       1.0  0.010997393855142002  0.5845207402418922  0.9346863936816803  1.0000
  H   H17       1.0  0.014001156423752503  0.2638539318752606  0.9289750003227726  1.0000
  H   H18       1.0  0.9860020715314944  0.7361432235734571  0.07102161343294006  1.0000
  H   H19       1.0  0.2259005193907484  0.27280626392844454  0.9679141702382595  1.0000
  H   H20       1.0  0.7741004555877424  0.7271916652741199  0.032087507491930026  1.0000
  H   H21       1.0  0.1544878125918885  0.5320439803301298  0.38700530953630624  1.0000
  H   H22       1.0  0.8455137216309438  0.4679562701339961  0.6129955540513664  1.0000
  H   H23       1.0  0.19703536207679662  0.6057997448913923  0.13819736540147431  1.0000
  H   H24       1.0  0.8029582947270625  0.394198184311179  0.8618010423184045  1.0000
  H   H25       1.0  0.3257656203877843  0.5861564558823816  0.23730967357278132  1.0000
  H   H26       1.0  0.6742343213097115  0.4138422470740366  0.7626871421786063  1.0000
  H   H27       1.0  0.06083570308710049  0.633042070468619  0.2823310592354247  1.0000
  H   H28       1.0  0.9391634929512733  0.3669535374723979  0.7176692218018134  1.0000
  H   H29       1.0  0.9511289276558729  0.5183516321872403  0.19724770330393684  1.0000
  H   H30       1.0  0.048871301663481935  0.48164320199992267  0.8027531561396088  1.0000
  H   H31       1.0  0.6155905625735656  0.9710494763844296  0.09381712750851534  1.0000
  H   H32       1.0  0.384410311197847  0.0289530953412438  0.9061807111011719  1.0000
  H   H33       1.0  0.5944415936671064  0.1520287041032091  0.0955816453863463  1.0000
  H   H34       1.0  0.4055592801043062  0.8479738676224642  0.90441690715209  1.0000
  H   H35       1.0  0.4323557174856205  0.1953473134374875  0.3868130124491317  1.0000
  H   H36       1.0  0.5676409379541241  0.8046529370266313  0.6131847192266662  1.0000
  H   H37       1.0  0.45568232771032763  0.008582477712529601  0.37181498965708226  1.0000
  H   H38       1.0  0.5443106686421118  0.9914177727515964  0.6281811070135674  1.0000
  H   H39       1.0  0.17421332761760064  0.8595159538141104  0.18733831216149352  1.0000
  H   H40       1.0  0.8257845475179195  0.1404842966500084  0.8126616303497727  1.0000
  H   H41       1.0  0.22844932664954604  0.9597495751480667  0.0637859756388437  1.0000
  H   H42       1.0  0.7715447029838812  0.0402499015622055  0.9362128412243538  1.0000
  H   H43       1.0  0.9386952786949864  0.1818197748648132  0.21733317814049974  1.0000
  H   H44       1.0  0.061302969270094855  0.8181820231070065  0.782667887442841  1.0000
  H   H45       1.0  0.893185138060062  0.07110720513014  0.3324871858678051  1.0000
  H   H46       1.0  0.10681554929657013  0.9288945928416794  0.6675147317427204  1.0000
  H   H47       1.0  0.7515457339975029  0.2182070972040719  0.5031694616308258  1.0000
  H   H48       1.0  0.24845392007813427  0.7817954745216014  0.49683473328839517  1.0000
  H   H49       1.0  0.7473783351192154  0.32466479451345986  0.3810984432478862  1.0000
  H   H50       1.0  0.2526272310204973  0.6753370034583597  0.6189051784170161  1.0000
  H   H51       1.0  0.2821401204185392  0.3659507524818224  0.4234380090433447  1.0000
  H   H52       1.0  0.7178663937944592  0.6340448554591944  0.5765648280754547  1.0000
  H   H53       1.0  0.2624521067101284  0.262467364974718  0.5487859659555099  1.0000
  H   H54       1.0  0.7375493423050016  0.737527469212452  0.4512171043235043  1.0000
  C   C1        1.0  0.40343231335317853  0.45872616044838577  0.09556411320366462  1.0000
  C   C2        1.0  0.596566781478117  0.5412740900157331  0.904435184428074  1.0000
  C   C3        1.0  0.5338038458627992  0.444017099745615  0.1735371125701732  1.0000
  C   C4        1.0  0.46619580821283796  0.5559854719800583  0.8264613709190486  1.0000
  C   C5        1.0  0.1098090701288612  0.4047343904968557  0.04051773923190891  1.0000
  C   C6        1.0  0.8901890926285176  0.595261991198015  0.9594776798265273  1.0000
  C   C7        1.0  0.1088921821863522  0.2897437357213803  0.9948446647298326  1.0000
  C   C8        1.0  0.8911075730963701  0.7102541934811912  0.005154802164888447  1.0000
  C   C9        1.0  0.21291223260450917  0.5517112557085113  0.18481959479047563  1.0000
  C   C10       1.0  0.7870842364204549  0.44828822100176074  0.8151793601711576  1.0000
  C   C11       1.0  0.068577018586609  0.552171639249707  0.24496842331862473  1.0000
  C   C12       1.0  0.9314233971475261  0.4478239686913099  0.7550312128390787  1.0000
  C   C13       1.0  0.5731156721460025  0.022913946536135706  0.15675008299492532  1.0000
  C   C14       1.0  0.4268837955148541  0.9770878514356909  0.8432481959226338  1.0000
  C   C15       1.0  0.5611557417843898  0.1250587398814389  0.15908777670792773  1.0000
  C   C16       1.0  0.4388451319870228  0.8749438318442345  0.8409114897592574  1.0000
  C   C17       1.0  0.5099116085313112  0.18948612801805356  0.24255892075986202  1.0000
  C   C18       1.0  0.4900878591295453  0.8105156699537732  0.7574400720864461  1.0000
  C   C19       1.0  0.4715287167765823  0.1473134481367353  0.32044161618504324  1.0000
  C   C20       1.0  0.5284730038610377  0.8526875760812375  0.6795573101880379  1.0000
  C   C21       1.0  0.485463288428079  0.0443128830324966  0.31304217712027343  1.0000
  C   C22       1.0  0.5145358064032095  0.9556873674316293  0.6869542647964693  1.0000
  C   C23       1.0  0.5029463032989909  0.3030925371545337  0.2553704193612134  1.0000
  C   C24       1.0  0.49705682344917806  0.696909260817293  0.74463020849025  1.0000
  C   C25       1.0  0.12379116980052636  0.9308483213148264  0.1903421038358459  1.0000
  C   C26       1.0  0.8762068917497742  0.0691527029031462  0.809657329318327  1.0000
  C   C27       1.0  0.15471595424141074  0.9874406779587376  0.12277935452176789  1.0000
  C   C28       1.0  0.845280040746914  0.0125618937669358  0.8772210636060437  1.0000
  C   C29       1.0  0.0925355894603683  0.08058027352488752  0.1315788613276894  1.0000
  C   C30       1.0  0.9074610659793833  0.9194199769392384  0.8684195842768646  1.0000
  C   C31       1.0  0.9948975513614755  0.1115048936778393  0.20731482772420412  1.0000
  C   C32       1.0  0.005100696603612721  0.8884969042939801  0.7926862378591367  1.0000
  C   C33       1.0  0.9681722571067936  0.0508526505790385  0.2722268101399905  1.0000
  C   C34       1.0  0.031828057420270346  0.9491475998850805  0.7277739843984606  1.0000
  C   C35       1.0  0.1349424243969537  0.1399310626467241  0.05755456626354771  1.0000
  C   C36       1.0  0.8650425933294272  0.8600715090789492  0.9424452304213063  1.0000
  C   C37       1.0  0.8649152585161204  0.2537618603999192  0.4836431441343123  1.0000
  C   C38       1.0  0.13508908792782387  0.7462399375719073  0.5163618363388666  1.0000
  C   C39       1.0  0.8642139511785984  0.3120881994233571  0.4158306544872374  1.0000
  C   C40       1.0  0.13579283465688974  0.6879135985484623  0.5841758919418752  1.0000
  C   C41       1.0  0.014653323100176915  0.35280235329601345  0.3919468043229345  1.0000
  C   C42       1.0  0.9853546824310797  0.647199444675806  0.6080605250841487  1.0000
  C   C43       1.0  0.1618302399315823  0.3378317637916908  0.4412139763996876  1.0000
  C   C44       1.0  0.8381768335257643  0.6621661654108806  0.5587909022915909  1.0000
  C   C45       1.0  0.1525134257075322  0.2788036300256138  0.509356382025139  1.0000
  C   C46       1.0  0.847488396137166  0.7211927516692498  0.4906478113259497  1.0000
  C   C47       1.0  0.0042871264261349976  0.40022882182393  0.3062820309372897  1.0000
  C   C48       1.0  0.9957185409206559  0.5997683336247874  0.693721146275614  1.0000
  N   N1        1.0  0.2379123181864529  0.450089519966312  0.12558873734392512  1.0000
  N   N2        1.0  0.7620872506814819  0.5499076354824126  0.8744083831928863  1.0000
  N   N3        1.0  0.519470134612348  0.3364475181526956  0.17421197969724037  1.0000
  N   N4        1.0  0.4805305527442841  0.663554279819131  0.8257870821982821  1.0000
  N   N5        1.0  0.0749539316043268  0.229300406162281  0.06454811968697531  1.0000
  N   N6        1.0  0.9250458236783886  0.7706975230402835  0.9354499193502408  1.0000
  N   N7        1.0  0.08369940155780141  0.4964095204876529  0.32066136862795963  1.0000
  N   N8        1.0  0.9163066386185506  0.5035891824687653  0.6793415037995133  1.0000
  N   N9        1.0  0.5365321568690716  0.9839533693534008  0.23254785934032907  1.0000
  N   N10       1.0  0.46346712437700427  0.0160476548645718  0.7674487871480694  1.0000
  N   N11       1.0  0.033317804590332414  0.9629908300288648  0.2642644656065372  1.0000
  N   N12       1.0  0.966681290240963  0.0370094204352611  0.7357362598826995  1.0000
  N   N13       1.0  0.007053361819338007  0.23685843377641902  0.5285227820524981  1.0000
  N   N14       1.0  0.9929476131591528  0.7631394954261523  0.47148175139268733  1.0000
  Cl  Cl1       1.0  0.7691357191793884  0.9738798679704744  0.4692248887464461  1.0000
  Cl  Cl2       1.0  0.2308656286286634  0.026119608739790603  0.5307764841983129  1.0000
  Cl  Cl3       1.0  0.3226356916267008  0.7985673629904753  0.336741948085404  1.0000
  Cl  Cl4       1.0  0.677364250070795  0.20143133996594295  0.6632570094522239  1.0000
  Cl  Cl5       1.0  0.7574373540249725  0.7124408218634102  0.23858555656674701  1.0000
  Cl  Cl6       1.0  0.24256473944220858  0.2875617498622631  0.7614166346646556  1.0000
  Cl  Cl7       1.0  0.3539232714474778  0.7510596503082283  0.04136827727916884  1.0000
  Cl  Cl8       1.0  0.6460774159091471  0.24894214766359116  0.9586314985451098  1.0000
  O   O1        1.0  0.4888134687042012  0.3603294307561171  0.33917233014099685  1.0000
  O   O2        1.0  0.5111882519334187  0.6396715934618555  0.6608265962320845  1.0000
  O   O3        1.0  0.2223171888629594  0.10437397818932231  0.9926177182025172  1.0000
  O   O4        1.0  0.7776619327987221  0.8956193084901471  0.007367993614749857  1.0000
  O   O5        1.0  0.916047482545011  0.3492330267824997  0.22697036079850366  1.0000
  O   O6        1.0  0.0839531196039118  0.650763354912364  0.7730373331471159  1.0000
