data_image0
_chemical_formula_structural       Zn4H40C68N16F4
_chemical_formula_sum              "Zn4 H40 C68 N16 F4"
_cell_length_a       19.29362454003729
_cell_length_b       20.46609789661237
_cell_length_c       19.95169244357766
_cell_angle_alpha    105.53211922629555
_cell_angle_beta     110.65356190955478
_cell_angle_gamma    111.15195596998343

_space_group_name_H-M_alt    "P 1"
_space_group_IT_number       1

loop_
  _space_group_symop_operation_xyz
  'x, y, z'

loop_
  _atom_site_type_symbol
  _atom_site_label
  _atom_site_symmetry_multiplicity
  _atom_site_fract_x
  _atom_site_fract_y
  _atom_site_fract_z
  _atom_site_occupancy
  Zn  Zn1       1.0  0.12289521424459343  0.5027665734429689  0.1001724774231149  1.0000
  Zn  Zn2       1.0  0.9013981045045864  0.5249053137471901  0.911194919572878  1.0000
  Zn  Zn3       1.0  0.8992400858282822  0.3977563007308759  0.9819318775543521  1.0000
  Zn  Zn4       1.0  0.12327981513324464  0.6302997027581655  0.019748664728822966  1.0000
  H   H1        1.0  0.7803851332446997  0.5721182361230318  0.960693171408252  1.0000
  H   H2        1.0  0.1462045170483746  0.6293588923559098  0.6292864392245076  1.0000
  H   H3        1.0  0.3517128720591955  0.8909296249140864  0.5427787899673431  1.0000
  H   H4        1.0  0.48166478742528085  0.014033693287046605  0.6577631192298199  1.0000
  H   H5        1.0  0.14963725915607276  0.16928850839690307  0.20522913235072338  1.0000
  H   H6        1.0  0.1486567886853507  0.0447721979790643  0.19233051242527918  1.0000
  H   H7        1.0  0.8725381246365205  0.9220203680765735  0.07799085081677488  1.0000
  H   H8        1.0  0.8028438673896903  0.2435056064173153  0.830499412196545  1.0000
  H   H9        1.0  0.30818043747309787  0.6525101835898468  0.006787626204292847  1.0000
  H   H10       1.0  0.20196342126934758  0.4279910483677086  0.010364465513525503  1.0000
  H   H11       1.0  0.1578932448982114  0.599088221276176  0.8703461057174022  1.0000
  H   H12       1.0  0.8844441518798122  0.5087195514965261  0.12332643145580847  1.0000
  H   H13       1.0  0.24035848550242628  0.6545293648424177  0.29713659369940604  1.0000
  H   H14       1.0  0.12344558854830702  0.7258181636329153  0.45660610108238575  1.0000
  H   H15       1.0  0.1834756967411764  0.7718361577473586  0.5633362400807156  1.0000
  H   H16       1.0  0.23565614636797946  0.7629638302400678  0.5062155300265231  1.0000
  H   H17       1.0  0.21631146826495484  0.662352906201832  0.5584227341840985  1.0000
  H   H18       1.0  0.15817722366475093  0.617452871073091  0.45214901717584133  1.0000
  H   H19       1.0  0.21738057509654135  0.008631778661289433  0.3711527004373564  1.0000
  H   H20       1.0  0.30614502476710465  0.10422289306229256  0.41232088424099794  1.0000
  H   H21       1.0  0.24332253823127556  0.044813769718999155  0.30658423187107076  1.0000
  H   H22       1.0  0.38077518199683874  0.04389136521238862  0.3587898488262126  1.0000
  H   H23       1.0  0.14552219398601104  0.8105960711551959  0.06375397720299247  1.0000
  H   H24       1.0  0.29317024776117506  0.9487369720184732  0.3200051531989273  1.0000
  H   H25       1.0  0.8157899290550291  0.008006661137080939  0.16992482049492708  1.0000
  H   H26       1.0  0.8740042827606017  0.11163280946193044  0.20820684142340434  1.0000
  H   H27       1.0  0.7637399374403274  0.05700797292568889  0.13277846610635888  1.0000
  H   H28       1.0  0.8555632755014388  0.09507419287677268  0.0719554358769301  1.0000
  H   H29       1.0  0.7977656749137979  0.9917479278564302  0.03348724651569058  1.0000
  H   H30       1.0  0.8152112664315325  0.1414813731889381  0.8793643907320429  1.0000
  H   H31       1.0  0.8517438119242015  0.11677886426195251  0.9585051430058583  1.0000
  H   H32       1.0  0.7457568119714678  0.1012149657201602  0.9150640926734821  1.0000
  H   H33       1.0  0.8401819142832352  0.22124876192523857  0.047911186121822866  1.0000
  H   H34       1.0  0.8736527206672805  0.6742876004145871  0.975023163918287  1.0000
  H   H35       1.0  0.8053202265848328  0.24745645484022552  0.9699482937114893  1.0000
  H   H36       1.0  0.1260494453962479  0.755516841052156  0.159193055482227  1.0000
  H   H37       1.0  0.6966951199247259  0.3486197028812366  0.9681034514428644  1.0000
  H   H38       1.0  0.8699575344853231  0.5019632105174523  0.5129827986198875  1.0000
  H   H39       1.0  0.8613165041172551  0.5101833070682317  0.38839580841235477  1.0000
  H   H40       1.0  0.8796639531082632  0.4699531533611532  0.7408258386599369  1.0000
  C   C1        1.0  0.07630022363623827  0.33973648851805655  0.07249069751375713  1.0000
  C   C2        1.0  0.06040447517622021  0.5107558072047809  0.22449493605553522  1.0000
  C   C3        1.0  0.14958081371710116  0.7201379033526295  0.18035761615441007  1.0000
  C   C4        1.0  0.947614482536764  0.502872794542888  0.7849341534987954  1.0000
  C   C5        1.0  0.7300703474423003  0.40334926127866305  0.9667563316735154  1.0000
  C   C6        1.0  0.196167397092104  0.7336703188954274  0.2597361865297073  1.0000
  C   C7        1.0  0.7045814020272445  0.45927930652759136  0.9608207172939842  1.0000
  C   C8        1.0  0.9969867308735019  0.5272069463230694  0.22925970125255188  1.0000
  C   C9        1.0  0.00931187720732398  0.7729196192778788  0.0358690700662621  1.0000
  C   C10       1.0  0.3325702102012116  0.513718858616201  0.9741090295772494  1.0000
  C   C11       1.0  0.38332514910054977  0.4980089345200225  0.9599765157231842  1.0000
  C   C12       1.0  0.018647313959277774  0.5357233616795724  0.7743742180573676  1.0000
  C   C13       1.0  0.44245587957617244  0.4833256570894874  0.950552554547336  1.0000
  C   C14       1.0  0.5002976038880149  0.4721324938587443  0.947303109905306  1.0000
  C   C15       1.0  0.5664781444449928  0.46376900717122266  0.9487251850719004  1.0000
  C   C16       1.0  0.7899841409221153  0.287066152181552  0.8163601721285401  1.0000
  C   C17       1.0  0.6297199487165059  0.4588870217014217  0.9538675990749822  1.0000
  C   C18       1.0  0.9235532523935817  0.5366077393027595  0.44173723620755817  1.0000
  C   C19       1.0  0.9986194685482347  0.5728129900073353  0.4377147312382233  1.0000
  C   C20       1.0  0.08045678616320366  0.6096087030657458  0.5074211637744951  1.0000
  C   C21       1.0  0.08383458539982754  0.6035262355404425  0.5762013621110212  1.0000
  C   C22       1.0  0.008914636271896354  0.5629500843686656  0.5788795208429675  1.0000
  C   C23       1.0  0.7149225053801301  0.27543162797098103  0.7553788409959167  1.0000
  C   C24       1.0  0.9282604588672925  0.5316783382082946  0.5109852339249342  1.0000
  C   C25       1.0  0.9931304027752149  0.5654403725666269  0.3632293866604355  1.0000
  C   C26       1.0  0.014137851280146482  0.5523293346159404  0.6472832959588997  1.0000
  C   C27       1.0  0.017310737857300664  0.5415947437106253  0.7053991753460449  1.0000
  C   C28       1.0  0.2736082941011517  0.6013555254760448  0.012952962932182278  1.0000
  C   C29       1.0  0.9907583661598238  0.5509643783797317  0.29869146370155875  1.0000
  C   C30       1.0  0.4505362326479342  0.011999759294027848  0.599248371591777  1.0000
  C   C31       1.0  0.48696911299074225  0.07978548921747104  0.5894309523149203  1.0000
  C   C32       1.0  0.44270317585924335  0.07535403642448534  0.5136707886101985  1.0000
  C   C33       1.0  0.3702760153278176  0.007906757462649157  0.44744821791653777  1.0000
  C   C34       1.0  0.278181073778377  0.5317209011075404  0.9964570926782057  1.0000
  C   C35       1.0  0.339144542298392  0.9393371685841457  0.45824023481188175  1.0000
  C   C36       1.0  0.3780975964906901  0.9435225684097972  0.5351804891459934  1.0000
  C   C37       1.0  0.5658486064272452  0.1479918460725783  0.6500537231799014  1.0000
  C   C38       1.0  0.2761495394182134  0.8653896107683111  0.390834228507984  1.0000
  C   C39       1.0  0.2335812491122694  0.8023259979256636  0.33054740486338824  1.0000
  C   C40       1.0  0.7378260427213305  0.35309064838299503  0.7670394594419746  1.0000
  C   C41       1.0  0.6361747591285365  0.2063704166114704  0.6987331209947455  1.0000
  C   C42       1.0  0.08869291924241199  0.045396933252653975  0.17048467649088647  1.0000
  C   C43       1.0  0.009900532696057968  0.9738535805579999  0.12908877331572896  1.0000
  C   C44       1.0  0.9333415280218276  0.9766148950347642  0.10642450872262539  1.0000
  C   C45       1.0  0.20868721338613472  0.6685729156413059  0.2509072817730526  1.0000
  C   C46       1.0  0.9325722142405513  0.046034134147681906  0.1140886708871419  1.0000
  C   C47       1.0  0.011516558998671688  0.1151645406034802  0.1446980859539337  1.0000
  C   C48       1.0  0.08923584016685739  0.11477738525763208  0.17789801335537447  1.0000
  C   C49       1.0  0.00851643002750543  0.901700643737037  0.10337906712702953  1.0000
  C   C50       1.0  0.012940613509812203  0.1799886541307032  0.13139285359014247  1.0000
  C   C51       1.0  0.014592483306202574  0.22801395904158986  0.10550416725308757  1.0000
  C   C52       1.0  0.2189926591060783  0.4859765373752866  0.013942496236794014  1.0000
  C   C53       1.0  0.008708019807805546  0.8416337754206752  0.07214071216837671  1.0000
  C   C54       1.0  0.09006830537743567  0.5689041686524304  0.8512461390082249  1.0000
  C   C55       1.0  0.9368092336250768  0.27944560519555495  0.023228193119166563  1.0000
  C   C56       1.0  0.7737352757072812  0.5182425728816042  0.9636709040302235  1.0000
  C   C57       1.0  0.010860910643593466  0.2786823617708549  0.07095914432920125  1.0000
  C   C58       1.0  0.16159185983028118  0.653535480409431  0.5065446332491417  1.0000
  C   C59       1.0  0.1769169186980902  0.7332299439495458  0.5083864507232717  1.0000
  C   C60       1.0  0.3298479322137737  0.009093324773594608  0.3683592738472185  1.0000
  C   C61       1.0  0.2707249911497058  0.04374666670033625  0.3645244847227501  1.0000
  C   C62       1.0  0.8494154954910018  0.046686321635576164  0.08796399127989214  1.0000
  C   C63       1.0  0.8242895958880397  0.05637167142487699  0.153522874187189  1.0000
  C   C64       1.0  0.8456606473496321  0.22397413031728758  0.9954915092305326  1.0000
  C   C65       1.0  0.8124677709768023  0.14091873132626628  0.933301218701679  1.0000
  C   C66       1.0  0.9430319087461642  0.5067641041894221  0.1486252749478395  1.0000
  C   C67       1.0  0.07913449839291792  0.7649696984380655  0.03621010353426607  1.0000
  C   C68       1.0  0.9403135131923219  0.694938952213526  0.9915422111084735  1.0000
  N   N1        1.0  0.047957214362092764  0.3756556505338438  0.032295340621686756  1.0000
  N   N2        1.0  0.8503195958042084  0.3644749666382267  0.8595515866683455  1.0000
  N   N3        1.0  0.2181247475127321  0.5978547335291112  0.03948126790712782  1.0000
  N   N4        1.0  0.8166275290882722  0.405214918617858  0.8278407691058972  1.0000
  N   N5        1.0  0.18410481992521  0.5261231453663554  0.03966437128852361  1.0000
  N   N6        1.0  0.06266780126444614  0.5581929919179984  0.9029862028320536  1.0000
  N   N7        1.0  0.9596971866893257  0.3370625160805077  0.0012125501830554592  1.0000
  N   N8        1.0  0.17462683314592914  0.6220634214588828  0.17287892485524733  1.0000
  N   N9        1.0  0.8346413045557385  0.4987379847209182  0.9703745233677096  1.0000
  N   N10       1.0  0.9727142052909914  0.4801578575106262  0.1018003536508729  1.0000
  N   N11       1.0  0.05391224658711731  0.6888863118176969  0.9967306366389292  1.0000
  N   N12       1.0  0.9672464879133216  0.6452421098502653  0.968776812074708  1.0000
  N   N13       1.0  0.046157374509512336  0.48244549805845344  0.14995834195892846  1.0000
  N   N14       1.0  0.13751265874185492  0.6533296336320192  0.12899525454658076  1.0000
  N   N15       1.0  0.8070219154208116  0.4276633487556863  0.9720549716289425  1.0000
  N   N16       1.0  0.9755036849161841  0.5179354106144841  0.8624439025715063  1.0000
  F   F1        1.0  0.16110371775607749  0.36560836330602337  0.11080326514416326  1.0000
  F   F2        1.0  0.1293187524359071  0.5207000972983807  0.2848066994955189  1.0000
  F   F3        1.0  0.475535927097681  0.14103969802746247  0.5038241284645506  1.0000
  F   F4        1.0  0.6903227567502341  0.37660379605333105  0.7238986816588592  1.0000
