data_image0
_chemical_formula_structural       Cu4H40C24N32Cl8
_chemical_formula_sum              "Cu4 H40 C24 N32 Cl8"
_cell_length_a       6.71853495524416
_cell_length_b       11.490370390851089
_cell_length_c       14.583801284017525
_cell_angle_alpha    89.9999497517285
_cell_angle_beta     90.00004679503391
_cell_angle_gamma    90.01472488927168

_space_group_name_H-M_alt    "P 1"
_space_group_IT_number       1

loop_
  _space_group_symop_operation_xyz
  'x, y, z'

loop_
  _atom_site_type_symbol
  _atom_site_label
  _atom_site_symmetry_multiplicity
  _atom_site_fract_x
  _atom_site_fract_y
  _atom_site_fract_z
  _atom_site_occupancy
  Cu  Cu1       1.0  0.1689920985287898  0.12577825463168318  0.9999998212824937  1.0000
  Cu  Cu2       1.0  0.6690754621560232  0.3741347322225579  0.5000003215224851  1.0000
  Cu  Cu3       1.0  0.3310532603028946  0.625864535340348  0.5000003450001957  1.0000
  Cu  Cu4       1.0  0.8308776421516342  0.8742305774050578  1.5962339719999997e-07  1.0000
  H   H1        1.0  0.11274512534564002  0.1280385970520825  0.42212992319389303  1.0000
  H   H2        1.0  0.11274413569187663  0.1280393727191438  0.5778705257823804  1.0000
  H   H3        1.0  0.6127542774408637  0.37198207425748825  0.9221467934126653  1.0000
  H   H4        1.0  0.3872506393519118  0.6280393039505655  0.9221556954308529  1.0000
  H   H5        1.0  0.887260066033285  0.8719832939657622  0.5778871999739297  1.0000
  H   H6        1.0  0.887262544594286  0.8719842589570204  0.42211368415485867  1.0000
  H   H7        1.0  0.387252401978003  0.6280389465325343  0.07784427344822123  1.0000
  H   H8        1.0  0.6127560398276019  0.3719808465346334  0.07785319942966853  1.0000
  H   H9        1.0  0.3687289860088613  0.15300121253625318  0.39384983094489473  1.0000
  H   H10       1.0  0.3687296655044677  0.1530010836128923  0.6061497615119934  1.0000
  H   H11       1.0  0.8687092326105343  0.34703681009155224  0.8938660311364545  1.0000
  H   H12       1.0  0.1312806121345815  0.6529645851992426  0.893875072662212  1.0000
  H   H13       1.0  0.6312895949077841  0.8470024027638062  0.6061624923786227  1.0000
  H   H14       1.0  0.6312918924668907  0.8470034020972577  0.3938371911958712  1.0000
  H   H15       1.0  0.1312825560853241  0.6529650637280114  0.10612366435038473  1.0000
  H   H16       1.0  0.8687111763285102  0.3470364183142465  0.10613450790111763  1.0000
  H   H17       1.0  0.2686648901333299  0.006999921245650901  0.3922296162079633  1.0000
  H   H18       1.0  0.2686640918775325  0.007000660598024002  0.6077701285055925  1.0000
  H   H19       1.0  0.7687430988840447  0.49303046679408175  0.8922326966164039  1.0000
  H   H20       1.0  0.2312690623343556  0.5069726718161435  0.8922541115989308  1.0000
  H   H21       1.0  0.7313313654223705  0.9930063041724253  0.6077971066594474  1.0000
  H   H22       1.0  0.7313336522231425  0.9930064351968683  0.3922031103630061  1.0000
  H   H23       1.0  0.2312695282438639  0.5069731483254076  0.10774534209475922  1.0000
  H   H24       1.0  0.7687450530573443  0.49303007303305446  0.10776781141817793  1.0000
  H   H25       1.0  0.5689524331672473  0.10543170677214421  0.2579778021939917  1.0000
  H   H26       1.0  0.5689539821210018  0.10543054253286499  0.7420216987426331  1.0000
  H   H27       1.0  0.0689673097908567  0.39461318057005457  0.7579867329882649  1.0000
  H   H28       1.0  0.9310365525743832  0.6053979534958812  0.7579843485148532  1.0000
  H   H29       1.0  0.43104680061345146  0.8945788702349091  0.7420187502106971  1.0000
  H   H30       1.0  0.4310482279283221  0.8945782939827397  0.2579817105845238  1.0000
  H   H31       1.0  0.9310363889724371  0.6053965262902992  0.24201599064588925  1.0000
  H   H32       1.0  0.0689686348919167  0.39461262371131056  0.24201426096487927  1.0000
  H   H33       1.0  0.5533090712615092  0.101995330699495  0.13659861711985855  1.0000
  H   H34       1.0  0.5533113971974046  0.10199401904035449  0.863400895454838  1.0000
  H   H35       1.0  0.0533441396111769  0.3980199267603552  0.6366041172998822  1.0000
  H   H36       1.0  0.9466842471116693  0.6019861338207307  0.6366030968726054  1.0000
  H   H37       1.0  0.4466484858856746  0.8980126340141797  0.8634006780674073  1.0000
  H   H38       1.0  0.44664913649725696  0.8980130754791915  0.13659977111636584  1.0000
  H   H39       1.0  0.9466863492190073  0.6019854295375424  0.3633965492506662  1.0000
  H   H40       1.0  0.0533432648768155  0.39801922237689535  0.36339688398656034  1.0000
  C   C1        1.0  0.2771391545872248  0.1025507675264947  0.20604081524148657  1.0000
  C   C2        1.0  0.2771395481799956  0.10255128074478392  0.7939595500779646  1.0000
  C   C3        1.0  0.7771552228624474  0.3973916479028503  0.7060460127226167  1.0000
  C   C4        1.0  0.2228587174076466  0.6025943110644152  0.7060591444970115  1.0000
  C   C5        1.0  0.7228392336782296  0.8974371811189956  0.7939769936373936  1.0000
  C   C6        1.0  0.7228418171116502  0.8974375383162114  0.20602397418557675  1.0000
  C   C7        1.0  0.2228603749088052  0.6025936911380967  0.29394093999306403  1.0000
  C   C8        1.0  0.7771553923258596  0.3973918982039352  0.2939545502178832  1.0000
  C   C9        1.0  0.23740377819769523  0.09938579952671486  0.3793728663908241  1.0000
  C   C10       1.0  0.23740306224142674  0.09938652326408  0.6206268393080168  1.0000
  C   C11       1.0  0.737417564901307  0.4006381355871724  0.8793808046304793  1.0000
  C   C12       1.0  0.2625781411302199  0.599364147785252  0.8794007712779294  1.0000
  C   C13       1.0  0.7626073612525275  0.9006195561020931  0.6206517993954963  1.0000
  C   C14       1.0  0.7626095660611654  0.9006205730334572  0.3793477709406333  1.0000
  C   C15       1.0  0.26257868931730144  0.5993646086836649  0.12059860547049082  1.0000
  C   C16       1.0  0.7374196016398216  0.4006385965109517  0.12061978035957574  1.0000
  C   C17       1.0  0.4881447501018172  0.06697767993991022  0.19988256005486  1.0000
  C   C18       1.0  0.4881451828185491  0.06697731538482539  0.8001176996822467  1.0000
  C   C19       1.0  0.988158276695593  0.43301818116789537  0.6998822496628779  1.0000
  C   C20       1.0  0.011846698305809901  0.5669817096942682  0.6998838749191169  1.0000
  C   C21       1.0  0.5118440615020176  0.9330233234766396  0.8001208492788126  1.0000
  C   C22       1.0  0.5118451171852882  0.9330236880858184  0.19987953842043282  1.0000
  C   C23       1.0  0.011846906917327302  0.5669810822174028  0.3001163598204073  1.0000
  C   C24       1.0  0.9881584853180813  0.4330175536889485  0.3001181630255801  1.0000
  N   N1        1.0  0.17492985148442844  0.1163292377435354  0.2849379673845931  1.0000
  N   N2        1.0  0.17493122845219486  0.11632984683629391  0.7150617655518874  1.0000
  N   N3        1.0  0.6749201816719792  0.38367230860197327  0.7849472876534025  1.0000
  N   N4        1.0  0.325070450452806  0.6163179051972423  0.7849665200864779  1.0000
  N   N5        1.0  0.8250768179639183  0.8836621930303605  0.7150866984074542  1.0000
  N   N6        1.0  0.8250784179740549  0.8836624543622731  0.2849135303945972  1.0000
  N   N7        1.0  0.3250716028455614  0.6163173811071232  0.21503349383758064  1.0000
  N   N8        1.0  0.6749198460664945  0.38367265473176093  0.21505334586482416  1.0000
  N   N9        1.0  0.9873137166629817  0.1512067817824558  0.26526862708604443  1.0000
  N   N10       1.0  0.9873152192438255  0.1512064966919198  0.7347312772324133  1.0000
  N   N11       1.0  0.48725424374590176  0.34882549354637865  0.7652803293956086  1.0000
  N   N12       1.0  0.5127407269074383  0.6511621333982945  0.7653158828257107  1.0000
  N   N13       1.0  0.012688487578778104  0.8487846488304099  0.7347724953221546  1.0000
  N   N14       1.0  0.012689961576271  0.8487849340711903  0.26522824779318205  1.0000
  N   N15       1.0  0.5127420053853982  0.6511624557357649  0.23468399547977017  1.0000
  N   N16       1.0  0.48725403403235384  0.34882581579019256  0.23471975404756765  1.0000
  N   N17       1.0  0.9746450594456206  0.15867439968506863  0.17672586974708085  1.0000
  N   N18       1.0  0.9746456403936747  0.1586740070054802  0.8232740375655754  1.0000
  N   N19       1.0  0.47458048170697953  0.34130490832151855  0.6767416909137511  1.0000
  N   N20       1.0  0.5254541056722459  0.6586715136931077  0.6767792890115134  1.0000
  N   N21       1.0  0.025316954206672904  0.8413074563336663  0.8233166240608727  1.0000
  N   N22       1.0  0.0253193498259847  0.841307849165588  0.17668343039835588  1.0000
  N   N23       1.0  0.525454462477903  0.658671728449022  0.3232205768765939  1.0000
  N   N24       1.0  0.47457935033211385  0.3413051229816944  0.32325771923815705  1.0000
  N   N25       1.0  0.1504905979775231  0.1282062724687023  0.13815730954167554  1.0000
  N   N26       1.0  0.15049142581537467  0.12820583294573853  0.861843116449734  1.0000
  N   N27       1.0  0.6504951371622099  0.37171634312228  0.6381625231289905  1.0000
  N   N28       1.0  0.3495511111595491  0.6282618667489643  0.6381837903192606  1.0000
  N   N29       1.0  0.8494580207335787  0.8717781939888738  0.8618687276547166  1.0000
  N   N30       1.0  0.8494601695706336  0.871778633643757  0.13813149382451687  1.0000
  N   N31       1.0  0.34955171502399923  0.6282620346294507  0.3618155155797212  1.0000
  N   N32       1.0  0.650494253041586  0.37171738122017217  0.36183744700345954  1.0000
  Cl  Cl1       1.0  0.24024152508961552  0.931307975662193  3.207256043e-07  1.0000
  Cl  Cl2       1.0  0.7399339302461668  0.568646093412525  0.5000009247202329  1.0000
  Cl  Cl3       1.0  0.2599983329584461  0.4313888495581466  0.4999997418508003  1.0000
  Cl  Cl4       1.0  0.7598200109831836  0.0687397631751594  4.338451305000001e-07  1.0000
  Cl  Cl5       1.0  0.22096618388994932  0.3223063184839461  0.9999997438787107  1.0000
  Cl  Cl6       1.0  0.7210153908117364  0.1775779825136254  0.49999968174913795  1.0000
  Cl  Cl7       1.0  0.2789109024067288  0.8224090940869574  0.4999996134541578  1.0000
  Cl  Cl8       1.0  0.779065790690062  0.6776912052187996  2.3698155620000004e-07  1.0000
