data_image0
_chemical_formula_structural       NiH18C16N4O8
_chemical_formula_sum              "Ni1 H18 C16 N4 O8"
_cell_length_a       7.560377862551928
_cell_length_b       7.851227649026392
_cell_length_c       8.802600894816255
_cell_angle_alpha    112.31793466578397
_cell_angle_beta     97.83094041663068
_cell_angle_gamma    105.6591980370446

_space_group_name_H-M_alt    "P 1"
_space_group_IT_number       1

loop_
  _space_group_symop_operation_xyz
  'x, y, z'

loop_
  _atom_site_type_symbol
  _atom_site_label
  _atom_site_symmetry_multiplicity
  _atom_site_fract_x
  _atom_site_fract_y
  _atom_site_fract_z
  _atom_site_occupancy
  Ni  Ni1       1.0  0.5000023457229332  2.5909434881994405e-06  2.3217378949610143e-07  1.0000
  H   H1        1.0  0.7192889404728716  0.7302778815586918  0.12243384489336502  1.0000
  H   H2        1.0  0.2807094213376118  0.269717112769321  0.8775640050886366  1.0000
  H   H3        1.0  0.8220152286352655  0.7813735518103471  0.9945805840395747  1.0000
  H   H4        1.0  0.1779867751970485  0.218620200430216  0.005417422505203698  1.0000
  H   H5        1.0  0.9813059373374954  4.602277510909106e-05  0.35685027834572475  1.0000
  H   H6        1.0  0.01868891812784319  0.9999562028491341  0.6431561202905273  1.0000
  H   H7        1.0  0.028184380477860302  0.16851621074190598  0.269090873046494  1.0000
  H   H8        1.0  0.9718198462469444  0.8314805529873935  0.730908401236313  1.0000
  H   H9        1.0  0.20044211230064227  0.5307399164898428  0.09801824836147693  1.0000
  H   H10       1.0  0.7995545551392025  0.4692577351866305  0.9019756270096408  1.0000
  H   H11       1.0  0.3777414400929615  0.5755493882473955  0.8246331300485538  1.0000
  H   H12       1.0  0.6222485330703618  0.4244539080222721  0.17536946256030458  1.0000
  H   H13       1.0  0.16531749871437282  0.4386845673035679  0.2950033956904718  1.0000
  H   H14       1.0  0.8346818064239017  0.5613132991083133  0.7049932137739319  1.0000
  H   H15       1.0  0.4279337283289876  0.033537672883078094  0.6882828659852791  1.0000
  H   H16       1.0  0.5720860056732917  0.9664655562822873  0.3117150444298815  1.0000
  H   H17       1.0  0.286532880780655  0.7999893947502699  0.3795201857885502  1.0000
  H   H18       1.0  0.7134827612469791  0.20000934359103437  0.6204779925187154  1.0000
  C   C1        1.0  0.0903398051757662  0.5630615798911975  0.03219022050516424  1.0000
  C   C2        1.0  0.9096711512221274  0.4369398893975712  0.9678115199788238  1.0000
  C   C3        1.0  0.15792129576340128  0.7425778828066993  0.00472706228639895  1.0000
  C   C4        1.0  0.8420784810387757  0.2574214196471232  0.9952689269192022  1.0000
  C   C5        1.0  0.2567433814001276  0.4782408580584345  0.555039505751246  1.0000
  C   C6        1.0  0.7432457662889503  0.521759470015887  0.4449609037482531  1.0000
  C   C7        1.0  0.3496488362360211  0.6183989802932076  0.7227303976207224  1.0000
  C   C8        1.0  0.6503445429923431  0.3816014456241276  0.277266124555787  1.0000
  C   C9        1.0  0.23590849727903423  0.5426956306588125  0.42783569764702634  1.0000
  C   C10       1.0  0.7640909828204415  0.45730819292469244  0.5721684758254143  1.0000
  C   C11       1.0  0.1708701108359421  0.26822291183855645  0.5246019193808209  1.0000
  C   C12       1.0  0.8291206702281853  0.7317790877940453  0.4754038017424662  1.0000
  C   C13       1.0  0.38332919067399734  0.875324747209369  0.6448986203427866  1.0000
  C   C14       1.0  0.6166793637325652  0.124676315121043  0.35509353879399436  1.0000
  C   C15       1.0  0.30266838575199967  0.7437203187241223  0.4741534888572261  1.0000
  C   C16       1.0  0.6973408369907401  0.25628383995026377  0.5258454182248684  1.0000
  N   N1        1.0  0.40715826917907083  0.8130943900358004  0.7672580816602306  1.0000
  N   N2        1.0  0.5928453638906532  0.18690959546502478  0.2327444869072011  1.0000
  N   N3        1.0  0.0630066295092178  0.1350967512119041  0.3683371627720859  1.0000
  N   N4        1.0  0.9369929115858537  0.8649027434648672  0.6316656736874435  1.0000
  O   O1        1.0  0.34227851633663414  0.8259755292653208  0.06201269018965403  1.0000
  O   O2        1.0  0.6577256886770968  0.1740255313335553  0.9379867798970808  1.0000
  O   O3        1.0  0.04742115660029358  0.7974084120773808  0.9297662949742785  1.0000
  O   O4        1.0  0.9525813581804312  0.20258674416795944  0.0702299501027142  1.0000
  O   O5        1.0  0.6959912843794669  0.7437152939818643  0.016018271618989298  1.0000
  O   O6        1.0  0.30400853584486487  0.2562754147328122  0.9839773259787634  1.0000
  O   O7        1.0  0.19499895174354254  0.22233660395320953  0.6463448514018567  1.0000
  O   O8        1.0  0.8049706062412695  0.777675976585222  0.35366781949910125  1.0000
