data_image0
_chemical_formula_structural       Rb4H48C24S4N4O12
_chemical_formula_sum              "Rb4 H48 C24 S4 N4 O12"
_cell_length_a       6.394868017282977
_cell_length_b       8.626260354400793
_cell_length_c       17.478822663563072
_cell_angle_alpha    93.58327035090507
_cell_angle_beta     100.53794652471947
_cell_angle_gamma    89.9873303428404

_space_group_name_H-M_alt    "P 1"
_space_group_IT_number       1

loop_
  _space_group_symop_operation_xyz
  'x, y, z'

loop_
  _atom_site_type_symbol
  _atom_site_label
  _atom_site_symmetry_multiplicity
  _atom_site_fract_x
  _atom_site_fract_y
  _atom_site_fract_z
  _atom_site_occupancy
  Rb  Rb1       1.0  0.2879829439896042  0.8830692087810021  0.4355812097363484  1.0000
  Rb  Rb2       1.0  0.8525658050582055  0.6169932719372399  0.5643474344006523  1.0000
  Rb  Rb3       1.0  0.7120279883943538  0.11693204598243774  0.5644232724333663  1.0000
  Rb  Rb4       1.0  0.1474371685770777  0.3830067967576554  0.43565532909320853  1.0000
  H   H1        1.0  0.9268364302919495  0.7461885626757763  0.23698591097357283  1.0000
  H   H2        1.0  0.6900738500899237  0.7537326024107928  0.7629383938717497  1.0000
  H   H3        1.0  0.07316643582610992  0.2538045537386608  0.7630178003830181  1.0000
  H   H4        1.0  0.309919664956631  0.24627088222295163  0.23705981324974357  1.0000
  H   H5        1.0  0.5941807148905413  0.9977004403316982  0.19473215820698195  1.0000
  H   H6        1.0  0.4002513922507376  0.5019472969938336  0.8052392708772944  1.0000
  H   H7        1.0  0.4058157125501722  0.0022856665584925005  0.8052686353491014  1.0000
  H   H8        1.0  0.5997516935259029  0.4980585281974897  0.19476022398650636  1.0000
  H   H9        1.0  0.5391309509021909  0.8004327213226504  0.20577274865944875  1.0000
  H   H10       1.0  0.33369893525746613  0.6992922740896577  0.7942128880028465  1.0000
  H   H11       1.0  0.4608607816388428  0.19956157196942576  0.7942319527243245  1.0000
  H   H12       1.0  0.6662994429017316  0.30071700569596527  0.20578466372703733  1.0000
  H   H13       1.0  0.7149328944723835  0.7183316079118924  0.09415622306767091  1.0000
  H   H14       1.0  0.6210166948776391  0.7814676494621651  0.9057980059457124  1.0000
  H   H15       1.0  0.28506659160941444  0.28164876254899707  0.9058491999321351  1.0000
  H   H16       1.0  0.3789802163905733  0.2185497426901151  0.09419852222808342  1.0000
  H   H17       1.0  0.5117932111440169  0.8518671749591392  0.0642187119795068  1.0000
  H   H18       1.0  0.44813405206036094  0.6476997313296239  0.9357315735479549  1.0000
  H   H19       1.0  0.4881936455666108  0.14811659137347283  0.935780793834262  1.0000
  H   H20       1.0  0.551864369452673  0.35231304170574873  0.06426664828646271  1.0000
  H   H21       1.0  0.8476559271821528  0.9119621001994105  0.015052065805114971  1.0000
  H   H22       1.0  0.8332899999420321  0.5879295114862942  0.9848313973975352  1.0000
  H   H23       1.0  0.15234034823100728  0.08801118670201191  0.9849455080104053  1.0000
  H   H24       1.0  0.16671652078596816  0.41209491025735906  0.015169409390438196  1.0000
  H   H25       1.0  0.7770560498311381  0.0660840247984851  0.0767016483819773  1.0000
  H   H26       1.0  0.7013092894623796  0.43372669240706335  0.9232428171622618  1.0000
  H   H27       1.0  0.22294350850582842  0.9338950386664921  0.9232940176171526  1.0000
  H   H28       1.0  0.2986939101903658  0.5662884509685212  0.07675865531961533  1.0000
  H   H29       1.0  0.1641071592884771  0.017326236501197904  0.11235912994381893  1.0000
  H   H30       1.0  0.052553843840627196  0.48271393672720114  0.8874718433529554  1.0000
  H   H31       1.0  0.8358861933257488  0.982664445253292  0.8876370014730102  1.0000
  H   H32       1.0  0.9474428899663465  0.5172918654393825  0.11252607391941181  1.0000
  H   H33       1.0  0.11600463375931719  0.8192080711263615  0.12270296336225782  1.0000
  H   H34       1.0  0.9936227837422464  0.6807955960665807  0.8771454329758515  1.0000
  H   H35       1.0  0.8839950292054793  0.18078270209095137  0.8772993217896073  1.0000
  H   H36       1.0  0.006377195415332402  0.3192136680883238  0.12285108310701534  1.0000
  H   H37       1.0  0.19070709654864973  0.9624889693924888  0.25283862059376366  1.0000
  H   H38       1.0  0.9383239726978659  0.537586656291609  0.7470461640649122  1.0000
  H   H39       1.0  0.8092927271137356  0.0375110450162381  0.7471604940146295  1.0000
  H   H40       1.0  0.061669536568047106  0.4624156496676193  0.2529508663251505  1.0000
  H   H41       1.0  0.9841740543462264  0.0942735863064925  0.2234207708022781  1.0000
  H   H42       1.0  0.7615879486559863  0.40557804437694506  0.776431538918523  1.0000
  H   H43       1.0  0.0158225765676718  0.9057240677955889  0.7765757735654832  1.0000
  H   H44       1.0  0.23840720611864438  0.5944301136598684  0.22356862342781625  1.0000
  H   H45       1.0  0.8097351943165805  0.018421496013850503  0.33293435755822304  1.0000
  H   H46       1.0  0.4769816091950503  0.48150725562383906  0.6670033142412493  1.0000
  H   H47       1.0  0.1902677683356728  0.9815774025612927  0.66706780122216  1.0000
  H   H48       1.0  0.5230118468905047  0.5184927614244258  0.3329959388295549  1.0000
  C   C1        1.0  0.8711275804701515  0.8670284091510112  0.2405823252920883  1.0000
  C   C2        1.0  0.6308984755691683  0.6328497468681676  0.7593511069479464  1.0000
  C   C3        1.0  0.12886902443180756  0.13296928772487598  0.7594170791654309  1.0000
  C   C4        1.0  0.3690982963892608  0.3671595571029301  0.24064805244690046  1.0000
  C   C5        1.0  0.6531483781221966  0.8784599834266231  0.18715709830390645  1.0000
  C   C6        1.0  0.46646614614810744  0.621277449751382  0.8128053819418215  1.0000
  C   C7        1.0  0.34685607858946804  0.12153313446661682  0.8128467214415738  1.0000
  C   C8        1.0  0.5335305824564786  0.3787283609699656  0.18719310734849165  1.0000
  C   C9        1.0  0.6687292792209263  0.8409670998339963  0.10165522832271993  1.0000
  C   C10       1.0  0.567615151041899  0.6587606144907739  0.8982770917761302  1.0000
  C   C11       1.0  0.33126697653919024  0.15900859574502144  0.8983481310633581  1.0000
  C   C12       1.0  0.43238493100876235  0.34125679772864  0.10172079721133542  1.0000
  C   C13       1.0  0.833137163928825  0.9449457025707916  0.07566076477122861  1.0000
  C   C14       1.0  0.758187788670327  0.5549099671331845  0.9242342022307287  1.0000
  C   C15       1.0  0.16685282021041561  0.055034590579197115  0.9243394317516691  1.0000
  C   C16       1.0  0.2418122459806042  0.4451063348497898  0.07576708616890221  1.0000
  C   C17       1.0  0.05009967216506081  0.9365693071729027  0.12942022389276533  1.0000
  C   C18       1.0  0.9212754912953257  0.563365680693181  0.8704445117347321  1.0000
  C   C19       1.0  0.9498920632653808  0.0634202286473098  0.8705769104755492  1.0000
  C   C20       1.0  0.0787260640051954  0.43664598506336466  0.12955732628962835  1.0000
  C   C21       1.0  0.0344883327518275  0.9729432842749047  0.21494680167973004  1.0000
  C   C22       1.0  0.8200117841560016  0.5269781763398954  0.7849455850468987  1.0000
  C   C23       1.0  0.9655034622178532  0.027050906360052803  0.7850510354886497  1.0000
  C   C24       1.0  0.1799864760812042  0.47302416827478316  0.21505405858161455  1.0000
  S   S1        1.0  0.7747801667826479  0.7807306908627611  0.3758347133670058  1.0000
  S   S2        1.0  0.3992158891645516  0.7192929592655659  0.6241816726130837  1.0000
  S   S3        1.0  0.22523239954875862  0.21927405862923172  0.6241705472961244  1.0000
  S   S4        1.0  0.6007839131100355  0.2807059021329295  0.3758179813177237  1.0000
  N   N1        1.0  0.8676642953191873  0.9082463443467576  0.3234602453849363  1.0000
  N   N2        1.0  0.544421876327128  0.5916762422761368  0.6765000535750475  1.0000
  N   N3        1.0  0.13234827505811353  0.09175602213191783  0.6765409457614809  1.0000
  N   N4        1.0  0.455582794262483  0.40832840571947326  0.3234983729462115  1.0000
  O   O1        1.0  0.7820062669131147  0.8663079267433744  0.45212183743356604  1.0000
  O   O2        1.0  0.3302305896432074  0.6338343306300588  0.5478480044736431  1.0000
  O   O3        1.0  0.21800954997127772  0.13370027618217512  0.5478814500221179  1.0000
  O   O4        1.0  0.6697692340191709  0.366165683778668  0.4521511101347501  1.0000
  O   O5        1.0  0.5561712456088798  0.729991422269798  0.3400442712815917  1.0000
  O   O6        1.0  0.21638416490092274  0.7698923302583154  0.6600203017737487  1.0000
  O   O7        1.0  0.4438332509889733  0.2700087591157826  0.6599660368344973  1.0000
  O   O8        1.0  0.7836126111033934  0.230114590699472  0.33997478810439224  1.0000
  O   O9        1.0  0.92498386845282  0.6511393652423153  0.37929531647295534  1.0000
  O   O10       1.0  0.5458420711594273  0.848911881642735  0.6207683195440554  1.0000
  O   O11       1.0  0.07503989388425232  0.3488641047149131  0.6207020899475851  1.0000
  O   O12       1.0  0.4541530986441201  0.1510950635005202  0.3792283779990556  1.0000
