data_image0
_chemical_formula_structural       Zn4P4H20C12N8O16
_chemical_formula_sum              "Zn4 P4 H20 C12 N8 O16"
_cell_length_a       5.118173269019751
_cell_length_b       7.615447045406351
_cell_length_c       17.50472910986949
_cell_angle_alpha    90.00114326875702
_cell_angle_beta     89.86264239546554
_cell_angle_gamma    90.00036211050943

_space_group_name_H-M_alt    "P 1"
_space_group_IT_number       1

loop_
  _space_group_symop_operation_xyz
  'x, y, z'

loop_
  _atom_site_type_symbol
  _atom_site_label
  _atom_site_symmetry_multiplicity
  _atom_site_fract_x
  _atom_site_fract_y
  _atom_site_fract_z
  _atom_site_occupancy
  Zn  Zn1       1.0  0.6818063740052337  0.6402192393522838  0.4201721186526727  1.0000
  Zn  Zn2       1.0  0.6817996516465712  0.8597727075091509  0.9201716188842469  1.0000
  Zn  Zn3       1.0  0.31818823560051607  0.35979337498731206  0.5798274797106161  1.0000
  Zn  Zn4       1.0  0.3181812965130105  0.1402162706155394  0.0798273869058548  1.0000
  P   P1        1.0  0.17293766525885704  0.7407566656434882  0.5132421798500886  1.0000
  P   P2        1.0  0.17293568374845586  0.7592443773428599  0.013241977376893  1.0000
  P   P3        1.0  0.8270569744397706  0.25925726179037406  0.4867562759832538  1.0000
  P   P4        1.0  0.8270569870017325  0.24073803520642656  0.9867570465592693  1.0000
  H   H1        1.0  0.22508837555583483  0.029334600137069292  0.5247526469355606  1.0000
  H   H2        1.0  0.22509020455515127  0.47066682523907116  0.0247525574794309  1.0000
  H   H3        1.0  0.7748886350838048  0.9706793272952011  0.4752474954396392  1.0000
  H   H4        1.0  0.7748926070955805  0.529318213607368  0.9752498789295673  1.0000
  H   H5        1.0  0.0360207477721275  0.836403787327576  0.16012151033576316  1.0000
  H   H6        1.0  0.03600660344822871  0.6635968354624777  0.6601147390287352  1.0000
  H   H7        1.0  0.9639681508817542  0.16359044317927376  0.8398723661830019  1.0000
  H   H8        1.0  0.9640172975876098  0.33639870839147784  0.3398854759646568  1.0000
  H   H9        1.0  0.6217820515421906  0.6715525570427869  0.1256248921477905  1.0000
  H   H10       1.0  0.6217790886457948  0.828453104371249  0.6256195580636614  1.0000
  H   H11       1.0  0.3781967623803339  0.328449552440503  0.8743809658835462  1.0000
  H   H12       1.0  0.37826054789314156  0.17155163127101494  0.3743766823272381  1.0000
  H   H13       1.0  0.09978769460547449  0.8489463259148803  0.3077306521597977  1.0000
  H   H14       1.0  0.09976764163666019  0.6510456403009851  0.8077214784613531  1.0000
  H   H15       1.0  0.9002364321297734  0.15105972270637114  0.6922609938618365  1.0000
  H   H16       1.0  0.9002268775666804  0.3489341461037298  0.1922815473671733  1.0000
  H   H17       1.0  0.4067035551814087  0.5645556316636371  0.264230696665372  1.0000
  H   H18       1.0  0.4067092790335493  0.9354449298806029  0.7642280114662938  1.0000
  H   H19       1.0  0.5932770921675186  0.4354477910498743  0.7357797345431223  1.0000
  H   H20       1.0  0.5933108649102293  0.0645532400739341  0.23576648480226228  1.0000
  C   C1        1.0  0.6864321109874466  0.6919940822527547  0.183830660843995  1.0000
  C   C2        1.0  0.6864270492307084  0.8080066819100009  0.6838240048393871  1.0000
  C   C3        1.0  0.3135760245705654  0.30801853225013076  0.8161746714007734  1.0000
  C   C4        1.0  0.31360671096648224  0.19200067997282838  0.31617279774346235  1.0000
  C   C5        1.0  0.9385812125710586  0.7871205978069399  0.2779662980696146  1.0000
  C   C6        1.0  0.9385693690584632  0.7128725350237132  0.7779628112298483  1.0000
  C   C7        1.0  0.06141948395345758  0.2128815113848432  0.7220247403184814  1.0000
  C   C8        1.0  0.0614154114113106  0.2871138169346849  0.22203905694607334  1.0000
  C   C9        1.0  0.5817978475801482  0.6399617111293734  0.2525179366926125  1.0000
  C   C10       1.0  0.5817912929404656  0.8600378011200148  0.7525111552324901  1.0000
  C   C11       1.0  0.4182102428413614  0.36004959029238387  0.7474891093498996  1.0000
  C   C12       1.0  0.4182287908513089  0.13996562136927793  0.2474856261299365  1.0000
  N   N1        1.0  0.7408864121283399  0.7002829268380636  0.3108354427954795  1.0000
  N   N2        1.0  0.7408695115787012  0.7997134402204507  0.8108304108989017  1.0000
  N   N3        1.0  0.25914722775358706  0.2997323138731787  0.6891659299637852  1.0000
  N   N4        1.0  0.25912711186445136  0.20027422478072043  0.1891669053146217  1.0000
  N   N5        1.0  0.9098818946933918  0.7845358555909954  0.2012922283378913  1.0000
  N   N6        1.0  0.9098701636084171  0.7154614876901774  0.7012853362062188  1.0000
  N   N7        1.0  0.09012627091249927  0.21546756704177028  0.7987119613316197  1.0000
  N   N8        1.0  0.09013223092173211  0.2845353692473437  0.2987154167409614  1.0000
  O   O1        1.0  0.31293832738457883  0.6851039297406912  0.43972301816902615  1.0000
  O   O2        1.0  0.31292928167142964  0.8148819722174065  0.9397215568889338  1.0000
  O   O3        1.0  0.6870621886332983  0.31490211897040876  0.5602748754497213  1.0000
  O   O4        1.0  0.687053620252314  0.18510569279128924  0.06027745192456279  1.0000
  O   O5        1.0  0.20530872720910756  0.6063905556752541  0.5783755586686254  1.0000
  O   O6        1.0  0.2053079271392804  0.8936136400888582  0.0783753727555379  1.0000
  O   O7        1.0  0.7946917135681275  0.39361024061935257  0.421625191266486  1.0000
  O   O8        1.0  0.7946769285711355  0.10637796428603957  0.9216236391040128  1.0000
  O   O9        1.0  0.879776674254749  0.7776473869383835  0.49600775208565306  1.0000
  O   O10       1.0  0.8797706679609547  0.7223555324995061  0.9960083549686588  1.0000
  O   O11       1.0  0.12021205897549689  0.22235997491848275  0.5039924084355933  1.0000
  O   O12       1.0  0.1202180501806609  0.27764132440611883  0.0039923767750878  1.0000
  O   O13       1.0  0.2880184326853835  0.9159831781112685  0.5486254538484374  1.0000
  O   O14       1.0  0.2880011680365442  0.5840213385152351  0.0486277175052763  1.0000
  O   O15       1.0  0.7119839468517667  0.08402549692432612  0.4513758704175218  1.0000
  O   O16       1.0  0.7119796898894036  0.4159742052910288  0.9513747159199752  1.0000
