data_image0
_chemical_formula_structural       FeH10PdC14N6
_chemical_formula_sum              "Fe1 H10 Pd1 C14 N6"
_cell_length_a       7.036034547066013
_cell_length_b       7.2084973899876745
_cell_length_c       8.522196518884641
_cell_angle_alpha    115.13615521349045
_cell_angle_beta     90.00036052729111
_cell_angle_gamma    90.00014751958642

_space_group_name_H-M_alt    "P 1"
_space_group_IT_number       1

loop_
  _space_group_symop_operation_xyz
  'x, y, z'

loop_
  _atom_site_type_symbol
  _atom_site_label
  _atom_site_symmetry_multiplicity
  _atom_site_fract_x
  _atom_site_fract_y
  _atom_site_fract_z
  _atom_site_occupancy
  Fe  Fe1       1.0  0.5000006421808151  0.4998620503512258  0.9997127646434052  1.0000
  H   H1        1.0  0.7934600345615975  0.34913495774583947  0.69859461988122  1.0000
  H   H2        1.0  0.7934473812105975  0.650861420470413  0.30145111076708275  1.0000
  H   H3        1.0  0.20655700398442892  0.3491630310169355  0.698627169724169  1.0000
  H   H4        1.0  0.20656424807668827  0.6508685093136536  0.3014570385828605  1.0000
  H   H5        1.0  0.4999728937550784  0.10322201225396549  0.20601491666720753  1.0000
  H   H6        1.0  0.5000158576261384  0.8968180505560426  0.7940574632891283  1.0000
  H   H7        1.0  0.8065568427028679  0.18570656847516887  0.37134461391845963  1.0000
  H   H8        1.0  0.8065954699382304  0.8143247590677304  0.6287295015246954  1.0000
  H   H9        1.0  0.19341175792451534  0.18572671814092703  0.3713811801991511  1.0000
  H   H10       1.0  0.1934333299689399  0.8143270464556026  0.6287382655467653  1.0000
  Pd  Pd1       1.0  1.227747e-10  2.2574680485799997e-05  2.4869293689299993e-05  1.0000
  C   C1        1.0  0.8041483808847049  0.8042517762176756  5.045985451349859e-05  1.0000
  C   C2        1.0  0.8041517663460239  0.1957452628372494  0.9999098953950778  1.0000
  C   C3        1.0  0.1958361061305638  0.1957235760583274  0.9998885842094508  1.0000
  C   C4        1.0  0.19583414197842336  0.8042515387017845  3.7166631180705097e-05  1.0000
  C   C5        1.0  0.6651317112974268  0.30951080241553086  0.6194998468034922  1.0000
  C   C6        1.0  0.6651354070701954  0.6905193056951758  0.3805836925696866  1.0000
  C   C7        1.0  0.3348661356987961  0.30952173734197425  0.6195113525651266  1.0000
  C   C8        1.0  0.33487409520983386  0.6905195160069442  0.3805911893684879  1.0000
  C   C9        1.0  0.49998774348523506  0.1735379826746595  0.3470361086819267  1.0000
  C   C10       1.0  0.5000166417438052  0.8265111565367815  0.6530443586350783  1.0000
  C   C11       1.0  0.6705373509498215  0.21949760926112555  0.4392026387405963  1.0000
  C   C12       1.0  0.6705753650867833  0.7805295294942951  0.5608774695995464  1.0000
  C   C13       1.0  0.3294332839824249  0.21951758383104195  0.4392221919242089  1.0000
  C   C14       1.0  0.32944429419754323  0.7805328543179612  0.5608825835476878  1.0000
  N   N1        1.0  0.5000064234542378  0.3530174591195133  0.7066210088616031  1.0000
  N   N2        1.0  0.500005068277254  0.6470395945570218  0.2935140561430032  1.0000
  N   N3        1.0  0.6892764823441624  0.6865624892499439  0.9999540642236653  1.0000
  N   N4        1.0  0.6892746785629454  0.3133150924815595  0.9997562597045827  1.0000
  N   N5        1.0  0.3107347520400268  0.313312597974317  0.9997415037743521  1.0000
  N   N6        1.0  0.3107266070362726  0.6865490957937725  0.9999422758320476  1.0000
