data_image0
_chemical_formula_structural       Zn8H32C24N32O24
_chemical_formula_sum              "Zn8 H32 C24 N32 O24"
_cell_length_a       7.687656361
_cell_length_b       12.83204141
_cell_length_c       12.7076
_cell_angle_alpha    90.0
_cell_angle_beta     90.0
_cell_angle_gamma    90.0

_space_group_name_H-M_alt    "P 1"
_space_group_IT_number       1

loop_
  _space_group_symop_operation_xyz
  'x, y, z'

loop_
  _atom_site_type_symbol
  _atom_site_label
  _atom_site_symmetry_multiplicity
  _atom_site_fract_x
  _atom_site_fract_y
  _atom_site_fract_z
  _atom_site_occupancy
  Zn  Zn1       1.0  0.126562629013435  0.5032137750870902  0.7133290314457525  1.0000
  Zn  Zn2       1.0  0.126562629013435  0.9967860600911181  0.7866701816235917  1.0000
  Zn  Zn3       1.0  0.6266031900746112  0.2860371068581173  0.0024977179011003  1.0000
  Zn  Zn4       1.0  0.6266031900746112  0.21396283820128303  0.4975022820988997  1.0000
  Zn  Zn5       1.0  0.873439145129346  0.4967868943309455  0.286672542415559  1.0000
  Zn  Zn6       1.0  0.873439145129346  0.0032130507284549  0.213327457584441  1.0000
  Zn  Zn7       1.0  0.3733933809219606  0.7139612246622278  0.9975030690295557  1.0000
  Zn  Zn8       1.0  0.37339598249506156  0.7860378312167529  0.5024985048317561  1.0000
  H   H1        1.0  0.850515383748174  0.41794285325642744  0.6049395637256438  1.0000
  H   H2        1.0  0.850517985321275  0.0820563125037452  0.8950604362743563  1.0000
  H   H3        1.0  0.3503096227950663  0.39471272248645317  0.9179915955805955  1.0000
  H   H4        1.0  0.3503096227950663  0.10528722257295442  0.582007617488749  1.0000
  H   H5        1.0  0.14948378882149874  0.5820570368623805  0.3950604362743562  1.0000
  H   H6        1.0  0.14948378882149874  0.9179435776150627  0.1049395637256438  1.0000
  H   H7        1.0  0.649685647414955  0.6052879469315897  0.0820084044194047  1.0000
  H   H8        1.0  0.6496869482015057  0.8947118882466256  0.41799159558059534  1.0000
  H   H9        1.0  0.012958435617043997  0.3405958460042129  0.6028738707545074  1.0000
  H   H10       1.0  0.012958435617043997  0.1594048783544224  0.8971261292454927  1.0000
  H   H11       1.0  0.5126959134119389  0.397964738176448  0.8397045862318607  1.0000
  H   H12       1.0  0.5126959134119389  0.1020344275837246  0.6602954137681394  1.0000
  H   H13       1.0  0.9870420377391793  0.6594048234138299  0.3971261292454926  1.0000
  H   H14       1.0  0.9870407369526288  0.8405965703628411  0.10287308382385162  1.0000
  H   H15       1.0  0.4872993567980827  0.6020367105408226  0.1602962006987951  1.0000
  H   H16       1.0  0.4872993567980827  0.8979646832358554  0.3397053731625165  1.0000
  H   H17       1.0  0.8057605216883343  0.7645852819921687  0.5859060719569413  1.0000
  H   H18       1.0  0.8057566193286831  0.7354122152883562  0.9140931411124029  1.0000
  H   H19       1.0  0.3060217431068892  0.4144648407895062  0.2652963580849246  1.0000
  H   H20       1.0  0.3060230438934396  0.0855358835691291  0.2347028549844197  1.0000
  H   H21       1.0  0.19423995166788893  0.2354114909297209  0.4140931411124029  1.0000
  H   H22       1.0  0.19424255324098985  0.2645900127281493  0.0859076458182528  1.0000
  H   H23       1.0  0.6939787302493341  0.5855350493293017  0.7347028549844198  1.0000
  H   H24       1.0  0.6939800310358846  0.9144647858489138  0.7652979319462361  1.0000
  H   H25       1.0  0.9601326663669807  0.8413010568674582  0.6508066039220637  1.0000
  H   H26       1.0  0.9601287640073293  0.6586972197122947  0.8491918222166248  1.0000
  H   H27       1.0  0.4602768169959858  0.3508412929911202  0.3433787654631857  1.0000
  H   H28       1.0  0.4602768169959858  0.1491570934698245  0.1566212345368143  1.0000
  H   H29       1.0  0.0398678069892497  0.1586980539521221  0.3491926091472807  1.0000
  H   H30       1.0  0.0398717093489012  0.34130344970574816  0.1508089647140309  1.0000
  H   H31       1.0  0.5397262579333455  0.6491585971276876  0.6566220214674703  1.0000
  H   H32       1.0  0.5397249571467952  0.8508404587512928  0.8433779785325299  1.0000
  C   C1        1.0  0.9894523952174337  0.837395209122846  0.4848397809185059  1.0000
  C   C2        1.0  0.9894536960039844  0.6626046260553622  0.0151617929428056  1.0000
  C   C3        1.0  0.4895237017996051  0.5152313485247717  0.3380063898769237  1.0000
  C   C4        1.0  0.48951719786685277  0.9847653694565184  0.1619896754697976  1.0000
  C   C5        1.0  0.010545476565688697  0.1626046809959618  0.5151594321508384  1.0000
  C   C6        1.0  0.010545476565688697  0.3373968226619084  0.9848429286411289  1.0000
  C   C7        1.0  0.5104780723431688  0.4847685415940362  0.6619959709150436  1.0000
  C   C8        1.0  0.5104767715566181  0.0152306241661364  0.8380032421543007  1.0000
  C   C9        1.0  0.9438832407769195  0.7853723096736829  0.5856416632566308  1.0000
  C   C10       1.0  0.9438780376307179  0.7146251876068419  0.9143583367433694  1.0000
  C   C11       1.0  0.4441067393855107  0.4149082620518102  0.2863829519342787  1.0000
  C   C12       1.0  0.4441067393855107  0.0850948002045158  0.2136194088576886  1.0000
  C   C13       1.0  0.05611463100620279  0.2146275804451321  0.4143575498127134  1.0000
  C   C14       1.0  0.0561172325793038  0.2853747025119659  0.0856432371179423  1.0000
  C   C15       1.0  0.5559015386900155  0.5850916280669978  0.7136186219270328  1.0000
  C   C16       1.0  0.5559028394765662  0.9149082071112176  0.7863813780729672  1.0000
  C   C17       1.0  0.05404768117730189  0.6917854857514811  0.6173006704649211  1.0000
  C   C18       1.0  0.0540528843235037  0.8082120115290365  0.8827009033963904  1.0000
  C   C19       1.0  0.5542534421304097  0.3827037213403131  0.1921055116623123  1.0000
  C   C20       1.0  0.5542534421304097  0.1172962237190944  0.3078944883376877  1.0000
  C   C21       1.0  0.9459684016175272  0.3082167422650173  0.3826898863672099  1.0000
  C   C22       1.0  0.9459723039771786  0.1917832027943902  0.1173101136327901  1.0000
  C   C23       1.0  0.44573012100065756  0.617295389479267  0.8078913406150647  1.0000
  C   C24       1.0  0.4457327225737585  0.8827044456989483  0.6921078724542795  1.0000
  N   N1        1.0  0.8755971500167872  0.8862440228050943  0.4218979193553452  1.0000
  N   N2        1.0  0.8755945484436793  0.6137558123731139  0.0781020806446548  1.0000
  N   N3        1.0  0.375488948054972  0.5784629088100814  0.3860186030406966  1.0000
  N   N4        1.0  0.375488948054972  0.9215377056673617  0.1139829708206079  1.0000
  N   N5        1.0  0.12439812019324137  0.1137550880144786  0.5781012937139991  1.0000
  N   N6        1.0  0.12440072176634227  0.3862448570449218  0.9218994932166568  1.0000
  N   N7        1.0  0.6245128260878019  0.4215385399071891  0.6139821838899522  1.0000
  N   N8        1.0  0.6245141268743521  0.0784606258529834  0.8860186030406965  1.0000
  N   N9        1.0  0.9717304792521018  0.9232942461335156  0.34158220277629436  1.0000
  N   N10       1.0  0.9717278776790008  0.5767063683439275  0.1584177972237057  1.0000
  N   N11       1.0  0.4716417890885509  0.658373810531522  0.4226100915987274  1.0000
  N   N12       1.0  0.4716404883020003  0.8416252453474586  0.0773891214706168  1.0000
  N   N13       1.0  0.028264790957919693  0.0767040853868295  0.6584162233623942  1.0000
  N   N14       1.0  0.0282673925310206  0.4232950803733431  0.8415853504989174  1.0000
  N   N15       1.0  0.5283586842676795  0.3416268588865137  0.5773899084012726  1.0000
  N   N16       1.0  0.52835998505423  0.1583723068736589  0.9226100915987275  1.0000
  N   N17       1.0  0.1366411232074611  0.8989403658727753  0.35277550442255295  1.0000
  N   N18       1.0  0.1366385216343602  0.6010610279038957  0.1472237086467914  1.0000
  N   N19       1.0  0.6367675361809759  0.6466149644384629  0.3988148824325606  1.0000
  N   N20       1.0  0.6367675361809759  0.8533848707397524  0.1011835437061279  1.0000
  N   N21       1.0  0.8633554477891181  0.1010587449468048  0.6472237086467914  1.0000
  N   N22       1.0  0.8633580493622188  0.39893964151414  0.8527770782838644  1.0000
  N   N23       1.0  0.3632316363886972  0.3533864842788077  0.6011859044980952  1.0000
  N   N24       1.0  0.36323033560214657  0.1466126814813649  0.8988133085712491  1.0000
  N   N25       1.0  0.15043206221688615  0.8451063750112981  0.4426642324278377  1.0000
  N   N26       1.0  0.15042946064378523  0.654895018765373  0.0573357675721624  1.0000
  N   N27       1.0  0.6506482294623976  0.5567828042101084  0.34584028455412863  1.0000
  N   N28       1.0  0.6506456278892967  0.9432185895665697  0.1541589285152227  1.0000
  N   N29       1.0  0.8495658095662364  0.1548942944067377  0.5573334067801952  1.0000
  N   N30       1.0  0.8495671103527866  0.3451048713534348  0.9426673801504606  1.0000
  N   N31       1.0  0.3493522438938257  0.4432178652079344  0.6541597154458714  1.0000
  N   N32       1.0  0.3493522438938257  0.0567805212530104  0.8458387106928172  1.0000
  O   O1        1.0  0.21085619906521905  0.6821026928091882  0.5895527086153152  1.0000
  O   O2        1.0  0.21084189041316384  0.8178963630697923  0.910447291384685  1.0000
  O   O3        1.0  0.7106808295590026  0.4108200582872001  0.1816133652302554  1.0000
  O   O4        1.0  0.7106743256262433  0.0891798867722002  0.3183866347697446  1.0000
  O   O5        1.0  0.7891377703582518  0.3179010938057729  0.4104488652459963  1.0000
  O   O6        1.0  0.7891403719313528  0.1820996305528624  0.08955192168465943  1.0000
  O   O7        1.0  0.2893404563820353  0.589189183422377  0.818385847839089  1.0000
  O   O8        1.0  0.2893430579551364  0.9108145482519916  0.6816117913689439  1.0000
  O   O9        1.0  0.9813745107382272  0.413945048202585  0.6027755044225529  1.0000
  O   O10       1.0  0.9813771123113282  0.0860541175575875  0.8972244955774471  1.0000
  O   O11       1.0  0.48119346472957847  0.39616845344952634  0.9137484654852204  1.0000
  O   O12       1.0  0.481192163943028  0.1038322709091091  0.5862507475841241  1.0000
  O   O13       1.0  0.018623361044895093  0.5860556212154577  0.3972244955774471  1.0000
  O   O14       1.0  0.0186220602583447  0.9139449932619855  0.1027755044225529  1.0000
  O   O15       1.0  0.5188031062669936  0.6038314366692816  0.0862499606534683  1.0000
  O   O16       1.0  0.5188044070535438  0.8961683985089337  0.4137508262771874  1.0000
  O   O17       1.0  0.9776022297414995  0.6257164969669449  0.6773607919670113  1.0000
  O   O18       1.0  0.9775970265952905  0.8742864554081891  0.8226368472410215  1.0000
  O   O19       1.0  0.4780923895929589  0.3219643599950004  0.1264943813151191  1.0000
  O   O20       1.0  0.4780923895929589  0.1780348057651722  0.3735040448235694  1.0000
  O   O21       1.0  0.0223969428281805  0.37428183455340064  0.32263920803298873  1.0000
  O   O22       1.0  0.02239564204163  0.1257196691044626  0.17736315275897852  1.0000
  O   O23       1.0  0.521914587696017  0.6780363094230354  0.8735095533381597  1.0000
  O   O24       1.0  0.5219158884825674  0.8219604085582546  0.6264904466618404  1.0000
