data_image0
_chemical_formula_structural       Ga2H22C16S2
_chemical_formula_sum              "Ga2 H22 C16 S2"
_cell_length_a       6.9051006749950155
_cell_length_b       7.105121564661612
_cell_length_c       8.910571295557801
_cell_angle_alpha    100.53694888451602
_cell_angle_beta     89.99525277524663
_cell_angle_gamma    90.00022702361484

_space_group_name_H-M_alt    "P 1"
_space_group_IT_number       1

loop_
  _space_group_symop_operation_xyz
  'x, y, z'

loop_
  _atom_site_type_symbol
  _atom_site_label
  _atom_site_symmetry_multiplicity
  _atom_site_fract_x
  _atom_site_fract_y
  _atom_site_fract_z
  _atom_site_occupancy
  Ga  Ga1       1.0  0.4413768971838438  0.504563556697292  0.6073254991980761  1.0000
  Ga  Ga2       1.0  0.5586095464975714  0.0045630203611182  0.6073222261923519  1.0000
  H   H1        1.0  0.6188299630942496  0.6558922613234941  0.8524072089667598  1.0000
  H   H2        1.0  0.38112933576760366  0.15588371298682802  0.8524197908466675  1.0000
  H   H3        1.0  0.7874482755097251  0.5235924980784219  0.7222266659622958  1.0000
  H   H4        1.0  0.2125259167652089  0.023574349331219907  0.7222475786412516  1.0000
  H   H5        1.0  0.6290187534232886  0.40309840164290023  0.8307003221534756  1.0000
  H   H6        1.0  0.37094963489526833  0.9030953322731959  0.8306974992239944  1.0000
  H   H7        1.0  0.10022679385758694  0.40503099627616723  0.6733799795872883  1.0000
  H   H8        1.0  0.8997512353367797  0.9050195597477  0.6733802647941117  1.0000
  H   H9        1.0  0.08803061515711623  0.5533361564960871  0.532546996851508  1.0000
  H   H10       1.0  0.911977073810384  0.053333406025778594  0.532549956387605  1.0000
  H   H11       1.0  0.12670478787438103  0.658362873619531  0.7279500395501585  1.0000
  H   H12       1.0  0.8732577339303378  0.15835184301211308  0.7279408478017257  1.0000
  H   H13       1.0  0.5398429607466185  0.5058925556414238  0.12649924876144067  1.0000
  H   H14       1.0  0.46017333975579083  0.0059087450270496  0.12649228605506113  1.0000
  H   H15       1.0  0.28347637685621413  0.4852095193997741  0.9279251784456901  1.0000
  H   H16       1.0  0.7165499712705884  0.9852154787779741  0.9278969969014952  1.0000
  H   H17       1.0  0.9683889060988878  0.65247596894757  0.9881318714501643  1.0000
  H   H18       1.0  0.031647061663981915  0.15245763783443067  0.9880790536370725  1.0000
  H   H19       1.0  0.9096839305543372  0.8396873038856681  0.24904518574464155  1.0000
  H   H20       1.0  0.09032777592190662  0.33965679358133377  0.24897791950052545  1.0000
  H   H21       1.0  0.16385509102993015  0.8591379254156307  0.4474681413241938  1.0000
  H   H22       1.0  0.8361542338998335  0.35914125582502987  0.4474218198655109  1.0000
  C   C1        1.0  0.640723786636791  0.5231533667762562  0.7691049512756933  1.0000
  C   C2        1.0  0.3592540657924631  0.023116370161204707  0.769108206519938  1.0000
  C   C3        1.0  0.15913897845404532  0.5341996395064825  0.6387621744088746  1.0000
  C   C4        1.0  0.8408413130174354  0.0342218628574713  0.6387563626193609  1.0000
  C   C5        1.0  0.36776847709420224  0.6842341834926983  0.29943226544600776  1.0000
  C   C6        1.0  0.6322241806513065  0.18423692218203064  0.2994011687060336  1.0000
  C   C7        1.0  0.40146283071932515  0.5784670619094927  0.15271669513894176  1.0000
  C   C8        1.0  0.5985567356866144  0.07847302573424739  0.1526870865964867  1.0000
  C   C9        1.0  0.25724784287103836  0.5678176372073694  0.04163996327885402  1.0000
  C   C10       1.0  0.7427705622819122  0.06782639189312789  0.041611608862311286  1.0000
  C   C11       1.0  0.08061157833380862  0.6618455012166181  0.07528292344030521  1.0000
  C   C12       1.0  0.9194050355974002  0.16184505918834452  0.0752318617134407  1.0000
  C   C13       1.0  0.047324188507389016  0.7663152729889051  0.22161092253192288  1.0000
  C   C14       1.0  0.9527133439664655  0.2662987458715875  0.221558835875399  1.0000
  C   C15       1.0  0.18992003121027787  0.7771448619182593  0.3336669513601223  1.0000
  C   C16       1.0  0.8100838003319454  0.27716429605598597  0.3336324171745773  1.0000
  S   S1        1.0  0.5587823546262741  0.6972807604645935  0.43477917505901326  1.0000
  S   S2        1.0  0.44123638516541064  0.19727424444318592  0.4347691148554986  1.0000
