data_image0
_chemical_formula_structural       Al3H27C81Cl18O18
_chemical_formula_sum              "Al3 H27 C81 Cl18 O18"
_cell_length_a       4.02317529721846
_cell_length_b       27.83660344433379
_cell_length_c       27.876484528671405
_cell_angle_alpha    59.99363427151447
_cell_angle_beta     89.85638952987962
_cell_angle_gamma    89.58691821498728

_space_group_name_H-M_alt    "P 1"
_space_group_IT_number       1

loop_
  _space_group_symop_operation_xyz
  'x, y, z'

loop_
  _atom_site_type_symbol
  _atom_site_label
  _atom_site_symmetry_multiplicity
  _atom_site_fract_x
  _atom_site_fract_y
  _atom_site_fract_z
  _atom_site_occupancy
  Al  Al1       1.0  8.095952961899983e-05  0.5000094872319139  0.499906835200015  1.0000
  Al  Al2       1.0  0.9487891096897908  0.8330880615860536  0.83325452679216  1.0000
  Al  Al3       1.0  0.0621967454005414  0.16645136964696408  0.16625004473071667  1.0000
  H   H1        1.0  0.5127388898637192  0.0769300778580727  0.9227341613574253  1.0000
  H   H2        1.0  0.4946480055221158  0.25507953473195516  0.8336216907892787  1.0000
  H   H3        1.0  0.5283767203979437  0.16581444584561914  0.7448662814952199  1.0000
  H   H4        1.0  0.7222393959077351  0.012363891272883622  0.9146974809300585  1.0000
  H   H5        1.0  0.2503547440582423  0.09692594345109033  0.7534806973601744  1.0000
  H   H6        1.0  0.3006444805570325  0.08520481609873799  0.9865032181414362  1.0000
  H   H7        1.0  0.7670334643167821  0.24646925129964353  0.9030515376382692  1.0000
  H   H8        1.0  0.747908710829158  0.31718732058174465  0.7625301077169623  1.0000
  H   H9        1.0  0.2714761973140084  0.2369362306700182  0.682834549731133  1.0000
  H   H10       1.0  0.5132490574456412  0.49977074537716953  0.07736906892493069  1.0000
  H   H11       1.0  0.5276083888026619  0.5890401028429934  0.16610070027746796  1.0000
  H   H12       1.0  0.4953235923191103  0.4109324670524541  0.2552664400917023  1.0000
  H   H13       1.0  0.29369024769970753  0.42812320332895126  0.08566259375431426  1.0000
  H   H14       1.0  0.7681362890273462  0.34934137424480116  0.24667399481541713  1.0000
  H   H15       1.0  0.7297370871941242  0.5718344845092815  0.013576123845055564  1.0000
  H   H16       1.0  0.24947784238835888  0.649902570470303  0.09646761399677929  1.0000
  H   H17       1.0  0.26431056445431267  0.5799979228137173  0.23702943186275138  1.0000
  H   H18       1.0  0.7558563674146725  0.420198324399564  0.31719172083762703  1.0000
  H   H19       1.0  0.48249938243954926  0.9233618721113572  0.4997496052835259  1.0000
  H   H20       1.0  0.4630151977535776  0.8343785143495238  0.41079631030674324  1.0000
  H   H21       1.0  0.49445389893276825  0.7451559045600787  0.5886850175318014  1.0000
  H   H22       1.0  0.6976270648467987  0.9148465228436179  0.5715859997414228  1.0000
  H   H23       1.0  0.22879394848735055  0.7537651259588856  0.6500531119522889  1.0000
  H   H24       1.0  0.2734146240157571  0.9882803681931945  0.42664709115875593  1.0000
  H   H25       1.0  0.7507234464770748  0.9025459511898716  0.35120509916360004  1.0000
  H   H26       1.0  0.7220029515530155  0.763258198479974  0.41995941598076303  1.0000
  H   H27       1.0  0.23807594898192977  0.6830589205513817  0.5795089120639713  1.0000
  C   C1        1.0  0.495051654567412  0.573858341763909  0.49992532458319505  1.0000
  C   C2        1.0  0.5028746892437185  0.42617384040496364  0.5736426915896826  1.0000
  C   C3        1.0  0.5021777235279714  0.5000954043334859  0.42610049613828943  1.0000
  C   C4        1.0  0.447073207414597  0.9066035639670883  0.8332792757781319  1.0000
  C   C5        1.0  0.452249120222028  0.7596062963276753  0.9067902287827321  1.0000
  C   C6        1.0  0.44974593549198266  0.8328919980728032  0.7599240475993483  1.0000
  C   C7        1.0  0.5627998595684006  0.16676867150854946  0.09265498703523886  1.0000
  C   C8        1.0  0.5581166458053203  0.2398159304351211  0.16672207763136976  1.0000
  C   C9        1.0  0.5621673035238643  0.09292439584665865  0.23979738851298282  1.0000
  C   C10       1.0  0.5184928532139355  0.16598029785288318  0.8843762676148399  1.0000
  C   C11       1.0  0.5128214590600138  0.11602182501839314  0.8836430308148021  1.0000
  C   C12       1.0  0.5062333985318616  0.11516754073826267  0.8338280127651314  1.0000
  C   C13       1.0  0.513683464160465  0.16584521959302384  0.7838831169155113  1.0000
  C   C14       1.0  0.5120333058438858  0.2165750079596903  0.783128496307185  1.0000
  C   C15       1.0  0.5108040494746787  0.21595258974981144  0.8337153847734483  1.0000
  C   C16       1.0  0.5825043889341117  0.9624707653405338  0.8796793192164143  1.0000
  C   C17       1.0  0.6065311802731516  0.012517707772353599  0.8793758092737389  1.0000
  C   C18       1.0  0.490740041100693  0.06200994572860459  0.8339255259224385  1.0000
  C   C19       1.0  0.3546769054547028  0.059935433351391655  0.7886886076631396  1.0000
  C   C20       1.0  0.3441025345285739  0.009998438879428436  0.7885542215329193  1.0000
  C   C21       1.0  0.455550155530446  0.9602109252498182  0.8340435060160443  1.0000
  C   C22       1.0  0.4136580204578523  0.12056091049518597  0.9865929015995077  1.0000
  C   C23       1.0  0.4331285657685556  0.1204300309262578  0.03653511786040299  1.0000
  C   C24       1.0  0.555930844970341  0.1661560760842349  0.03902152803453159  1.0000
  C   C25       1.0  0.6682377222202261  0.21158951963276  0.9895511495725697  1.0000
  C   C26       1.0  0.6622934600449286  0.21131041940340375  0.939741845683265  1.0000
  C   C27       1.0  0.5301938725298215  0.16597894068336672  0.9374504005264083  1.0000
  C   C28       1.0  0.6375104423358734  0.3180006838706505  0.7265325894255523  1.0000
  C   C29       1.0  0.6331722295085453  0.3681538697686264  0.6766721855990311  1.0000
  C   C30       1.0  0.5052930464638479  0.3724309335769577  0.627372868773669  1.0000
  C   C31       1.0  0.3798971353412455  0.32295469651592174  0.6318070967313074  1.0000
  C   C32       1.0  0.38039598352305154  0.2730523181157807  0.6818988607788936  1.0000
  C   C33       1.0  0.5102987609222821  0.2696567230807643  0.7300564746011985  1.0000
  C   C34       1.0  0.5068278699321029  0.5506120945478086  0.11551243669077847  1.0000
  C   C35       1.0  0.5129309092977506  0.49983311610547787  0.11639594184575226  1.0000
  C   C36       1.0  0.5177184662995344  0.44912227191274917  0.16629975922761986  1.0000
  C   C37       1.0  0.5109250577038438  0.4499402870945132  0.2161760378858729  1.0000
  C   C38       1.0  0.5119677869030284  0.4999996236219956  0.2167713552773093  1.0000
  C   C39       1.0  0.5132448251360058  0.5499684266272381  0.16611044399519392  1.0000
  C   C40       1.0  0.42545515951734103  0.34250776570041097  0.12077514324495546  1.0000
  C   C41       1.0  0.4075156685230397  0.39240057537326567  0.12097456349363964  1.0000
  C   C42       1.0  0.5273920670575833  0.3959507257956075  0.16630522129358377  1.0000
  C   C43       1.0  0.660833358414017  0.3480161253979047  0.2115606228003698  1.0000
  C   C44       1.0  0.6654536743571028  0.2978645411606493  0.2117855409721087  1.0000
  C   C45       1.0  0.5504125515071863  0.29403405064466165  0.1663760622807756  1.0000
  C   C46       1.0  0.6126339190476388  0.6073283518037655  0.013301187027678744  1.0000
  C   C47       1.0  0.5900454106844961  0.6570815347397173  0.9632244342072196  1.0000
  C   C48       1.0  0.46135360265314773  0.7053439414071578  0.9605216799047936  1.0000
  C   C49       1.0  0.34718440918641136  0.7014359994556684  0.009911484972817908  1.0000
  C   C50       1.0  0.3562449721357126  0.6513854972313027  0.05984596579779115  1.0000
  C   C51       1.0  0.49347736293370303  0.6036952742781309  0.06234425315670928  1.0000
  C   C52       1.0  0.3765405835957835  0.5448739442915239  0.27312303313789227  1.0000
  C   C53       1.0  0.3759718695532328  0.5451347462051004  0.3229623555766991  1.0000
  C   C54       1.0  0.5053585886288515  0.5001402470656372  0.3723875173782074  1.0000
  C   C55       1.0  0.6376601764516182  0.4551347789527184  0.368098231920733  1.0000
  C   C56       1.0  0.6420149463169268  0.4553572761717745  0.31801837255424187  1.0000
  C   C57       1.0  0.5104507591434525  0.5000896038932511  0.2697489158426831  1.0000
  C   C58       1.0  0.48729227050169754  0.8850055210653379  0.4491234946268959  1.0000
  C   C59       1.0  0.4807521750008306  0.8842277273128117  0.4997791960770711  1.0000
  C   C60       1.0  0.4738292672695438  0.8342771007479826  0.5504446862284809  1.0000
  C   C61       1.0  0.47915105305904154  0.7842879348697662  0.5497031739174287  1.0000
  C   C62       1.0  0.47754925475525306  0.7836320722434065  0.49975712540693706  1.0000
  C   C63       1.0  0.47761722938813017  0.834337364800241  0.44983503582213297  1.0000
  C   C64       1.0  0.5734063557788714  0.8792870470019523  0.6572500970424925  1.0000
  C   C65       1.0  0.5863609507077429  0.8794417139439119  0.6072431529100866  1.0000
  C   C66       1.0  0.4660104838580566  0.8342099686335016  0.6035816242008917  1.0000
  C   C67       1.0  0.3363964463164564  0.7888006189695035  0.6514546233456924  1.0000
  C   C68       1.0  0.3369256249109541  0.7882351363019564  0.7016969950619366  1.0000
  C   C69       1.0  0.4530372845147427  0.8334847745441109  0.7056813466503941  1.0000
  C   C70       1.0  0.39165062429506753  0.9878057477490996  0.3917213590561625  1.0000
  C   C71       1.0  0.41981141824625473  0.03769974062282696  0.3419430665959239  1.0000
  C   C72       1.0  0.5501039127468201  0.039542734134144684  0.29433091771668524  1.0000
  C   C73       1.0  0.6613427973038454  0.9895251916267397  0.29901375900335125  1.0000
  C   C74       1.0  0.6465671398710884  0.9397349014339156  0.34911525617834355  1.0000
  C   C75       1.0  0.5066624955207573  0.9380719267028679  0.39608226036806826  1.0000
  C   C76       1.0  0.6120423338472419  0.7271389673885691  0.45502939840053347  1.0000
  C   C77       1.0  0.6147418145342771  0.6772014202575746  0.45482992033678454  1.0000
  C   C78       1.0  0.48905546246526654  0.6276922561395607  0.4998206421227207  1.0000
  C   C79       1.0  0.3574790803972547  0.6320145823403889  0.5447244756848946  1.0000
  C   C80       1.0  0.35096422779439956  0.6822093052001392  0.544416462270547  1.0000
  C   C81       1.0  0.4794162076704751  0.7305528251595419  0.4997151842813565  1.0000
  Cl  Cl1       1.0  0.18679382404565806  0.009678337908589312  0.7310862910306211  1.0000
  Cl  Cl2       1.0  0.7165136244962583  0.9023184606283935  0.9374710880110155  1.0000
  Cl  Cl3       1.0  0.2982215109534252  0.0626917570731109  0.09634550468328477  1.0000
  Cl  Cl4       1.0  0.8212087694922161  0.26917704001480314  0.9900987789529051  1.0000
  Cl  Cl5       1.0  0.7822791181542001  0.42471119996064016  0.6795982804976787  1.0000
  Cl  Cl6       1.0  0.22757491626539664  0.31988370002842714  0.575475170858695  1.0000
  Cl  Cl7       1.0  0.8202548960478211  0.23940236190895794  0.2692604058244611  1.0000
  Cl  Cl8       1.0  0.2868599446593407  0.34066531373132125  0.06312000923181671  1.0000
  Cl  Cl9       1.0  0.7284420576570627  0.6590396431191364  0.9035662712390218  1.0000
  Cl  Cl10      1.0  0.18845526657202066  0.7596641992463445  0.009145373725438218  1.0000
  Cl  Cl11      1.0  0.2182907201760712  0.6045436690663877  0.3198923044945374  1.0000
  Cl  Cl12      1.0  0.7926811544226455  0.3957197990056186  0.4245512078473224  1.0000
  Cl  Cl13      1.0  0.18803733770366904  0.7304345297772908  0.7601050906027069  1.0000
  Cl  Cl14      1.0  0.7133210717859344  0.936767985366373  0.6593301322135471  1.0000
  Cl  Cl15      1.0  0.28725176695506593  0.09817321273320084  0.33919715621085084  1.0000
  Cl  Cl16      1.0  0.82385238508968  0.9893496295683587  0.24165139104614014  1.0000
  Cl  Cl17      1.0  0.7703027068476375  0.6802706513660437  0.39552236882963837  1.0000
  Cl  Cl18      1.0  0.20656127141513997  0.5754941254503193  0.6040719363847415  1.0000
  O   O1        1.0  0.739116065333583  0.4752158177670579  0.45979644161643995  1.0000
  O   O2        1.0  0.7338582034960409  0.5652574965054383  0.4751876494162273  1.0000
  O   O3        1.0  0.7381304409297655  0.45981285797915206  0.5648780003495517  1.0000
  O   O4        1.0  0.2631384603552434  0.524869595737904  0.4347661619680705  1.0000
  O   O5        1.0  0.26609592126972365  0.43486923801135907  0.5401063147841823  1.0000
  O   O6        1.0  0.26033524367888117  0.5400375220538507  0.5248039687613683  1.0000
  O   O7        1.0  0.6861667482189021  0.807486444530994  0.7933648721352069  1.0000
  O   O8        1.0  0.6816631087975153  0.8982978741645623  0.8077004381580148  1.0000
  O   O9        1.0  0.685650752583058  0.7932997896139823  0.8985085685983591  1.0000
  O   O10       1.0  0.21075079025761317  0.8579267818455562  0.7680405861587827  1.0000
  O   O11       1.0  0.21368821657740264  0.7675680840770411  0.8739293864462211  1.0000
  O   O12       1.0  0.20861987339026208  0.8738917193082542  0.8580691185696451  1.0000
  O   O13       1.0  0.8014683249972377  0.12544751281092206  0.23187676031653837  1.0000
  O   O14       1.0  0.8025791926134361  0.14183823874461143  0.12543344845954604  1.0000
  O   O15       1.0  0.7973716296648874  0.23187922880759254  0.1417253237986884  1.0000
  O   O16       1.0  0.32962863130967435  0.10124677533308106  0.20575486837585538  1.0000
  O   O17       1.0  0.32412547675127706  0.20616671310255438  0.1919914331755734  1.0000
  O   O18       1.0  0.3269267356307068  0.19222607131276692  0.10097078153677323  1.0000
