data_image0
_chemical_formula_structural       Dy4H28C24O32
_chemical_formula_sum              "Dy4 H28 C24 O32"
_cell_length_a       6.09240419440687
_cell_length_b       10.066365063120465
_cell_length_c       15.34049670854351
_cell_angle_alpha    102.74231646661262
_cell_angle_beta     90.00351322901675
_cell_angle_gamma    107.64244641649611

_space_group_name_H-M_alt    "P 1"
_space_group_IT_number       1

loop_
  _space_group_symop_operation_xyz
  'x, y, z'

loop_
  _atom_site_type_symbol
  _atom_site_label
  _atom_site_symmetry_multiplicity
  _atom_site_fract_x
  _atom_site_fract_y
  _atom_site_fract_z
  _atom_site_occupancy
  Dy  Dy1       1.0  0.8483502287796725  0.8154123432982489  0.2949096717960629  1.0000
  Dy  Dy2       1.0  0.032858511642231705  0.18479587956908006  0.2050265603577088  1.0000
  Dy  Dy3       1.0  0.1516504609736984  0.1845882580647071  0.7050883566709132  1.0000
  Dy  Dy4       1.0  0.9671432888594821  0.8152036609115925  0.794973923615899  1.0000
  H   H1        1.0  0.08950848350242074  0.5765119450568008  0.06571993074439318  1.0000
  H   H2        1.0  0.5136340053937403  0.4237480977605443  0.434374491910674  1.0000
  H   H3        1.0  0.910492213022991  0.4234886692804025  0.9342813589378949  1.0000
  H   H4        1.0  0.4863634026641322  0.576252505650686  0.565624188684744  1.0000
  H   H5        1.0  0.5880056242710195  0.7114174925616439  0.006819452241870684  1.0000
  H   H6        1.0  0.8771508912171625  0.2888811960170656  0.49305471505093834  1.0000
  H   H7        1.0  0.4119945306425238  0.2885820398611898  0.9931790749452387  1.0000
  H   H8        1.0  0.12284816378330285  0.7111194180468488  0.5069465745740372  1.0000
  H   H9        1.0  0.3833238608937464  0.8011618392509733  0.0365946799930157  1.0000
  H   H10       1.0  0.5825415990081665  0.19911950582396537  0.46337773562679263  1.0000
  H   H11       1.0  0.6166817588521097  0.19883877331125183  0.9634059576181356  1.0000
  H   H12       1.0  0.41745581446734564  0.8008811079666601  0.5366235539408706  1.0000
  H   H13       1.0  0.21562720779535757  0.9508414885018156  0.4531611327236361  1.0000
  H   H14       1.0  0.2645415595943064  0.04912806630480301  0.0468877046916703  1.0000
  H   H15       1.0  0.784372948472594  0.049158046515870496  0.5468380467065329  1.0000
  H   H16       1.0  0.735461313295886  0.9508736172458117  0.9531130863277895  1.0000
  H   H17       1.0  0.2955220102328013  0.5009662328536635  0.01365500681085759  1.0000
  H   H18       1.0  0.7954799964316591  0.49929949829908793  0.4863119926796742  1.0000
  H   H19       1.0  0.7044759696703693  0.4990322329506115  0.9863446712821401  1.0000
  H   H20       1.0  0.20451523932466392  0.5007000436832811  0.513689143307758  1.0000
  H   H21       1.0  0.3125977668433038  0.875590077855783  0.3609258347260749  1.0000
  H   H22       1.0  0.4368883938766642  0.12451736924401761  0.13910532078492113  1.0000
  H   H23       1.0  0.6874056738289553  0.1244094603033403  0.6390739970617716  1.0000
  H   H24       1.0  0.5631134052706486  0.8754821686418097  0.860894510945613  1.0000
  H   H25       1.0  0.533408240473797  0.5461942476143662  0.18385159294999198  1.0000
  H   H26       1.0  0.9874965049209691  0.45401284546186094  0.3159696521393229  1.0000
  H   H27       1.0  0.46659355867350877  0.45380529027146105  0.8161482387805491  1.0000
  H   H28       1.0  0.012500938787965878  0.5459845488074464  0.6840298724307488  1.0000
  C   C1        1.0  0.5255837381001385  0.7734241397916294  0.06432999142076307  1.0000
  C   C2        1.0  0.7525092991816817  0.22682327632857383  0.4355921259952282  1.0000
  C   C3        1.0  0.4744197012177125  0.22657539577263466  0.9356691881240238  1.0000
  C   C4        1.0  0.24748650571112313  0.7731741228571423  0.5644087030036573  1.0000
  C   C5        1.0  0.23981006853259865  0.5441821447112147  0.0792997817444459  1.0000
  C   C6        1.0  0.696261445395166  0.4560740175621448  0.420702593778323  1.0000
  C   C7        1.0  0.7601928359454247  0.455816321912934  0.9206998965204747  1.0000
  C   C8        1.0  0.3037392457126131  0.5439265863956635  0.5792960869317199  1.0000
  C   C9        1.0  0.16437677742041493  0.4233231180980822  0.1273337762415991  1.0000
  C   C10       1.0  0.741580284271599  0.5769365216943  0.37264855643821443  1.0000
  C   C11       1.0  0.8356260981785936  0.5766785706422296  0.8726683192639798  1.0000
  C   C12       1.0  0.2584215108124824  0.42306300840697736  0.6273493185631409  1.0000
  C   C13       1.0  0.334089661446292  0.7605736724288334  0.20978103736650408  1.0000
  C   C14       1.0  0.5734994794805033  0.23964768260321995  0.2901997395983642  1.0000
  C   C15       1.0  0.6659099613362399  0.23942479624358268  0.7902192930268583  1.0000
  C   C16       1.0  0.4264973991551814  0.7603518622472833  0.7098020486894328  1.0000
  C   C17       1.0  0.7216979190051874  0.9093533676797136  0.10124406716957421  1.0000
  C   C18       1.0  0.8124756021271864  0.09085328833791811  0.3987200218611306  1.0000
  C   C19       1.0  0.27830712347773806  0.0906493721100716  0.8987529639717522  1.0000
  C   C20       1.0  0.18751909608048584  0.9091451795146311  0.6012803083603089  1.0000
  C   C21       1.0  0.4318171092127231  0.6771691881352098  0.1296940973512974  1.0000
  C   C22       1.0  0.7549357550458993  0.32309094104918756  0.37024447617643835  1.0000
  C   C23       1.0  0.5681857939108922  0.3228292758940867  0.8703049286705634  1.0000
  C   C24       1.0  0.24506494283392746  0.6769096758828679  0.6297574657489022  1.0000
  O   O1        1.0  0.6172632252867772  0.6366990947107996  0.163926874886215  1.0000
  O   O2        1.0  0.9808311465744737  0.3635638809704602  0.33594690546539147  1.0000
  O   O3        1.0  0.3827385697973043  0.36330043539047824  0.8360710001151475  1.0000
  O   O4        1.0  0.01917119283029933  0.6364367362348843  0.6640550365172615  1.0000
  O   O5        1.0  0.7710923386364071  0.011829788419945001  0.0617713450775028  1.0000
  O   O6        1.0  0.7593906618065065  0.9884771844299821  0.4382611806770029  1.0000
  O   O7        1.0  0.22890724714065408  0.9881718867995485  0.9382274890981535  1.0000
  O   O8        1.0  0.24059964937496403  0.0115223567325131  0.5617399551384991  1.0000
  O   O9        1.0  0.4666402185924809  0.8158372319596195  0.2817405068109906  1.0000
  O   O10       1.0  0.6505356911470628  0.184051912477031  0.21829603288344399  1.0000
  O   O11       1.0  0.5333610389429566  0.18416122401183802  0.7182565624243793  1.0000
  O   O12       1.0  0.34946339950445793  0.8159454924449604  0.7817061007161783  1.0000
  O   O13       1.0  0.2967116461809595  0.42013588600458  0.1922202326225033  1.0000
  O   O14       1.0  0.8767486346231337  0.5801164497940974  0.3076610164198641  1.0000
  O   O15       1.0  0.7032955835020118  0.5798679437574066  0.8077815178004855  1.0000
  O   O16       1.0  0.12324662865779604  0.419879867477249  0.692337050083843  1.0000
  O   O17       1.0  0.1354669860417062  0.7708558114511846  0.19977705505336016  1.0000
  O   O18       1.0  0.36467086764043444  0.22957290701995706  0.30018785641383516  1.0000
  O   O19       1.0  0.8645298871763385  0.22914372301992358  0.8002221242621986  1.0000
  O   O20       1.0  0.6353303623703965  0.7704287736625233  0.6998122823052526  1.0000
  O   O21       1.0  0.17626277961326778  0.8982360702949921  0.3889627042358086  1.0000
  O   O22       1.0  0.2779682082534194  0.10203087285476187  0.1110176345248988  1.0000
  O   O23       1.0  0.8237395516650493  0.10176453134125302  0.6110353242884727  1.0000
  O   O24       1.0  0.7220335922482943  0.8979686676259175  0.8889828494487019  1.0000
  O   O25       1.0  0.8394563492184092  0.9234597531603654  0.1736463027711395  1.0000
  O   O26       1.0  0.9159434041539781  0.07666148517534312  0.3262819204171734  1.0000
  O   O27       1.0  0.1605443761860244  0.07653763906067469  0.8263525696704833  1.0000
  O   O28       1.0  0.08405236915098871  0.9233391309368454  0.6737200213362441  1.0000
  O   O29       1.0  0.9762114834474502  0.3237867702440411  0.10224694650180768  1.0000
  O   O30       1.0  0.6531656489115746  0.6765014987232901  0.39783157990451207  1.0000
  O   O31       1.0  0.023788649359119226  0.6762159972692104  0.8977572591412651  1.0000
  O   O32       1.0  0.3468404700230465  0.3235033919209798  0.6021677150118521  1.0000
