data_image0
_chemical_formula_structural       Zn4H48C60N12O16
_chemical_formula_sum              "Zn4 H48 C60 N12 O16"
_cell_length_a       8.553014367014008
_cell_length_b       10.82709679606453
_cell_length_c       15.744676512341202
_cell_angle_alpha    102.34085278416252
_cell_angle_beta     90.00000708187059
_cell_angle_gamma    89.99979341742394

_space_group_name_H-M_alt    "P 1"
_space_group_IT_number       1

loop_
  _space_group_symop_operation_xyz
  'x, y, z'

loop_
  _atom_site_type_symbol
  _atom_site_label
  _atom_site_symmetry_multiplicity
  _atom_site_fract_x
  _atom_site_fract_y
  _atom_site_fract_z
  _atom_site_occupancy
  Zn  Zn1       1.0  0.5250709050250463  0.11372480075273468  0.8853083301030084  1.0000
  Zn  Zn2       1.0  0.025074586859474803  0.8862736872536701  0.6146907084813338  1.0000
  Zn  Zn3       1.0  0.47493110876779093  0.886275385990821  0.1146936247598518  1.0000
  Zn  Zn4       1.0  0.9749274269367304  0.11372461946083232  0.38530525223077217  1.0000
  H   H1        1.0  0.7048840108114974  0.3900278890232797  0.5684411664225806  1.0000
  H   H2        1.0  0.20488206254007219  0.6099729066888954  0.9315594906894591  1.0000
  H   H3        1.0  0.2951121570870754  0.6099732419741102  0.43156156316683797  1.0000
  H   H4        1.0  0.7951164437213478  0.3900253939868038  0.06843964480899702  1.0000
  H   H5        1.0  0.6797257027097743  0.3469949175457145  0.4099206641379851  1.0000
  H   H6        1.0  0.17972578076852844  0.6530087833855946  0.09008128804361354  1.0000
  H   H7        1.0  0.32027046518467733  0.653008101942241  0.5900836149022554  1.0000
  H   H8        1.0  0.8202738946671032  0.34699140698774766  0.9099187619483047  1.0000
  H   H9        1.0  0.457597538039643  0.134457180074719  0.6964282018781135  1.0000
  H   H10       1.0  0.9575973601162103  0.8655409911707396  0.8035689015584495  1.0000
  H   H11       1.0  0.5424103216453916  0.8655430066602818  0.3035737529835956  1.0000
  H   H12       1.0  0.04240114614509591  0.1344573107137492  0.19642959898287427  1.0000
  H   H13       1.0  0.4504429228393292  0.3067234682053694  0.6166742436105395  1.0000
  H   H14       1.0  0.9504400620210305  0.6932766124735181  0.8833244120901753  1.0000
  H   H15       1.0  0.5495590909517675  0.6932776591571042  0.3833303908491246  1.0000
  H   H16       1.0  0.049556105880910195  0.3067226384948256  0.1166723233484959  1.0000
  H   H17       1.0  0.5772304104616168  0.5659328255776118  0.8581348686419192  1.0000
  H   H18       1.0  0.07722918189990931  0.4340626710044262  0.6418650000466002  1.0000
  H   H19       1.0  0.42277160333154024  0.43406735753958253  0.14186899109233764  1.0000
  H   H20       1.0  0.9227669860066926  0.5659346854294113  0.358133360726903  1.0000
  H   H21       1.0  0.5584514938072118  0.3864869707590657  0.9287879080239136  1.0000
  H   H22       1.0  0.05845291787021271  0.6135057456246784  0.571210913784931  1.0000
  H   H23       1.0  0.44155168916851306  0.6135113238658504  0.07121440225927961  1.0000
  H   H24       1.0  0.9415444192192697  0.3864897186905267  0.4287878024089197  1.0000
  H   H25       1.0  0.3448449329530376  0.8877229406040641  0.8934151974975322  1.0000
  H   H26       1.0  0.8448551960765444  0.11227650002182801  0.6065852648189747  1.0000
  H   H27       1.0  0.6551465582289636  0.11227914310697429  0.10658386211829911  1.0000
  H   H28       1.0  0.155144479365056  0.8877208600332481  0.39341119108244277  1.0000
  H   H29       1.0  0.335724686133986  0.6606381203566513  0.8206010423041122  1.0000
  H   H30       1.0  0.8357280749817164  0.33935756636342523  0.6793982295690668  1.0000
  H   H31       1.0  0.664270312591789  0.3393601839505465  0.17939618832364354  1.0000
  H   H32       1.0  0.16426458539150698  0.6606388470390526  0.3205987215225861  1.0000
  H   H33       1.0  0.6873478781813702  0.7380563315869253  0.6416671420349331  1.0000
  H   H34       1.0  0.18735336456663987  0.2619407360375093  0.8583316929824962  1.0000
  H   H35       1.0  0.31265530479424086  0.26194196424678046  0.358334533291135  1.0000
  H   H36       1.0  0.8126463108744203  0.7380566300615001  0.14166158813326754  1.0000
  H   H37       1.0  0.6843951975743253  0.9617463262572771  0.7222762127830649  1.0000
  H   H38       1.0  0.1844016940444249  0.038252639706442396  0.777723537888683  1.0000
  H   H39       1.0  0.31560798539478446  0.0382548059386352  0.277725881847843  1.0000
  H   H40       1.0  0.8155979813971683  0.9617447203486266  0.22227291801274163  1.0000
  H   H41       1.0  0.9243383327681727  0.1190136489019693  0.9921038954473502  1.0000
  H   H42       1.0  0.42434317307608893  0.8809865105817989  0.5078935006004528  1.0000
  H   H43       1.0  0.0756636810292193  0.8809846445158701  0.007899049793209718  1.0000
  H   H44       1.0  0.5756693633083927  0.1190202846545461  0.49211451229534486  1.0000
  H   H45       1.0  0.20837876843372533  0.17585907587690028  0.060668381598084395  1.0000
  H   H46       1.0  0.7083683045204053  0.824147369113504  0.4393384233255587  1.0000
  H   H47       1.0  0.791624414535491  0.8241420551102293  0.9393343479899557  1.0000
  H   H48       1.0  0.2916325400776287  0.1758594491069232  0.560657525387029  1.0000
  C   C1        1.0  0.5123609350464945  0.5244450028199026  0.5904381007233965  1.0000
  C   C2        1.0  0.0123596024645281  0.47555541209062113  0.9095618573524789  1.0000
  C   C3        1.0  0.48763289449530595  0.4755561269721225  0.4095652638236161  1.0000
  C   C4        1.0  0.9876365654330784  0.5244457297858673  0.09043515762274981  1.0000
  C   C5        1.0  0.6143812982499951  0.4384596945328669  0.5394191480954476  1.0000
  C   C6        1.0  0.11438075317239792  0.5615432605800592  0.9605799192621163  1.0000
  C   C7        1.0  0.38561486965042485  0.561540494636823  0.46058153685429903  1.0000
  C   C8        1.0  0.8856165839038611  0.4384578788771378  0.039418365627149385  1.0000
  C   C9        1.0  0.6006060796634144  0.41402417841700884  0.4495134342592806  1.0000
  C   C10       1.0  0.1006052861356679  0.5859769140811579  0.05049003459448188  1.0000
  C   C11       1.0  0.39939008824404  0.585973168346527  0.5504900061712803  1.0000
  C   C12       1.0  0.8993920509369032  0.414026109031454  0.9495123395741275  1.0000
  C   C13       1.0  0.4828246818381102  0.231547674907965  0.7301751480825799  1.0000
  C   C14       1.0  0.9828226043862784  0.7684504249272378  0.7698206755221833  1.0000
  C   C15       1.0  0.517183177849418  0.7684515627466054  0.2698285718822433  1.0000
  C   C16       1.0  0.017174732695948998  0.231547884211686  0.2301740152765817  1.0000
  C   C17       1.0  0.4796185629175085  0.3283215848321461  0.685332490319901  1.0000
  C   C18       1.0  0.979614610384672  0.6716755704733544  0.8146676394773422  1.0000
  C   C19       1.0  0.520386958408487  0.6716795473603484  0.314669604310545  1.0000
  C   C20       1.0  0.0203803883393618  0.3283236744527613  0.1853322707472174  1.0000
  C   C21       1.0  0.5139558819412429  0.45335330576865834  0.7285508986764953  1.0000
  C   C22       1.0  0.0139530051877017  0.5466423820410994  0.7714458201027128  1.0000
  C   C23       1.0  0.4860461318518077  0.5466468785573184  0.2714523261006292  1.0000
  C   C24       1.0  0.9860408243659226  0.4533530883231762  0.228549721306166  1.0000
  C   C25       1.0  0.5460953956577866  0.47374589578756604  0.8184280210971197  1.0000
  C   C26       1.0  0.046091414600852004  0.5262496882929212  0.6815737647038915  1.0000
  C   C27       1.0  0.453908956492036  0.5262542897437825  0.18157456872241082  1.0000
  C   C28       1.0  0.9539035841320712  0.47374577239934024  0.3184268563618105  1.0000
  C   C29       1.0  0.5406846795557456  0.37230571217097  0.8588538774973954  1.0000
  C   C30       1.0  0.0406825534107753  0.6276908404487787  0.6411442404559295  1.0000
  C   C31       1.0  0.4593220109531302  0.6276935279028849  0.1411485725533907  1.0000
  C   C32       1.0  0.9593147836718786  0.3723074638549946  0.3588529901713642  1.0000
  C   C33       1.0  0.4185336493134315  0.850943854114  0.8372389804077828  1.0000
  C   C34       1.0  0.9185402529900059  0.1490487575140236  0.6627579347326461  1.0000
  C   C35       1.0  0.5814636877713896  0.14905350473570422  0.1627581104512288  1.0000
  C   C36       1.0  0.0814570840968756  0.850947657090401  0.3372383814009581  1.0000
  C   C37       1.0  0.4152426995467238  0.7239866886382912  0.7969554340418201  1.0000
  C   C38       1.0  0.9152498972976701  0.27601349141767884  0.703045140367081  1.0000
  C   C39       1.0  0.5847534683471948  0.2760163368936048  0.20304567021275943  1.0000
  C   C40       1.0  0.08474627061315232  0.7239819753168106  0.2969523059127326  1.0000
  C   C41       1.0  0.5149666967377016  0.6795838298949732  0.7265220176649407  1.0000
  C   C42       1.0  0.014969545807559805  0.3204118513217579  0.7734766055871418  1.0000
  C   C43       1.0  0.48503765541830285  0.32041352290052316  0.2734782479783533  1.0000
  C   C44       1.0  0.9850231145632833  0.6795855099523678  0.22651921535852892  1.0000
  C   C45       1.0  0.6103714495388459  0.767255357570122  0.6974087309431881  1.0000
  C   C46       1.0  0.1103782220329279  0.23274665656065707  0.8025940079638971  1.0000
  C   C47       1.0  0.3896305642458556  0.23274860494577607  0.302596957778448  1.0000
  C   C48       1.0  0.8896214534067183  0.7672516465309089  0.19740385762006704  1.0000
  C   C49       1.0  0.6076423041773893  0.8924800553010787  0.7416229785634202  1.0000
  C   C50       1.0  0.1076508116287016  0.10751441164332216  0.7583741985701096  1.0000
  C   C51       1.0  0.3923597096261773  0.10751540538091578  0.2583776425009034  1.0000
  C   C52       1.0  0.8923476946319654  0.8924838974938962  0.24162049222842796  1.0000
  C   C53       1.0  0.8292888303742458  0.10336357278011833  0.9426568830571824  1.0000
  C   C54       1.0  0.32929361444609373  0.8966415824788642  0.5573463288572711  1.0000
  C   C55       1.0  0.17071201424047186  0.8966366103387883  0.05734697667730153  1.0000
  C   C56       1.0  0.6707154144025367  0.10336521880655881  0.4426585092535618  1.0000
  C   C57       1.0  0.2982826858213983  0.19799235319718628  0.015083834609697502  1.0000
  C   C58       1.0  0.7982805237720143  0.8020091062300312  0.4849196962971689  1.0000
  C   C59       1.0  0.7017181588039421  0.8020031050689415  0.9849180563691179  1.0000
  C   C60       1.0  0.2017249975462931  0.19799487562134035  0.5150758331096696  1.0000
  N   N1        1.0  0.5185481817975841  0.5507262351677512  0.6835033625070113  1.0000
  N   N2        1.0  0.0185504478708864  0.44927132164112754  0.8164980787022318  1.0000
  N   N3        1.0  0.48145032446209507  0.449273006126866  0.3164984525882559  1.0000
  N   N4        1.0  0.981443381674602  0.5507279244954902  0.1835011965654303  1.0000
  N   N5        1.0  0.5127813389963904  0.2518564526433097  0.8163891195836329  1.0000
  N   N6        1.0  0.012778668645928802  0.7481392325596589  0.683610774442954  1.0000
  N   N7        1.0  0.48722652068865097  0.7481437340916912  0.18361283527806901  1.0000
  N   N8        1.0  0.9872174992588256  0.2518590657018863  0.31638963097022815  1.0000
  N   N9        1.0  0.5150655005017627  0.9343585192781986  0.8111979652115339  1.0000
  N   N10       1.0  0.0150753482645314  0.06563999316618659  0.6888036171336935  1.0000
  N   N11       1.0  0.4849306674011443  0.06564072081105371  0.1888044848413273  1.0000
  N   N12       1.0  0.9849231579988423  0.9343573644730228  0.3111941086822227  1.0000
  O   O1        1.0  0.7005001856104229  0.16217408405806572  0.9686101316665159  1.0000
  O   O2        1.0  0.20050406450913982  0.8378257826477338  0.531388482528179  1.0000
  O   O3        1.0  0.29949715148468675  0.8378194748435416  0.031395924476356564  1.0000
  O   O4        1.0  0.7995061335171768  0.16218102709748897  0.46861191088250104  1.0000
  O   O5        1.0  0.8531530788230341  0.03461129787728372  0.8697766160474458  1.0000
  O   O6        1.0  0.35315873749839005  0.9653843462944707  0.6302182042734898  1.0000
  O   O7        1.0  0.1468442582471496  0.965392673106976  0.13022462797518128  1.0000
  O   O8        1.0  0.6468432762755826  0.03462434228299569  0.3697888182466755  1.0000
  O   O9        1.0  0.3366274433044012  0.10035897711668439  0.9559741862268752  1.0000
  O   O10       1.0  0.8366293601282351  0.8996442657609195  0.5440287432664448  1.0000
  O   O11       1.0  0.6633745704906032  0.8996402641728026  0.04402762886770265  1.0000
  O   O12       1.0  0.1633820070706804  0.10036445181376763  0.45596304028072154  1.0000
  O   O13       1.0  0.3508112831525523  0.30725902701370705  0.024451145385789616  1.0000
  O   O14       1.0  0.8508049476783413  0.6927451235113793  0.47554833947548764  1.0000
  O   O15       1.0  0.6491942381753901  0.6927411621422905  0.9755495395621169  1.0000
  O   O16       1.0  0.1491912202018142  0.3072635832064562  0.5244491586888458  1.0000
