data_image0
_chemical_formula_structural       Mn2H44C40N8O10
_chemical_formula_sum              "Mn2 H44 C40 N8 O10"
_cell_length_a       8.703567453067283
_cell_length_b       10.949008458371745
_cell_length_c       11.2985
_cell_angle_alpha    95.91984235026936
_cell_angle_beta     107.9576211480588
_cell_angle_gamma    107.27440280475223

_space_group_name_H-M_alt    "P 1"
_space_group_IT_number       1

loop_
  _space_group_symop_operation_xyz
  'x, y, z'

loop_
  _atom_site_type_symbol
  _atom_site_label
  _atom_site_symmetry_multiplicity
  _atom_site_fract_x
  _atom_site_fract_y
  _atom_site_fract_z
  _atom_site_occupancy
  Mn  Mn1       1.0  0.7522927041431373  0.8982451268782015  0.10291490615901466  1.0000
  Mn  Mn2       1.0  0.2480427477967879  0.1013055100612021  0.8965609285496043  1.0000
  H   H1        1.0  0.29157988260698187  0.4562836208561194  0.8733301496595942  1.0000
  H   H2        1.0  0.20807075422636254  0.1227573471779309  0.5405209690301689  1.0000
  H   H3        1.0  0.7065021780112914  0.5447054945935578  0.1249019436556225  1.0000
  H   H4        1.0  0.7901488985293454  0.8757102691812407  0.46037447080464483  1.0000
  H   H5        1.0  0.39185500718759414  0.6730972906129367  0.03842085901690243  1.0000
  H   H6        1.0  0.10827430708121  0.9562885671070731  0.3274278135023678  1.0000
  H   H7        1.0  0.6070118430307191  0.32835108039923716  0.9594186635170203  1.0000
  H   H8        1.0  0.8904750041075148  0.0417893185188944  0.6737890138696301  1.0000
  H   H9        1.0  0.8434007077571978  0.8227558506119125  0.8411806549370767  1.0000
  H   H10       1.0  0.6576723533597005  0.1655660367854495  0.18379527070556634  1.0000
  H   H11       1.0  0.15837611368827  0.1756990358489361  0.1585005553357064  1.0000
  H   H12       1.0  0.3437241549995563  0.8344193751427654  0.8151794564428202  1.0000
  H   H13       1.0  0.8470539197998834  0.6657374509375202  0.6673691236751012  1.0000
  H   H14       1.0  0.6518961023700243  0.3401732390476297  0.3405580875463627  1.0000
  H   H15       1.0  0.1543935610174074  0.3318831375718361  0.33287093150391195  1.0000
  H   H16       1.0  0.34942837978369573  0.660524067963614  0.6577564306392532  1.0000
  H   H17       1.0  0.630497434805733  0.4420682413233905  0.5873300453481747  1.0000
  H   H18       1.0  0.8657099320222842  0.415615512612419  0.5595231572459411  1.0000
  H   H19       1.0  0.3692597328302441  0.5561271510563088  0.4125952126534926  1.0000
  H   H20       1.0  0.13411746177325065  0.5845412633316515  0.43927569771461356  1.0000
  H   H21       1.0  0.4047262177004641  0.36500535378004173  0.6822007192043813  1.0000
  H   H22       1.0  0.09193539981476562  0.3148877440903917  0.6329360790686636  1.0000
  H   H23       1.0  0.5935653707911541  0.6347323147423866  0.31678006276976584  1.0000
  H   H24       1.0  0.9063560939450497  0.684075359080353  0.3671028141078382  1.0000
  H   H25       1.0  0.3293972071602482  0.8513942049423022  0.30122215892030363  1.0000
  H   H26       1.0  0.1711851073425237  0.6981800864199812  0.157344001882592  1.0000
  H   H27       1.0  0.6708401912815986  0.1511450204336882  0.6992309504805831  1.0000
  H   H28       1.0  0.828173384674237  0.3016721511873328  0.8453551794043648  1.0000
  H   H29       1.0  0.4116390932869365  0.0142702160178061  0.2831312183103378  1.0000
  H   H30       1.0  0.1025573973765503  0.7223522048856026  0.9996858053575792  1.0000
  H   H31       1.0  0.5899703720569605  0.9878567564971732  0.7168223828064484  1.0000
  H   H32       1.0  0.8994442913997035  0.2778104463961526  0.002913659999983111  1.0000
  H   H33       1.0  0.6740159979753031  0.05118790037155921  0.48216546988694375  1.0000
  H   H34       1.0  0.827966460067671  0.5230901272445508  0.9529004765279153  1.0000
  H   H35       1.0  0.32687541386630414  0.9506972040753254  0.5182961656425747  1.0000
  H   H36       1.0  0.17221869864835782  0.47775700087769485  0.048487183571715824  1.0000
  H   H37       1.0  0.5730303027414081  0.8903202755619263  0.49888369046618664  1.0000
  H   H38       1.0  0.9252747530364189  0.49691549785075045  0.10686445871869664  1.0000
  H   H39       1.0  0.4271840429223701  0.1116372913830901  0.5013880942396582  1.0000
  H   H40       1.0  0.0738070098948285  0.5031267090084341  0.8943400055790961  1.0000
  H   H41       1.0  0.6423820176137909  0.0430701421345745  0.9375087066641116  1.0000
  H   H42       1.0  0.8475606269959997  0.0633596416122941  0.963207135388714  1.0000
  H   H43       1.0  0.3585786935050309  0.9573676707955132  0.0629654622548657  1.0000
  H   H44       1.0  0.15341298517026297  0.9369293294297236  0.03749684630317055  1.0000
  C   C1        1.0  0.44896349007853337  0.6564984824253416  0.9684639863320613  1.0000
  C   C2        1.0  0.050514756324638206  0.028188890997363103  0.3441505429748162  1.0000
  C   C3        1.0  0.5503663548386015  0.3442477857332875  0.02988441474613522  1.0000
  C   C4        1.0  0.9484462402782939  0.9701856991817764  0.6566249068142582  1.0000
  C   C5        1.0  0.7477916591168139  0.7245466435115446  0.806962621280789  1.0000
  C   C6        1.0  0.7520018676423063  0.197742323626116  0.28019048892790716  1.0000
  C   C7        1.0  0.2532700671268202  0.274196134495952  0.19263417027988083  1.0000
  C   C8        1.0  0.2488323390556815  0.8022019609382909  0.718980251987503  1.0000
  C   C9        1.0  0.7487271968284547  0.6358035846472418  0.7095503564154128  1.0000
  C   C10       1.0  0.7501417596382964  0.2955226310753574  0.3686877896833636  1.0000
  C   C11       1.0  0.2522017165784547  0.3624397896568965  0.29036680119515523  1.0000
  C   C12       1.0  0.25081899004255354  0.7048809090515462  0.6300499895364453  1.0000
  C   C13       1.0  0.6262831424897186  0.5079435066884983  0.664512925011529  1.0000
  C   C14       1.0  0.8712682645605696  0.3380160108936963  0.4940911350740932  1.0000
  C   C15       1.0  0.3737024992013076  0.4906249696342968  0.3352003046452054  1.0000
  C   C16       1.0  0.12884222910087575  0.6620545934309733  0.5049761067249818  1.0000
  C   C17       1.0  0.4978551286263198  0.4641859500445947  0.7149921626729494  1.0000
  C   C18       1.0  0.999708247163305  0.2845239989260477  0.5356828127007914  1.0000
  C   C19       1.0  0.5013676584220904  0.535253055478762  0.284216219314942  1.0000
  C   C20       1.0  0.9995656942142617  0.7148846506859314  0.46404333620800037  1.0000
  C   C21       1.0  0.4976567239127477  0.5530514117773748  0.8128900022415166  1.0000
  C   C22       1.0  0.0009063861235957945  0.186359836081273  0.4468884093615628  1.0000
  C   C23       1.0  0.501700444625989  0.4469036442394625  0.1859885440962543  1.0000
  C   C24       1.0  0.998399315821871  0.8127188153973037  0.5531577446305036  1.0000
  C   C25       1.0  0.621054460676973  0.6817614552547795  0.860469271856843  1.0000
  C   C26       1.0  0.8786358851829944  0.14100418758661704  0.3206650399869702  1.0000
  C   C27       1.0  0.3791753934923676  0.3178831870876166  0.1386182627680981  1.0000
  C   C28       1.0  0.1213789201313773  0.8582967475011075  0.6791256677464688  1.0000
  C   C29       1.0  0.554652786418103  0.8924324594602595  0.2509968431809638  1.0000
  C   C30       1.0  0.9525905003983157  0.7605732349828358  0.1069817120122352  1.0000
  C   C31       1.0  0.4454855969058826  0.10775467239519541  0.7497251694597792  1.0000
  C   C32       1.0  0.04741383134364703  0.24018478385116995  0.8932521787843868  1.0000
  C   C33       1.0  0.4490728056026684  0.93443622780471  0.32047035738336405  1.0000
  C   C34       1.0  0.05643085876905477  0.6834604070691556  0.07313930059884655  1.0000
  C   C35       1.0  0.5517077778768638  0.0675605080582145  0.6798575134636025  1.0000
  C   C36       1.0  0.9439564787078325  0.3168089795139153  0.9288696914004219  1.0000
  C   C37       1.0  0.5484216313560495  0.975288429962589  0.46394582660736466  1.0000
  C   C38       1.0  0.9523611079144629  0.5372173767119861  0.027229557812525253  1.0000
  C   C39       1.0  0.4522545235828375  0.0268365841064977  0.5364178570946052  1.0000
  C   C40       1.0  0.047497947929017015  0.4631381814904856  0.9743173997512145  1.0000
  N   N1        1.0  0.3902657844592099  0.5417159269340246  0.8820826986106525  1.0000
  N   N2        1.0  0.108099006056662  0.1141196215556803  0.45696199902005935  1.0000
  N   N3        1.0  0.6085342296909815  0.4589598371723653  0.11631425946666946  1.0000
  N   N4        1.0  0.8905318348770095  0.8843597454788679  0.5437437397823643  1.0000
  N   N5        1.0  0.5882742937454353  0.7437482262943078  0.9602803310429522  1.0000
  N   N6        1.0  0.9122366292465571  0.0392355050711188  0.25898721219098064  1.0000
  N   N7        1.0  0.4118224857397692  0.2564271548857775  0.0384347859664231  1.0000
  N   N8        1.0  0.08744933531174584  0.9595229405035469  0.7413022320684491  1.0000
  O   O1        1.0  0.7487855147312104  0.0310227622081953  0.99240462535883  1.0000
  O   O2        1.0  0.25235348161454857  0.9700456703002445  0.008665245758614028  1.0000
  O   O3        1.0  0.5409597226825653  0.9167064171124437  0.1389463038341674  1.0000
  O   O4        1.0  0.9679193979666536  0.8736392126467152  0.07753652077092713  1.0000
  O   O5        1.0  0.4594893493026007  0.0823369823400171  0.8613607999968592  1.0000
  O   O6        1.0  0.0327291205922577  0.126794683391573  0.9218700578407848  1.0000
  O   O7        1.0  0.6586579556308507  0.8380895027509965  0.30347757991832225  1.0000
  O   O8        1.0  0.8435848238304046  0.7151529577736255  0.1586240067545859  1.0000
  O   O9        1.0  0.3400987294087443  0.1614395912835604  0.6980878389820687  1.0000
  O   O10       1.0  0.15490131150791336  0.286588200899935  0.8408209509515102  1.0000
