data_image0
_chemical_formula_structural       Al2H14C26N2O14F2
_chemical_formula_sum              "Al2 H14 C26 N2 O14 F2"
_cell_length_a       6.609245256633692
_cell_length_b       11.035640467802972
_cell_length_c       16.834362887807494
_cell_angle_alpha    85.70091190574016
_cell_angle_beta     84.22856589863162
_cell_angle_gamma    73.1298830678949

_space_group_name_H-M_alt    "P 1"
_space_group_IT_number       1

loop_
  _space_group_symop_operation_xyz
  'x, y, z'

loop_
  _atom_site_type_symbol
  _atom_site_label
  _atom_site_symmetry_multiplicity
  _atom_site_fract_x
  _atom_site_fract_y
  _atom_site_fract_z
  _atom_site_occupancy
  Al  Al1       1.0  0.5055919682473939  0.499820194520737  0.48846902485085053  1.0000
  Al  Al2       1.0  0.002965178918124373  0.5024412751127585  0.4902815622202752  1.0000
  H   H1        1.0  0.23891446944853803  0.5740822677767667  0.3943341417604104  1.0000
  H   H2        1.0  0.8123418577559748  0.34988406917049275  0.5402552595789842  1.0000
  H   H3        1.0  0.8610129654365009  0.5609072790999504  0.7207751296020888  1.0000
  H   H4        1.0  0.7940666516149976  0.5620464397389426  0.8701716156494896  1.0000
  H   H5        1.0  0.46957514356432023  0.4423975694673103  0.8905035057237003  1.0000
  H   H6        1.0  0.5600775615026167  0.5428445890159708  0.0846983317612242  1.0000
  H   H7        1.0  0.23056785409052352  0.45764248091764137  0.10988188116015611  1.0000
  H   H8        1.0  0.15564691752729937  0.4561785180744096  0.2584536482425079  1.0000
  H   H9        1.0  0.8706187040923012  0.7684771755948603  0.6190283575914108  1.0000
  H   H10       1.0  0.5956977876516732  0.2357780727047754  0.6183099371558711  1.0000
  H   H11       1.0  0.10021733118719568  0.20916248948856253  0.4393767635028283  1.0000
  H   H12       1.0  0.3210184373925741  0.7794400847862873  0.45077721907100715  1.0000
  H   H13       1.0  0.0636509435271365  0.7872704778905584  0.7180894724297175  1.0000
  H   H14       1.0  0.8035446614006716  0.22262149564215153  0.7183973647884797  1.0000
  C   C1        1.0  0.6472846181977019  0.7275954384329069  0.5048674525708421  1.0000
  C   C2        1.0  0.784066979447971  0.4991230211205959  0.3447658731840377  1.0000
  C   C3        1.0  0.35546499580478746  0.2701575640582021  0.49582802449226193  1.0000
  C   C4        1.0  0.22947386693975583  0.5042770987278756  0.6324892574239271  1.0000
  C   C5        1.0  0.1999388233923297  0.504263822869916  0.7214636206816607  1.0000
  C   C6        1.0  0.9921139314146432  0.5367432412320737  0.7589678707571323  1.0000
  C   C7        1.0  0.9545398707620476  0.536661946123104  0.8413376298508624  1.0000
  C   C8        1.0  0.12740196212230606  0.5020612620370528  0.8890259910642867  1.0000
  C   C9        1.0  0.3359553601054941  0.4700303075899652  0.8534364191569495  1.0000
  C   C10       1.0  0.368385159706051  0.4707418065372763  0.7707683740113467  1.0000
  C   C11       1.0  0.6909230911259101  0.5229905426712875  0.12278099327583192  1.0000
  C   C12       1.0  0.8998990731580746  0.500522444683682  0.0884788086022823  1.0000
  C   C13       1.0  0.0692613296336617  0.47556752965477495  0.1374543783673019  1.0000
  C   C14       1.0  0.026925851383815286  0.47490143434313126  0.21959848584594974  1.0000
  C   C15       1.0  0.818446598894873  0.49849164455693545  0.2559046073608613  1.0000
  C   C16       1.0  0.6537180290408459  0.5222584384227388  0.2053530473640777  1.0000
  C   C17       1.0  0.5577555848349005  0.8635955525478636  0.5173144774943381  1.0000
  C   C18       1.0  0.6540466287409145  0.9326547496923892  0.5646369421976871  1.0000
  C   C19       1.0  0.37253935452733317  0.9279027843432673  0.4798887245701239  1.0000
  C   C20       1.0  0.8098246475642127  0.8713450730305256  0.6175408210791816  1.0000
  C   C21       1.0  0.8849562970507773  0.9370529604568604  0.6690334450211779  1.0000
  C   C22       1.0  0.4117306211292587  0.1327067900073047  0.5125532410283569  1.0000
  C   C23       1.0  0.3010810101434203  0.063678933446738  0.4766217927574631  1.0000
  C   C24       1.0  0.5782841116777603  0.06798970345866448  0.5631319229735112  1.0000
  C   C25       1.0  0.6580423089390733  0.13322861792765647  0.6160966509271333  1.0000
  C   C26       1.0  0.8062583278628849  0.07102012291066019  0.6688029802316962  1.0000
  N   N1        1.0  0.10835839863167247  0.4961494015785989  0.9735684849696113  1.0000
  N   N2        1.0  0.9215773438198481  0.505578328682148  0.004057713458003319  1.0000
  O   O1        1.0  0.5230306536435447  0.6691920485172389  0.4795868630572286  1.0000
  O   O2        1.0  0.9306061593223234  0.5203071461483617  0.3807624467998281  1.0000
  O   O3        1.0  0.1674931251621955  0.32675151357638293  0.47288209684393934  1.0000
  O   O4        1.0  0.39464770003764477  0.5276116215551667  0.5978851542909069  1.0000
  O   O5        1.0  0.4912246546101287  0.3295099723644697  0.5027269037326435  1.0000
  O   O6        1.0  0.08313216509806405  0.4808282888104855  0.5979921778542447  1.0000
  O   O7        1.0  0.8406582292309464  0.6704915089919937  0.5149116432647105  1.0000
  O   O8        1.0  0.6146210749655339  0.47876914607360976  0.3780402252402482  1.0000
  O   O9        1.0  0.23497618172033433  0.5598081206831437  0.45208000945753923  1.0000
  O   O10       1.0  0.7760126347067879  0.4390810952565475  0.5235143447895467  1.0000
  O   O11       1.0  0.13283528544645407  0.1157574485784423  0.4340702265687001  1.0000
  O   O12       1.0  0.25682783678248444  0.8728915844563404  0.44163298586271793  1.0000
  O   O13       1.0  0.02993913826498581  0.8786804709503213  0.7227070300789578  1.0000
  O   O14       1.0  0.8789781799414058  0.13242834747473609  0.7225616185920316  1.0000
  F   F1        1.0  0.5730761587634206  0.4325492518136187  0.7380933696898709  1.0000
  F   F2        1.0  0.44804916535498035  0.549805884269503  0.23602973782839598  1.0000
