data_image0
_chemical_formula_structural       La2Fe4H50C72N4O16
_chemical_formula_sum              "La2 Fe4 H50 C72 N4 O16"
_cell_length_a       11.676227716512424
_cell_length_b       12.058742906135274
_cell_length_c       13.7122
_cell_angle_alpha    94.44063102982204
_cell_angle_beta     109.28679284255782
_cell_angle_gamma    117.70540931268768

_space_group_name_H-M_alt    "P 1"
_space_group_IT_number       1

loop_
  _space_group_symop_operation_xyz
  'x, y, z'

loop_
  _atom_site_type_symbol
  _atom_site_label
  _atom_site_symmetry_multiplicity
  _atom_site_fract_x
  _atom_site_fract_y
  _atom_site_fract_z
  _atom_site_occupancy
  La  La1       1.0  0.20055837435962331  0.6413484338136044  0.6171744620370206  1.0000
  La  La2       1.0  0.7994424263667668  0.3586523667523238  0.38282450498179105  1.0000
  Fe  Fe1       1.0  0.1497077926578854  0.2373316390382385  0.7492498295287504  1.0000
  Fe  Fe2       1.0  0.8502941164245287  0.762671110799495  0.25075104050112174  1.0000
  Fe  Fe3       1.0  0.7731057565406942  0.6560761569171873  0.7515919120665657  1.0000
  Fe  Fe4       1.0  0.22689539737260842  0.3439236690128453  0.2484078172025477  1.0000
  H   H1        1.0  0.4805264842661998  0.6748164560261571  0.8829231149944621  1.0000
  H   H2        1.0  0.5194725017303341  0.3251843445397711  0.11707752945574873  1.0000
  H   H3        1.0  0.9248429471046082  0.0231251860286292  0.5745153816177011  1.0000
  H   H4        1.0  0.07515931516471855  0.9768765891731945  0.4254847921073123  1.0000
  H   H5        1.0  0.156164064085381  0.010786295518983  0.6872176858897632  1.0000
  H   H6        1.0  0.8438378449970331  0.9892164543187504  0.3127824548625355  1.0000
  H   H7        1.0  0.3904099201353688  0.2469542192911405  0.7347073861189273  1.0000
  H   H8        1.0  0.6095919889470451  0.7530485305465859  0.2652920253557838  1.0000
  H   H9        1.0  0.30523080828719884  0.406709713770482  0.6511040200081697  1.0000
  H   H10       1.0  0.6947705466171997  0.5932920614313488  0.3488951692385954  1.0000
  H   H11       1.0  0.9824309620571443  0.3396294232319974  0.763108226706436  1.0000
  H   H12       1.0  0.017567822948287008  0.6603694280621326  0.23689149921096236  1.0000
  H   H13       1.0  0.913934461213721  0.1007344682081737  0.7989032161186531  1.0000
  H   H14       1.0  0.08606669269957475  0.8992653577218519  0.2010965131504534  1.0000
  H   H15       1.0  0.15994740893311393  0.11494271037639692  0.9168327520091425  1.0000
  H   H16       1.0  0.8400545001493002  0.8850600394613366  0.08316811802072982  1.0000
  H   H17       1.0  0.3782562047295954  0.3591835433185011  0.9540990131983733  1.0000
  H   H18       1.0  0.6217435364360498  0.6408201811551351  0.04590350129016948  1.0000
  H   H19       1.0  0.5745040726175787  0.6366467902260382  0.5585374155753088  1.0000
  H   H20       1.0  0.4254941582098298  0.3633510864321821  0.4414628173917167  1.0000
  H   H21       1.0  0.8484719999585479  0.7390069511174744  0.584426051395063  1.0000
  H   H22       1.0  0.15152587768195505  0.2609919001766485  0.4155726900440869  1.0000
  H   H23       1.0  0.019863304257547947  0.8944759969031821  0.787124793255181  1.0000
  H   H24       1.0  0.9801369422908195  0.1055238290268505  0.21287395153568417  1.0000
  H   H25       1.0  0.8519112582684657  0.8874381510603513  0.8885507241968257  1.0000
  H   H26       1.0  0.148088988279909  0.11256167486967429  0.11144874987161303  1.0000
  H   H27       1.0  0.014112310863758606  0.6459526138110476  0.8721362434765468  1.0000
  H   H28       1.0  0.9858877346935131  0.3540452628471797  0.12786304133665993  1.0000
  H   H29       1.0  0.8359694359541123  0.6324051747838624  0.9635069011502608  1.0000
  H   H30       1.0  0.16403025641624683  0.3675936765102676  0.03649235069022442  1.0000
  H   H31       1.0  0.5667193255641791  0.4808093320696756  0.8130784683614678  1.0000
  H   H32       1.0  0.43328092098418847  0.5191904938603571  0.18692173498455136  1.0000
  H   H33       1.0  0.5764477842417223  0.3977177229456785  0.6272833066198943  1.0000
  H   H34       1.0  0.42355190812863  0.6022811283484515  0.3727152159430177  1.0000
  H   H35       1.0  0.44522275261302013  0.7671407910425643  0.5023216446311167  1.0000
  H   H36       1.0  0.5547784013002756  0.23285903488746842  0.4976802724707312  1.0000
  H   H37       1.0  0.6663514495261256  0.9624831661837376  0.5084740587976528  1.0000
  H   H38       1.0  0.3336482428442268  0.0375156851103853  0.4915259223204132  1.0000
  H   H39       1.0  0.7753815919314064  0.1726070434730431  0.6429339854488847  1.0000
  H   H40       1.0  0.22461683988710496  0.8273927824569897  0.35706570749579214  1.0000
  H   H41       1.0  0.47825573295731527  0.1814011832098927  0.9928711886648715  1.0000
  H   H42       1.0  0.521743052048116  0.8185976680842302  0.007129266530100201  1.0000
  H   H43       1.0  0.26544912974431867  0.97424507223986  0.9762650279748117  1.0000
  H   H44       1.0  0.7345491010830971  0.0257528044183672  0.023734475714640338  1.0000
  H   H45       1.0  0.16879309886131466  0.7742069013265294  0.828233091657289  1.0000
  H   H46       1.0  0.8312047787791883  0.2257919499676007  0.17176637905944156  1.0000
  H   H47       1.0  0.7753083431437844  0.2969783815579987  0.8008786022919241  1.0000
  H   H48       1.0  0.22469281076951123  0.703021444372034  0.1991240440874975  1.0000
  H   H49       1.0  0.6653617090499182  0.2999188580720258  0.9264618719581252  1.0000
  H   H50       1.0  0.3346388906853619  0.7000799932221042  0.07354055219335007  1.0000
  C   C1        1.0  0.9929303764047077  0.2805937774223111  0.5364030285440863  1.0000
  C   C2        1.0  0.0070704243216753076  0.7194070231436172  0.4635959384747324  1.0000
  C   C3        1.0  0.08362508269521382  0.23056669124775908  0.5911459413927886  1.0000
  C   C4        1.0  0.9163771795741128  0.7694350839540718  0.40885423233222445  1.0000
  C   C5        1.0  0.0350450932420401  0.1011058044865436  0.6040084150659197  1.0000
  C   C6        1.0  0.9649562616623585  0.8988959707152873  0.39599223273599904  1.0000
  C   C7        1.0  0.15715241581572312  0.0951751450275253  0.6639706705063517  1.0000
  C   C8        1.0  0.8428489390886825  0.9048266301743055  0.33602924801799366  1.0000
  C   C9        1.0  0.2814068983608635  0.22020338770991538  0.6883457846980081  1.0000
  C   C10       1.0  0.7185950107215575  0.779799362127818  0.3116543560542837  1.0000
  C   C11       1.0  0.23695611773659664  0.3044723570026022  0.6444446482003486  1.0000
  C   C12       1.0  0.7630446829897863  0.695528443563326  0.3555550480960435  1.0000
  C   C13       1.0  0.2857376847115418  0.5280275175768665  0.8520916158922915  1.0000
  C   C14       1.0  0.7142609480980796  0.47197425762496437  0.14790753703004367  1.0000
  C   C15       1.0  0.2065473294917197  0.3953902924135235  0.8605194836872841  1.0000
  C   C16       1.0  0.7934522106828297  0.6046114827883073  0.13948211226844617  1.0000
  C   C17       1.0  0.05423245427492421  0.3109458886586154  0.8093626166033943  1.0000
  C   C18       1.0  0.9457683464514588  0.6890549119073199  0.1906378089705711  1.0000
  C   C19       1.0  0.01960111253725929  0.186876687703041  0.8287979709566713  1.0000
  C   C20       1.0  0.9804002423671393  0.8131250874987898  0.17120194756766702  1.0000
  C   C21       1.0  0.14999559347975833  0.1939057618227551  0.8907373290362417  1.0000
  C   C22       1.0  0.850003946694784  0.8060960133790758  0.10926353764191533  1.0000
  C   C23       1.0  0.2658575962431158  0.3220070315017409  0.9102031326643215  1.0000
  C   C24       1.0  0.7341417429403236  0.6779927944282846  0.08979681548103004  1.0000
  C   C25       1.0  0.5464819801401859  0.7144032424266697  0.7556106479235681  1.0000
  C   C26       1.0  0.4535179132212761  0.2855975581392585  0.24438952244972972  1.0000
  C   C27       1.0  0.6707347872476461  0.7549890306259499  0.729711766109965  1.0000
  C   C28       1.0  0.32926490512270595  0.2450098206681801  0.27028821500810113  1.0000
  C   C29       1.0  0.6693933641060711  0.7059307325372259  0.6297980264978307  1.0000
  C   C30       1.0  0.3306039593564165  0.2940671441210014  0.37020122199094635  1.0000
  C   C31       1.0  0.8135761076659733  0.7603115172826023  0.6437608781567121  1.0000
  C   C32       1.0  0.1864232315174661  0.2396883086474304  0.35623834071105887  1.0000
  C   C33       1.0  0.9045549158934278  0.8420542303192845  0.7518391417148181  1.0000
  C   C34       1.0  0.0954438691120032  0.1579446209748383  0.24815912564742607  1.0000
  C   C35       1.0  0.8171525096091089  0.839088413271824  0.8053391618985303  1.0000
  C   C36       1.0  0.1828468295743306  0.1609114126582014  0.19466078624682132  1.0000
  C   C37       1.0  0.8719657129494679  0.5088037990608782  0.6419911862192721  1.0000
  C   C38       1.0  0.12803453359889974  0.4911960268691474  0.3580075585715933  1.0000
  C   C39       1.0  0.8141297528400173  0.5147870888585686  0.7225307776796157  1.0000
  C   C40       1.0  0.18587049370835726  0.485212737071457  0.27746723783366894  1.0000
  C   C41       1.0  0.8988670605619263  0.5916264086761345  0.8332709620864878  1.0000
  C   C42       1.0  0.10113263180842581  0.4083724426179884  0.16672901903157822  1.0000
  C   C43       1.0  0.8047959522418894  0.5827952327750339  0.8816168193257854  1.0000
  C   C44       1.0  0.19520192539860662  0.41720361851909615  0.11838192211336461  1.0000
  C   C45       1.0  0.6616983140241431  0.5013273670625011  0.8016087443582407  1.0000
  C   C46       1.0  0.33829936262525717  0.4986695349598235  0.19838834927052323  1.0000
  C   C47       1.0  0.6667432606716589  0.4584102497874624  0.7036285813320688  1.0000
  C   C48       1.0  0.33325789324163685  0.5415895761425702  0.29637114793704467  1.0000
  C   C49       1.0  0.49966821114136195  0.8603442476418833  0.5623722514780881  1.0000
  C   C50       1.0  0.5003334969499492  0.1396565529240448  0.43762915857413287  1.0000
  C   C51       1.0  0.6227119316568875  0.9691906104560459  0.5661840833073839  1.0000
  C   C52       1.0  0.3772877607134717  0.030808240838076997  0.43381735636583596  1.0000
  C   C53       1.0  0.6835263554403498  0.0855808292157505  0.6413898265071369  1.0000
  C   C54       1.0  0.31647444528603336  0.9144199713501777  0.35861059906683584  1.0000
  C   C55       1.0  0.6239755174254001  0.0918945205839634  0.7147872269928686  1.0000
  C   C56       1.0  0.3760221592240002  0.9081023814383613  0.2852127837462035  1.0000
  C   C57       1.0  0.5004128216014863  0.9759760256004526  0.7055281682367324  1.0000
  C   C58       1.0  0.49958722395578564  0.0240218510577677  0.2944733044092161  1.0000
  C   C59       1.0  0.4369662014851913  0.9776036675555204  0.7796439263423522  1.0000
  C   C60       1.0  0.5630313229683993  0.0223961583745051  0.22035551140165685  1.0000
  C   C61       1.0  0.4980918199916716  0.0954587640747846  0.8593331119756799  1.0000
  C   C62       1.0  0.5019084265566961  0.9045410618552481  0.1406678206479129  1.0000
  C   C63       1.0  0.43351731410916733  0.0932229493173438  0.9304853057525123  1.0000
  C   C64       1.0  0.5664818240831765  0.9067749273408765  0.06951591169276133  1.0000
  C   C65       1.0  0.31558430987892905  0.9786855134058924  0.9210782786045757  1.0000
  C   C66       1.0  0.684413567761574  0.0213133378882375  0.07892265066730896  1.0000
  C   C67       1.0  0.26252023935348495  0.8668343481082204  0.8399498616053407  1.0000
  C   C68       1.0  0.7374781924650335  0.1331654778218123  0.16004983133933595  1.0000
  C   C69       1.0  0.682144835210842  0.2085896263107827  0.7960193182426352  1.0000
  C   C70       1.0  0.3178559655155482  0.7914111742551455  0.2039825658864913  1.0000
  C   C71       1.0  0.621479517459136  0.2104394852513281  0.8654862165328724  1.0000
  C   C72       1.0  0.3785205280981288  0.7895583914068992  0.13451525611307602  1.0000
  N   N1        1.0  0.43954673720332255  0.8631697171195684  0.629123924566109  1.0000
  N   N2        1.0  0.5604524009890214  0.1368281595386591  0.3708765636015913  1.0000
  N   N3        1.0  0.3208501345075945  0.865795386237501  0.7714142699716079  1.0000
  N   N4        1.0  0.6791495578627575  0.1342034650566291  0.22858644042403858  1.0000
  O   O1        1.0  0.048813398697525726  0.4046181451264276  0.5529149925245492  1.0000
  O   O2        1.0  0.9511883093937928  0.5953826554395008  0.44708350041735684  1.0000
  O   O3        1.0  0.8637932956924959  0.2009767452862263  0.47262127979519175  1.0000
  O   O4        1.0  0.13620750503388723  0.7990240552797018  0.5273776872236269  1.0000
  O   O5        1.0  0.22484694996477123  0.5756550501625739  0.7928659251476731  1.0000
  O   O6        1.0  0.7751538507616119  0.42434575040335426  0.207133771148719  1.0000
  O   O7        1.0  0.4233522152429502  0.5912365543156426  0.9113645918409433  1.0000
  O   O8        1.0  0.5766467707535838  0.4087642462502856  0.08863532333168679  1.0000
  O   O9        1.0  0.4228742317002628  0.6296060204755065  0.6840320465729235  1.0000
  O   O10       1.0  0.577126014848112  0.3703938054545191  0.31596961532824963  1.0000
  O   O11       1.0  0.5715963130615123  0.7671173997809362  0.8512192021026835  1.0000
  O   O12       1.0  0.4284044876648779  0.23288340078499908  0.14878195274886252  1.0000
  O   O13       1.0  0.9994309703888861  0.5975638905864642  0.6651345931434066  1.0000
  O   O14       1.0  0.0005685697856633765  0.40243788461536667  0.3348640857020158  1.0000
  O   O15       1.0  0.7894968939719862  0.4149902203873879  0.5556016164353113  1.0000
  O   O16       1.0  0.21050118465961995  0.5850105801785475  0.4443958557039168  1.0000
