data_image0
_chemical_formula_structural       Cu2H28C32N4O8
_chemical_formula_sum              "Cu2 H28 C32 N4 O8"
_cell_length_a       10.127761587219508
_cell_length_b       10.82045359333512
_cell_length_c       11.048006280894034
_cell_angle_alpha    86.20554753231448
_cell_angle_beta     81.39365935885652
_cell_angle_gamma    62.37398486985308

_space_group_name_H-M_alt    "P 1"
_space_group_IT_number       1

loop_
  _space_group_symop_operation_xyz
  'x, y, z'

loop_
  _atom_site_type_symbol
  _atom_site_label
  _atom_site_symmetry_multiplicity
  _atom_site_fract_x
  _atom_site_fract_y
  _atom_site_fract_z
  _atom_site_occupancy
  Cu  Cu1       1.0  0.44460445912240226  0.419578798438586  0.12317428894818513  1.0000
  Cu  Cu2       1.0  0.5553943614839482  0.5804213274141861  0.8768263391354979  1.0000
  H   H1        1.0  0.7284128210922914  0.3788048647699399  0.1878102962674078  1.0000
  H   H2        1.0  0.27158651226692154  0.6211942108962774  0.8121894306218634  1.0000
  H   H3        1.0  0.8186452166141505  0.47332109371578923  0.3410516029609737  1.0000
  H   H4        1.0  0.181353084234928  0.5266800681062804  0.6589481180049575  1.0000
  H   H5        1.0  0.6273410286097982  0.6592978694790123  0.48732625335460256  1.0000
  H   H6        1.0  0.3726562695651267  0.3407032863786483  0.5126727068106973  1.0000
  H   H7        1.0  0.35287616791013204  0.7496094859536131  0.4685055227466606  1.0000
  H   H8        1.0  0.6471226825321991  0.2503885477789042  0.531494350459738  1.0000
  H   H9        1.0  0.2823893664669939  0.6430221778049516  0.3083556716689699  1.0000
  H   H10       1.0  0.7176104831472756  0.356975854783336  0.6916440581819713  1.0000
  H   H11       1.0  0.5874575848758923  0.19757742059492503  0.9382150466016623  1.0000
  H   H12       1.0  0.4125437503294194  0.8024216598914723  0.06178529773277566  1.0000
  H   H13       1.0  0.5039347552978911  0.07522220781881833  0.8046374407418354  1.0000
  H   H14       1.0  0.4960625533836592  0.924778969364745  0.195364231891709  1.0000
  H   H15       1.0  0.2267988188772705  0.14702815931968163  0.8212132732935588  1.0000
  H   H16       1.0  0.7731994556380427  0.8529751017312678  0.1787881067057313  1.0000
  H   H17       1.0  0.04846842875295464  0.3317035046708555  0.9702140133602768  1.0000
  H   H18       1.0  0.9515308484365121  0.6682997623445034  0.029788127439637394  1.0000
  H   H19       1.0  0.15238204349521572  0.4450229992743999  0.0983970033072552  1.0000
  H   H20       1.0  0.8476207808033325  0.5549771362187316  0.9016048596667686  1.0000
  H   H21       1.0  0.6650018886996918  0.024500111735484605  0.3397564795742696  1.0000
  H   H22       1.0  0.33499844032925796  0.9754989556778713  0.6602421998034629  1.0000
  H   H23       1.0  0.3467962939145437  0.1309418991341929  0.48293780870248065  1.0000
  H   H24       1.0  0.6532040421188157  0.8690571824964266  0.5170626789874148  1.0000
  H   H25       1.0  0.232152463284187  0.8253394169097704  0.9184439327750553  1.0000
  H   H26       1.0  0.7678483188256707  0.17466278455753334  0.08155535516283412  1.0000
  H   H27       1.0  0.9539185700599757  0.9299975157347761  0.11595851081776228  1.0000
  H   H28       1.0  0.0460842437319613  0.0700025984324455  0.8840406396880169  1.0000
  C   C1        1.0  0.6501519694423833  0.46124172494436533  0.2518814333273127  1.0000
  C   C2        1.0  0.34984684415955764  0.538758386691143  0.748117386444207  1.0000
  C   C3        1.0  0.698695403432481  0.5142158260881757  0.3372455752263405  1.0000
  C   C4        1.0  0.3013039264245236  0.4857832424694096  0.662753247506849  1.0000
  C   C5        1.0  0.5918891726569768  0.6189274207168084  0.41737637260633426  1.0000
  C   C6        1.0  0.4081091545258745  0.3810716418763747  0.5826216893262312  1.0000
  C   C7        1.0  0.4399128751528706  0.6678788148606147  0.4077722831175095  1.0000
  C   C8        1.0  0.560085455532189  0.3321202548412003  0.5922266829711305  1.0000
  C   C9        1.0  0.39924761920061497  0.6100859168692239  0.31994143817789933  1.0000
  C   C10       1.0  0.6007522269114532  0.38991210861043873  0.6800573875169604  1.0000
  C   C11       1.0  0.46935132969254323  0.22388403204140417  0.9415169493480063  1.0000
  C   C12       1.0  0.530648493587961  0.776116099775777  0.05848443953630069  1.0000
  C   C13       1.0  0.4219581748453578  0.15648225359858975  0.8682762311930148  1.0000
  C   C14       1.0  0.5780411321800826  0.8435189212965144  0.13172515472962226  1.0000
  C   C15       1.0  0.2687477014641857  0.19598459917440894  0.8779481065112335  1.0000
  C   C16       1.0  0.7312495738791822  0.8040186630207772  0.1220534168435137  1.0000
  C   C17       1.0  0.16836051532753518  0.29994123635320596  0.9614403878897234  1.0000
  C   C18       1.0  0.8316407935440039  0.7000599433620708  0.03856161547808768  1.0000
  C   C19       1.0  0.22400335912429628  0.3629255554324048  0.03144493579577559  1.0000
  C   C20       1.0  0.7759994616720504  0.6370745729520806  0.9685560230221668  1.0000
  C   C21       1.0  0.4713128787007649  0.22022150537353016  0.2923323690508397  1.0000
  C   C22       1.0  0.5286879297428584  0.7797785968648798  0.7076652598536909  1.0000
  C   C23       1.0  0.54475932799712  0.0915326802390553  0.3652736713958191  1.0000
  C   C24       1.0  0.4552364617552128  0.9084695340580282  0.6347272374754312  1.0000
  C   C25       1.0  0.46705008068296655  0.06001230199287732  0.4619269312357446  1.0000
  C   C26       1.0  0.5329507382672813  0.9399878215714422  0.5380734101370236  1.0000
  C   C27       1.0  0.20885220591296863  0.6902354575325946  0.0709526978752848  1.0000
  C   C28       1.0  0.791151633384679  0.30976255626151084  0.9290446502416783  1.0000
  C   C29       1.0  0.15721373859084048  0.821829962922138  0.9992800327874392  1.0000
  C   C30       1.0  0.842786077685254  0.17817015467777253  0.0007195477847047681  1.0000
  C   C31       1.0  0.025385848336043126  0.9354721893966416  0.03333599621907268  1.0000
  C   C32       1.0  0.9746179944638128  0.0645258315060957  0.9666622560539723  1.0000
  N   N1        1.0  0.5032990167810567  0.5083497993615183  0.24372557448135265  1.0000
  N   N2        1.0  0.49670082232659496  0.49164821190087343  0.756271442901344  1.0000
  N   N3        1.0  0.37183339912910895  0.32590900696790487  0.020183011813330185  1.0000
  N   N4        1.0  0.6281694251694461  0.6740911285252196  0.9798188511606937  1.0000
  O   O1        1.0  0.5607207465432323  0.23526013496832832  0.2011636852189795  1.0000
  O   O2        1.0  0.4392800689048072  0.7647399814873526  0.7988357519977072  1.0000
  O   O3        1.0  0.3360411071356495  0.30601498721429726  0.3203189895209205  1.0000
  O   O4        1.0  0.6639587091404451  0.6939851303856132  0.6796805910512232  1.0000
  O   O5        1.0  0.3478555873551554  0.5990125063441456  0.03379782617494702  1.0000
  O   O6        1.0  0.65214625710081  0.400985516847051  0.9662007128090053  1.0000
  O   O7        1.0  0.12571708284681898  0.6714123548026836  0.1578725362201325  1.0000
  O   O8        1.0  0.8742822470101856  0.3285867137548948  0.8421262865130572  1.0000
