data_image0
_chemical_formula_structural       Re4Ag4H24C20N8O16
_chemical_formula_sum              "Re4 Ag4 H24 C20 N8 O16"
_cell_length_a       7.144971485409128
_cell_length_b       8.010178463966477
_cell_length_c       15.622569637334742
_cell_angle_alpha    89.99926387272681
_cell_angle_beta     90.00020946520516
_cell_angle_gamma    93.38141960834926

_space_group_name_H-M_alt    "P 1"
_space_group_IT_number       1

loop_
  _space_group_symop_operation_xyz
  'x, y, z'

loop_
  _atom_site_type_symbol
  _atom_site_label
  _atom_site_symmetry_multiplicity
  _atom_site_fract_x
  _atom_site_fract_y
  _atom_site_fract_z
  _atom_site_occupancy
  Re  Re1       1.0  0.4499498327767526  0.8799944139218139  0.3713473768308972  1.0000
  Re  Re2       1.0  0.550064610798195  0.6200197573623851  0.8713384122261162  1.0000
  Re  Re3       1.0  0.5500419567258348  0.12000590737305566  0.6286552823268323  1.0000
  Re  Re4       1.0  0.4499468532457414  0.3799819442610755  0.12865720584819235  1.0000
  Ag  Ag1       1.0  0.443632322706307  0.6279156959500437  0.6015958609619363  1.0000
  Ag  Ag2       1.0  0.5563734154000671  0.8720813000200848  0.1015980138287986  1.0000
  Ag  Ag3       1.0  0.55636086694998  0.3720846346317898  0.398404877898237  1.0000
  Ag  Ag4       1.0  0.4436341374864909  0.12792537596084227  0.8984033651218297  1.0000
  H   H1        1.0  0.13673697605831586  0.7881563940906486  0.5017350619370617  1.0000
  H   H2        1.0  0.8632691599044762  0.7118368099067991  0.0017413481666395001  1.0000
  H   H3        1.0  0.8632587246016501  0.2118389528467546  0.4982618363443407  1.0000
  H   H4        1.0  0.13673906989908596  0.2881573697287364  0.9982651516224976  1.0000
  H   H5        1.0  0.7853439043602819  0.7985404219485444  0.5016395517117829  1.0000
  H   H6        1.0  0.2146664314824988  0.7014528121334179  0.0016499493228608  1.0000
  H   H7        1.0  0.2146505407896271  0.20145741684250848  0.498356706460747  1.0000
  H   H8        1.0  0.78534334313278  0.2985438778746994  0.998356550459235  1.0000
  H   H9        1.0  0.7506937370882979  0.4553728503515229  0.7012371467698415  1.0000
  H   H10       1.0  0.2493085739688397  0.04462080601411599  0.2012454416237404  1.0000
  H   H11       1.0  0.24930210822352447  0.5446249976950596  0.2987597515033898  1.0000
  H   H12       1.0  0.7506990512498107  0.9553871204978247  0.798757857621496  1.0000
  H   H13       1.0  0.27554119255091797  0.4065164144068163  0.7064876505366016  1.0000
  H   H14       1.0  0.7244588581248905  0.09348584852619267  0.20648680976622563  1.0000
  H   H15       1.0  0.7244476519636649  0.5934813873149237  0.293509887830524  1.0000
  H   H16       1.0  0.27554302178809564  0.9065195398779763  0.7935120087857044  1.0000
  H   H17       1.0  0.070237211217524  0.2688636557136234  0.700838417606974  1.0000
  H   H18       1.0  0.9297667867015633  0.2311350220889067  0.2008331646248322  1.0000
  H   H19       1.0  0.9297542889649222  0.7311316634257281  0.2991591207705895  1.0000
  H   H20       1.0  0.0702350932073159  0.7688703663309723  0.7991643737279688  1.0000
  H   H21       1.0  0.0892236651511027  0.42587908391503493  0.780923329454879  1.0000
  H   H22       1.0  0.9107755352587718  0.07412259289628047  0.2809235669490562  1.0000
  H   H23       1.0  0.9107678350313363  0.5741162352243164  0.21907420892269167  1.0000
  H   H24       1.0  0.08922390596825379  0.9258890297383356  0.7190765317793009  1.0000
  C   C1        1.0  0.032376744533934194  0.5153112527005914  0.6549187465292334  1.0000
  C   C2        1.0  0.9676265353615677  0.9846844156639915  0.154920836281967  1.0000
  C   C3        1.0  0.9676120276567771  0.48468529845870006  0.34507943194154933  1.0000
  C   C4        1.0  0.0323794003873488  0.015318499389749697  0.8450805426797885  1.0000
  C   C5        1.0  0.0502238374937036  0.7117363692190749  0.5457395280095341  1.0000
  C   C6        1.0  0.9497840532837856  0.7882570142653974  0.045747371531007316  1.0000
  C   C7        1.0  0.9497717908382769  0.28825772717159026  0.4542567301763967  1.0000
  C   C8        1.0  0.0502256490055615  0.2117384251881304  0.954259128255174  1.0000
  C   C9        1.0  0.8566651675014755  0.7193406349937062  0.546051901621162  1.0000
  C   C10       1.0  0.14334103582064017  0.780647729324613  0.046061015307380215  1.0000
  C   C11       1.0  0.14332766050873863  0.2806534428780196  0.4539437164629306  1.0000
  C   C12       1.0  0.8566673386368322  0.21934895141224325  0.9539461245731502  1.0000
  C   C13       1.0  0.83746514761296  0.5277643591599102  0.6555633146103049  1.0000
  C   C14       1.0  0.1625350468130904  0.9722262725643132  0.1555711896312957  1.0000
  C   C15       1.0  0.1625250970573759  0.47223345184094245  0.34443294355882875  1.0000
  C   C16       1.0  0.8374723614298316  0.027777902275993  0.8444327497257618  1.0000
  C   C17       1.0  0.1228332520290962  0.3981330645399765  0.7139587935018457  1.0000
  C   C18       1.0  0.8771667019268107  0.10186651387233069  0.21395751091252893  1.0000
  C   C19       1.0  0.8771611208010485  0.6018635236729039  0.2860393849734635  1.0000
  C   C20       1.0  0.12283363317651917  0.8981363641513908  0.7860419477460071  1.0000
  N   N1        1.0  0.13762969564090352  0.6098864990803604  0.5993482768227452  1.0000
  N   N2        1.0  0.8623713936135716  0.8901030209376798  0.09935145895600782  1.0000
  N   N3        1.0  0.8623618045435961  0.39010882005113245  0.4006499016543899  1.0000
  N   N4        1.0  0.13763558067172  0.10989365058292576  0.9006518403260062  1.0000
  N   N5        1.0  0.7502298292329642  0.6266339339999829  0.6013131960595288  1.0000
  N   N6        1.0  0.2497715619514338  0.8733605399222737  0.1013225119168908  1.0000
  N   N7        1.0  0.2497603431093935  0.37336262645413126  0.398682422014133  1.0000
  N   N8        1.0  0.7502371741295235  0.12664239361112808  0.898682707644511  1.0000
  O   O1        1.0  0.47994484155777434  0.7054276610560349  0.43732624311670787  1.0000
  O   O2        1.0  0.5200648123047175  0.7945673548018631  0.937324392238537  1.0000
  O   O3        1.0  0.520039657831539  0.2945676117427566  0.5626732155538863  1.0000
  O   O4        1.0  0.4799476179599367  0.20542685269457908  0.06267634665793051  1.0000
  O   O5        1.0  0.21634364351270818  0.9366861091134165  0.37711301151923493  1.0000
  O   O6        1.0  0.7836744329669614  0.5633416952185255  0.8771067315240729  1.0000
  O   O7        1.0  0.7836495461456323  0.06331422146056548  0.6228883674405026  1.0000
  O   O8        1.0  0.21633599254471392  0.43666624992236064  0.122888246429099  1.0000
  O   O9        1.0  0.6057081536501343  0.04580491450171559  0.4041259305898066  1.0000
  O   O10       1.0  0.3943189464927244  0.45420266767818146  0.9041170510611849  1.0000
  O   O11       1.0  0.3942847467311807  0.9541904137517461  0.5958837696805972  1.0000
  O   O12       1.0  0.6057007015346371  0.5457953378540309  0.0958792071317447  1.0000
  O   O13       1.0  0.5004993743458073  0.8231191656009639  0.2656005992219193  1.0000
  O   O14       1.0  0.4995012570837432  0.676912515822302  0.765589253003981  1.0000
  O   O15       1.0  0.49949873905549674  0.17689369829342635  0.7344020598994662  1.0000
  O   O16       1.0  0.5004995119648896  0.3230978655682647  0.23440700513221202  1.0000
