data_image0
_chemical_formula_structural       Sm4Zn6H72C48O72
_chemical_formula_sum              "Sm4 Zn6 H72 C48 O72"
_cell_length_a       14.82494050381637
_cell_length_b       14.824894355731258
_cell_length_c       15.86830166102067
_cell_angle_alpha    89.99982284004469
_cell_angle_beta     90.000137927521
_cell_angle_gamma    120.00008878046795

_space_group_name_H-M_alt    "P 1"
_space_group_IT_number       1

loop_
  _space_group_symop_operation_xyz
  'x, y, z'

loop_
  _atom_site_type_symbol
  _atom_site_label
  _atom_site_symmetry_multiplicity
  _atom_site_fract_x
  _atom_site_fract_y
  _atom_site_fract_z
  _atom_site_occupancy
  Sm  Sm1       1.0  0.6666654102548079  0.33333452902220256  0.749999243514921  1.0000
  Sm  Sm2       1.0  0.33333531780586867  0.6666653474379416  0.750000903288182  1.0000
  Sm  Sm3       1.0  0.33333327093930637  0.6666650551360223  0.2500022159976609  1.0000
  Sm  Sm4       1.0  0.6666648168166277  0.3333341323697995  0.2499992958518718  1.0000
  Zn  Zn1       1.0  0.5000014071204076  0.5000001081639311  4.670016266999999e-07  1.0000
  Zn  Zn2       1.0  1.426352142348573e-06  0.50000151869439  0.9999991679948013  1.0000
  Zn  Zn3       1.0  0.5000001353116733  0.9999989286918521  0.999999634997309  1.0000
  Zn  Zn4       1.0  0.9999989122636707  0.4999987472134821  0.5000003486201337  1.0000
  Zn  Zn5       1.0  0.499999483144734  0.5000003240737882  0.5000004146620967  1.0000
  Zn  Zn6       1.0  0.4999992436677871  0.9999995986867347  0.499999251431909  1.0000
  H   H1        1.0  0.5422089191281999  0.3628139420200327  0.05052029826509851  1.0000
  H   H2        1.0  0.7199261649198122  0.6402821002345861  0.7672275439436762  1.0000
  H   H3        1.0  0.8076666067428915  0.6402842629999411  0.8450967196911849  1.0000
  H   H4        1.0  0.8206069722927721  0.4577912543717061  0.05051921384390571  1.0000
  H   H5        1.0  0.9203531789726113  0.28007618288199837  0.76722640349891  1.0000
  H   H6        1.0  0.8326165596658582  0.1923376717449087  0.8450973994523423  1.0000
  H   H7        1.0  0.6371830720121211  0.17939041920317322  0.0505200420550977  1.0000
  H   H8        1.0  0.35971769763223455  0.07964445607815661  0.7672254323141914  1.0000
  H   H9        1.0  0.3597141235290238  0.16737903922032157  0.8450962720018114  1.0000
  H   H10       1.0  0.45779076546748604  0.6371852841703287  0.050519173712722  1.0000
  H   H11       1.0  0.28007429929290584  0.35971666625109583  0.7672274557920887  1.0000
  H   H12       1.0  0.19233512184499807  0.35971312728479893  0.8450970637436727  1.0000
  H   H13       1.0  0.17939271230252987  0.5422079718194865  0.050519627946748406  1.0000
  H   H14       1.0  0.07964590820807171  0.7199266588177198  0.7672267056678878  1.0000
  H   H15       1.0  0.167382519208637  0.8076664155282886  0.8450957537826156  1.0000
  H   H16       1.0  0.3628160423912946  0.8206066790118387  0.0505181695508483  1.0000
  H   H17       1.0  0.6402823771336801  0.9203546998594733  0.7672257862975942  1.0000
  H   H18       1.0  0.6402854770891012  0.8326177808758217  0.8450968812443095  1.0000
  H   H19       1.0  0.1793915500704416  0.6371818063804683  0.44947963910267674  1.0000
  H   H20       1.0  0.07964613908389144  0.3597204810421958  0.732773637089011  1.0000
  H   H21       1.0  0.16738176308329136  0.35971812987731505  0.6549033989548292  1.0000
  H   H22       1.0  0.3628186555963071  0.5422090831087587  0.4494787238399028  1.0000
  H   H23       1.0  0.6402807783331141  0.7199239601120624  0.7327718551103928  1.0000
  H   H24       1.0  0.6402815448719751  0.8076624089214947  0.6549007601658161  1.0000
  H   H25       1.0  0.4577922849123583  0.8206065648198476  0.44948157695927193  1.0000
  H   H26       1.0  0.28007656311025614  0.9203554602619802  0.732769896762406  1.0000
  H   H27       1.0  0.19233219117145972  0.8326180681929148  0.6549021090098037  1.0000
  H   H28       1.0  0.8206101843685546  0.3628147970601391  0.4494801315052186  1.0000
  H   H29       1.0  0.9203557360624115  0.6402782730631955  0.7327716567856655  1.0000
  H   H30       1.0  0.8326197029750728  0.6402851923945576  0.6549031112170809  1.0000
  H   H31       1.0  0.6371863471950617  0.457792346475351  0.4494810467646603  1.0000
  H   H32       1.0  0.35971829430242525  0.2800735492647918  0.7327715482014483  1.0000
  H   H33       1.0  0.3597191702447661  0.19233626795615782  0.6549007085147025  1.0000
  H   H34       1.0  0.5422103048146597  0.1793932305846227  0.44947945401926864  1.0000
  H   H35       1.0  0.7199237542573798  0.07964485163267193  0.7327741367339231  1.0000
  H   H36       1.0  0.8076608673565531  0.1673815198891333  0.6549018804094047  1.0000
  H   H37       1.0  0.45779007511053044  0.637181281835325  0.9494786405055322  1.0000
  H   H38       1.0  0.2800749293382623  0.35971911810411683  0.23277202500776895  1.0000
  H   H39       1.0  0.19233622603930914  0.35971791497678407  0.15490158888649572  1.0000
  H   H40       1.0  0.1793924877891159  0.542207550895249  0.9494803551092021  1.0000
  H   H41       1.0  0.07964550221916505  0.7199234012812782  0.2327712748907018  1.0000
  H   H42       1.0  0.1673825873710229  0.807665493825759  0.1549040600555571  1.0000
  H   H43       1.0  0.3628171669587134  0.8206076071699898  0.9494795269000278  1.0000
  H   H44       1.0  0.640280023924355  0.9203533895532987  0.23277350645119554  1.0000
  H   H45       1.0  0.6402823532966336  0.8326160038908056  0.15490392714056614  1.0000
  H   H46       1.0  0.5422088753614249  0.36281603852055616  0.9494803952369255  1.0000
  H   H47       1.0  0.7199270036633938  0.6402816452151046  0.23277337353814434  1.0000
  H   H48       1.0  0.8076645469347241  0.640282771110492  0.15490313540106376  1.0000
  H   H49       1.0  0.8206066434306367  0.457792286882878  0.9494799410041284  1.0000
  H   H50       1.0  0.9203540177169743  0.28007572786083307  0.2327734934677039  1.0000
  H   H51       1.0  0.8326175874622593  0.19233848857671643  0.15490255478802345  1.0000
  H   H52       1.0  0.6371813940695504  0.1793901026311034  0.9494807692157536  1.0000
  H   H53       1.0  0.35972037925022704  0.0796435072579271  0.23277252228577794  1.0000
  H   H54       1.0  0.3597155407706723  0.16737946660354913  0.154902687712827  1.0000
  H   H55       1.0  0.8206086889000022  0.3628162199935403  0.5505192996652826  1.0000
  H   H56       1.0  0.9203554489677688  0.640278894413363  0.26722656205282663  1.0000
  H   H57       1.0  0.8326207846047211  0.6402829841075359  0.3450974303727322  1.0000
  H   H58       1.0  0.637183996439653  0.4577905774423671  0.5505208451155641  1.0000
  H   H59       1.0  0.3597187860963372  0.2800733917220055  0.2672258232834608  1.0000
  H   H60       1.0  0.3597185897497397  0.19233707088792332  0.3450981785999119  1.0000
  H   H61       1.0  0.5422074602652742  0.1793933044356279  0.5505179919926135  1.0000
  H   H62       1.0  0.7199255951313361  0.07964604317397306  0.2672277816283355  1.0000
  H   H63       1.0  0.8076657111325433  0.16738229486163198  0.3450974599392822  1.0000
  H   H64       1.0  0.17939324655634456  0.6371840845971876  0.5505194374522591  1.0000
  H   H65       1.0  0.07964567124066951  0.35971858497180165  0.2672260216109805  1.0000
  H   H66       1.0  0.1673800422029501  0.35971467686007236  0.345097087921964  1.0000
  H   H67       1.0  0.3628148514121251  0.5422074184271041  0.5505191523761823  1.0000
  H   H68       1.0  0.640280880684884  0.7199241920111279  0.26722991131437374  1.0000
  H   H69       1.0  0.6402864650470409  0.8076671547516415  0.3450976000643281  1.0000
  H   H70       1.0  0.4577908937925273  0.8206065343178324  0.5505207451215668  1.0000
  H   H71       1.0  0.2800725138708274  0.920353098349274  0.26722606240399227  1.0000
  H   H72       1.0  0.19233568586662372  0.83261749408301  0.3450970583529624  1.0000
  C   C1        1.0  0.6494022808895751  0.5185332656172719  0.8601619725406027  1.0000
  C   C2        1.0  0.74046880912406  0.5902820078331529  0.8044383012485241  1.0000
  C   C3        1.0  0.8691307774290138  0.35060290866159255  0.8601605741776838  1.0000
  C   C4        1.0  0.8498098821181229  0.2595336502687217  0.8044376453690634  1.0000
  C   C5        1.0  0.48146003150356625  0.13085817468861197  0.8601654979251877  1.0000
  C   C6        1.0  0.40971813402966023  0.15018586810970197  0.8044373078831841  1.0000
  C   C7        1.0  0.3505969973106461  0.48147329887054013  0.8601579081891657  1.0000
  C   C8        1.0  0.25953305006399324  0.40971800840684125  0.8044386514614885  1.0000
  C   C9        1.0  0.13086686659774213  0.6494012427485815  0.8601637178638912  1.0000
  C   C10       1.0  0.15018818697276984  0.7404688070073463  0.8044374167716343  1.0000
  C   C11       1.0  0.5185339062804246  0.8691321448666685  0.8601619450681428  1.0000
  C   C12       1.0  0.5902817015361779  0.8498121245088017  0.8044371240788382  1.0000
  C   C13       1.0  0.13087810066567593  0.48147752240151237  0.6398435980234609  1.0000
  C   C14       1.0  0.15018884223901097  0.40972090095605307  0.6955629825541081  1.0000
  C   C15       1.0  0.5185262705976255  0.6493994561398749  0.6398412703837411  1.0000
  C   C16       1.0  0.5902792242629858  0.740465860399688  0.6955611074191168  1.0000
  C   C17       1.0  0.3505959261283565  0.8691249571143304  0.6398357197866815  1.0000
  C   C18       1.0  0.2595314786899863  0.8498117592251617  0.695560575179485  1.0000
  C   C19       1.0  0.8691311562004813  0.5185328705914217  0.6398355544616052  1.0000
  C   C20       1.0  0.8498121037758892  0.5902801848049394  0.6955622489031301  1.0000
  C   C21       1.0  0.4814707401978141  0.35060024853513033  0.6398410330388631  1.0000
  C   C22       1.0  0.4097200875741791  0.25953281229292446  0.6955616032911325  1.0000
  C   C23       1.0  0.6493954311941863  0.1308628629570805  0.6398371308394035  1.0000
  C   C24       1.0  0.7404652113846028  0.15018818616031382  0.6955621355259538  1.0000
  C   C25       1.0  0.35059974505714564  0.48147511553958827  0.13984263789877366  1.0000
  C   C26       1.0  0.2595329596742316  0.40971988504717416  0.1955612677027005  1.0000
  C   C27       1.0  0.13087010813005415  0.649401216551297  0.1398364740206404  1.0000
  C   C28       1.0  0.15018936926670542  0.7404680618682137  0.19556255376674161  1.0000
  C   C29       1.0  0.5185318278912305  0.8691306931915718  0.13983785215677363  1.0000
  C   C30       1.0  0.5902803664170408  0.8498111986254386  0.19556352144569905  1.0000
  C   C31       1.0  0.6494011900898826  0.5185281281708285  0.1398429211330168  1.0000
  C   C32       1.0  0.7404678634482239  0.5902806925054166  0.1955628080549019  1.0000
  C   C33       1.0  0.8691315015517488  0.35060270171251756  0.1398402623906492  1.0000
  C   C34       1.0  0.8498124134924937  0.2595342542128235  0.19556278236373714  1.0000
  C   C35       1.0  0.48146537305327536  0.13086414297888632  0.1398357333269402  1.0000
  C   C36       1.0  0.4097196014193472  0.1501861869590826  0.19556244487706925  1.0000
  C   C37       1.0  0.8691356291149713  0.5185339947922498  0.3601647935475398  1.0000
  C   C38       1.0  0.8498123563685599  0.590278863945564  0.3044378467738937  1.0000
  C   C39       1.0  0.48147085281743085  0.3506016858084565  0.3601582985633272  1.0000
  C   C40       1.0  0.4097198463740454  0.25953333431500875  0.3044378313458225  1.0000
  C   C41       1.0  0.6494008637434803  0.1308657256905689  0.36016447936239626  1.0000
  C   C42       1.0  0.7404682664876461  0.15018811003031365  0.3044389937724006  1.0000
  C   C43       1.0  0.13087331075401934  0.4814717204654715  0.3601564522427836  1.0000
  C   C44       1.0  0.15018668176539052  0.40971794592123695  0.30443668986303873  1.0000
  C   C45       1.0  0.5185308199065232  0.6494045512084482  0.36016420759235507  1.0000
  C   C46       1.0  0.5902810066850535  0.7404684060432629  0.3044398562217978  1.0000
  C   C47       1.0  0.3506019009179298  0.8691353721212708  0.3601618079249747  1.0000
  C   C48       1.0  0.2595316269351003  0.8498118917986659  0.3044380636095029  1.0000
  O   O1        1.0  0.6159393460241916  0.42043624022683457  0.8552913609025128  1.0000
  O   O2        1.0  0.6161769109353588  0.5635902932099057  0.9071454734223608  1.0000
  O   O3        1.0  0.8044883503930507  0.38406026879807353  0.8552897359931393  1.0000
  O   O4        1.0  0.9474107858552544  0.3838310855077155  0.9071391765791932  1.0000
  O   O5        1.0  0.5795659266321638  0.1955054117226639  0.8552903866866404  1.0000
  O   O6        1.0  0.43641323343086924  0.052590661246448255  0.9071397120569458  1.0000
  O   O7        1.0  0.3840610460565088  0.5795597737627816  0.855290867806417  1.0000
  O   O8        1.0  0.383826737059252  0.4364064376375651  0.907152328332842  1.0000
  O   O9        1.0  0.1955046701907861  0.6159377203928713  0.8552887115816219  1.0000
  O   O10       1.0  0.052595685138229  0.6161817095373153  0.9071453912254128  1.0000
  O   O11       1.0  0.42043783814963825  0.8044939749750385  0.8552918420211955  1.0000
  O   O12       1.0  0.5635881542850998  0.9474123771636088  0.9071417048203045  1.0000
  O   O13       1.0  0.1955081208450195  0.5795657595485294  0.6447098335296105  1.0000
  O   O14       1.0  0.05258314025983427  0.4364139258934119  0.5928561902013316  1.0000
  O   O15       1.0  0.4204352887777391  0.6159376184663048  0.6447087740289846  1.0000
  O   O16       1.0  0.5635880344110404  0.6161702791655586  0.5928539845283468  1.0000
  O   O17       1.0  0.3840587676017221  0.804492620049679  0.6447103492636971  1.0000
  O   O18       1.0  0.3838187369412439  0.9474052831868321  0.5928482583650164  1.0000
  O   O19       1.0  0.8044911282728151  0.42043304888562016  0.6447088615599483  1.0000
  O   O20       1.0  0.9474055858033381  0.563584687432815  0.5928551242661086  1.0000
  O   O21       1.0  0.5795667628496944  0.38406243469890466  0.6447099210619243  1.0000
  O   O22       1.0  0.4364122147359242  0.38382895278036255  0.5928560695768681  1.0000
  O   O23       1.0  0.6159384299454089  0.1955095890535148  0.6447089760057594  1.0000
  O   O24       1.0  0.6161688487389368  0.0525890741853344  0.5928630561073263  1.0000
  O   O25       1.0  0.3840592308204123  0.5795647973684835  0.1447088382335124  1.0000
  O   O26       1.0  0.38383375918609625  0.43641349097877935  0.09285598609763922  1.0000
  O   O27       1.0  0.1955088773718998  0.6159394197123262  0.144711723517652  1.0000
  O   O28       1.0  0.05259578111936513  0.616179500030846  0.09285472068033583  1.0000
  O   O29       1.0  0.4204333527027092  0.8044908761203619  0.14470918226992785  1.0000
  O   O30       1.0  0.5635861223011318  0.9474095974584459  0.09285796633244561  1.0000
  O   O31       1.0  0.6159386227239949  0.42043612463083235  0.144710591712645  1.0000
  O   O32       1.0  0.6161721528358087  0.5635902396422666  0.09285480286867202  1.0000
  O   O33       1.0  0.8044901445067012  0.38406033394461747  0.144708966805851  1.0000
  O   O34       1.0  0.9474129054648159  0.38383089960927924  0.092861109776706  1.0000
  O   O35       1.0  0.5795682909380845  0.19550760484455768  0.1447108778712192  1.0000
  O   O36       1.0  0.4364168828651671  0.05259434186106663  0.09285723394042122  1.0000
  O   O37       1.0  0.8044951293316983  0.4204306046874035  0.3552878448698351  1.0000
  O   O38       1.0  0.9474041221980372  0.5635835862122249  0.4071446391142218  1.0000
  O   O39       1.0  0.5795662992727556  0.38406175699178374  0.35528953455137474  1.0000
  O   O40       1.0  0.436415083464965  0.3838329628038864  0.4071411731123008  1.0000
  O   O41       1.0  0.6159412626728198  0.1955083131917804  0.3552911102484444  1.0000
  O   O42       1.0  0.6161776355310239  0.052591213369801375  0.4071443785291819  1.0000
  O   O43       1.0  0.19550456966428703  0.579562773118461  0.35529196776758454  1.0000
  O   O44       1.0  0.0525783039511155  0.4364094519697801  0.4071419239275684  1.0000
  O   O45       1.0  0.4204371339199185  0.6159400283666586  0.3552927988266816  1.0000
  O   O46       1.0  0.563591160293953  0.6161807774538488  0.4071529521722042  1.0000
  O   O47       1.0  0.38406139163052466  0.804494251061293  0.3552905929404347  1.0000
  O   O48       1.0  0.3838271063442563  0.9474132361003244  0.4071390335853806  1.0000
  O   O49       1.0  0.7646234754724477  0.5292486143197126  0.7500003294254824  1.0000
  O   O50       1.0  0.7646223782619258  0.2353769512109734  0.7499994965335761  1.0000
  O   O51       1.0  0.47075087082480155  0.23537617865024885  0.7500004253375964  1.0000
  O   O52       1.0  0.235378316574085  0.4707515472326236  0.7500017079398945  1.0000
  O   O53       1.0  0.23537572803500942  0.7646241979445563  0.7499987597032245  1.0000
  O   O54       1.0  0.5292491826956508  0.7646230232682711  0.749999721465727  1.0000
  O   O55       1.0  0.23537626970558276  0.47075125493491743  0.2499998697135624  1.0000
  O   O56       1.0  0.23537591348732428  0.7646230223949928  0.25000133279084485  1.0000
  O   O57       1.0  0.5292485892590266  0.7646226266125001  0.2500022945513294  1.0000
  O   O58       1.0  0.7646228820342672  0.529248217667309  0.2500003817624333  1.0000
  O   O59       1.0  0.764623912794292  0.2353771247454901  0.2500014394335892  1.0000
  O   O60       1.0  0.4707517308154011  0.235375677646509  0.2499998474891783  1.0000
  O   O61       1.0  0.49893992324508935  0.35334342312581407  6.791397311000001e-07  1.0000
  O   O62       1.0  0.8544039590410577  0.5010585662437776  0.9999995002813407  1.0000
  O   O63       1.0  0.6466550062255011  0.14559579015293897  0.999999887632818  1.0000
  O   O64       1.0  0.5010599841373988  0.6466570019063982  2.5485994119999956e-07  1.0000
  O   O65       1.0  0.14559773335893314  0.49893935577721044  6.867556829999986e-08  1.0000
  O   O66       1.0  0.3533443309643333  0.8544025069047692  0.999999155807821  1.0000
  O   O67       1.0  0.14559520178512741  0.6466543075527369  0.4999991712733234  1.0000
  O   O68       1.0  0.3533419511450334  0.49893924444346277  0.4999983601723201  1.0000
  O   O69       1.0  0.5010602155378335  0.8544008211234126  0.500000530513482  1.0000
  O   O70       1.0  0.854404077549738  0.35334198029028846  0.5000003976832446  1.0000
  O   O71       1.0  0.6466564449521642  0.5010592757287711  0.5000012087800059  1.0000
  O   O72       1.0  0.49894098306857876  0.14559894378072605  0.49999840825303477  1.0000
