data_image0
_chemical_formula_structural       Zn4H56C72N8O16
_chemical_formula_sum              "Zn4 H56 C72 N8 O16"
_cell_length_a       12.378166610004941
_cell_length_b       13.289788247004243
_cell_length_c       15.812304524004137
_cell_angle_alpha    90.00004911839277
_cell_angle_beta     89.9999331341735
_cell_angle_gamma    90.00007737116859

_space_group_name_H-M_alt    "P 1"
_space_group_IT_number       1

loop_
  _space_group_symop_operation_xyz
  'x, y, z'

loop_
  _atom_site_type_symbol
  _atom_site_label
  _atom_site_symmetry_multiplicity
  _atom_site_fract_x
  _atom_site_fract_y
  _atom_site_fract_z
  _atom_site_occupancy
  Zn  Zn1       1.0  0.8518838264971363  0.2500001324940442  0.2500005775677323  1.0000
  Zn  Zn2       1.0  0.6481165321583902  0.7500004463720983  0.2500002185212011  1.0000
  Zn  Zn3       1.0  0.14811481118506004  0.7500011389328803  0.7500003041517546  1.0000
  Zn  Zn4       1.0  0.3518837212728413  0.25000007259744444  0.7499987659406246  1.0000
  H   H1        1.0  0.08511623310787539  0.34452248255245627  0.0187721749905592  1.0000
  H   H2        1.0  0.4148858117056021  0.6554802406983029  0.018773401057487104  1.0000
  H   H3        1.0  0.4148856042958754  0.8445203583364104  0.4812291465848518  1.0000
  H   H4        1.0  0.08511090471229467  0.1554760643743336  0.48122841669479755  1.0000
  H   H5        1.0  0.9148872518188963  0.6554795413352751  0.9812293391458768  1.0000
  H   H6        1.0  0.585109594478382  0.3445210307278756  0.9812300103390188  1.0000
  H   H7        1.0  0.5851138412592432  0.1554786557183903  0.518771102714574  1.0000
  H   H8        1.0  0.9148845014692097  0.8445191873910642  0.5187724650240001  1.0000
  H   H9        1.0  0.9140403560358902  0.5005006865337265  0.0727304637832873  1.0000
  H   H10       1.0  0.5859586508104043  0.499498206648596  0.0727293486374663  1.0000
  H   H11       1.0  0.5859588334621078  0.0005009709983597  0.4272701524907845  1.0000
  H   H12       1.0  0.9140372218831557  0.9994967788018059  0.4272684651728654  1.0000
  H   H13       1.0  0.08596070526949968  0.49950058489407917  0.9272691530973276  1.0000
  H   H14       1.0  0.4140375632493232  0.500500807403526  0.9272696358256596  1.0000
  H   H15       1.0  0.4140389963449919  0.9994995479709414  0.5727313616476907  1.0000
  H   H16       1.0  0.08595737642818337  0.000499977876018  0.5727286220335372  1.0000
  H   H17       1.0  0.7777200449219349  0.25601231470238156  0.43433554064575475  1.0000
  H   H18       1.0  0.7222808471494131  0.7439892045937666  0.4343357418453024  1.0000
  H   H19       1.0  0.7222811303138456  0.7560117815463127  0.0656639949377436  1.0000
  H   H20       1.0  0.7777195028034637  0.24399011426134362  0.0656637850739799  1.0000
  H   H21       1.0  0.22228020850835856  0.7439882042678009  0.5656647086538413  1.0000
  H   H22       1.0  0.2777177905342683  0.25601281928994973  0.5656638750366909  1.0000
  H   H23       1.0  0.27771912311738584  0.2439887374232228  0.934334989524082  1.0000
  H   H24       1.0  0.2222823663749906  0.7560104047098549  0.9343364642248775  1.0000
  H   H25       1.0  0.6465641170418266  0.35340359488660766  0.5211515706160555  1.0000
  H   H26       1.0  0.8534358378936698  0.6465972604803556  0.5211515816531077  1.0000
  H   H27       1.0  0.8534372626369232  0.8534021433185615  0.9788483814699378  1.0000
  H   H28       1.0  0.6465660501975066  0.14659616894766708  0.978847588967625  1.0000
  H   H29       1.0  0.3534353285143013  0.6465961716253046  0.4788480462647514  1.0000
  H   H30       1.0  0.14656360766463905  0.3534055158613043  0.4788480352287863  1.0000
  H   H31       1.0  0.1465662222879871  0.14659536582358607  0.0211512354082117  1.0000
  H   H32       1.0  0.3534382426025786  0.8534028451098551  0.021152027910694895  1.0000
  H   H33       1.0  0.5615154610530765  0.5166934608901385  0.2929572268361369  1.0000
  H   H34       1.0  0.9384832178939531  0.4833056568646725  0.2929576748116673  1.0000
  H   H35       1.0  0.9384829440211672  0.0166954696353869  0.20704150385246584  1.0000
  H   H36       1.0  0.5615174785954052  0.983304312967135  0.2070420245831031  1.0000
  H   H37       1.0  0.4384847923776078  0.48330630562195853  0.7070417576254188  1.0000
  H   H38       1.0  0.06151461191463169  0.5166956145614137  0.7070425744893143  1.0000
  H   H39       1.0  0.0615197330302806  0.9833035444214457  0.792958745445475  1.0000
  H   H40       1.0  0.4384811590862511  0.0166962060023508  0.7929588571361137  1.0000
  H   H41       1.0  0.6922666288340408  0.40814549890227875  0.2156862912654063  1.0000
  H   H42       1.0  0.8077329730365645  0.5918542925154638  0.21568756949275786  1.0000
  H   H43       1.0  0.8077331509492323  0.9081468012357873  0.2843127215435786  1.0000
  H   H44       1.0  0.6922679644930197  0.09185381261969643  0.2843118477814315  1.0000
  H   H45       1.0  0.30773524034387373  0.5918542676114811  0.7843139580331808  1.0000
  H   H46       1.0  0.1922656646450918  0.4081462264540221  0.7843133122264591  1.0000
  H   H47       1.0  0.19226710248090478  0.0918522128188783  0.7156862629177001  1.0000
  H   H48       1.0  0.307731481063655  0.9081467063496546  0.7156877690996526  1.0000
  H   H49       1.0  0.4870851571653032  0.5736161337487217  0.4245358249757985  1.0000
  H   H50       1.0  0.012913052001984197  0.4263832409826803  0.4245385184655177  1.0000
  H   H51       1.0  0.012913864339658696  0.0736167199361688  0.075461506845123  1.0000
  H   H52       1.0  0.48708809606655723  0.9263822988346035  0.07546159727028373  1.0000
  H   H53       1.0  0.5129150962678111  0.4263843852195207  0.5754606298104861  1.0000
  H   H54       1.0  0.9870847778066005  0.5736180304434055  0.5754617308354639  1.0000
  H   H55       1.0  0.987087196962534  0.9263807892047708  0.9245387424530167  1.0000
  H   H56       1.0  0.5129137731123662  0.0736182201362681  0.9245380196096847  1.0000
  C   C1        1.0  0.9749837811379222  0.31603505821642847  0.12450713599000812  1.0000
  C   C2        1.0  0.5250208037340655  0.683963887769032  0.12450873920924013  1.0000
  C   C3        1.0  0.5250199046360818  0.8160353450437511  0.3754918104324149  1.0000
  C   C4        1.0  0.9749802671725616  0.18396310441713132  0.3754913768674726  1.0000
  C   C5        1.0  0.025018895915565095  0.6839654607546352  0.875491848470709  1.0000
  C   C6        1.0  0.47497944969459377  0.3160343738288419  0.8754915100895458  1.0000
  C   C7        1.0  0.474981156667276  0.18396442146982386  0.6245090712854235  1.0000
  C   C8        1.0  0.025019178383566  0.8160366620947812  0.6245082400133415  1.0000
  C   C9        1.0  0.019729325841389297  0.37848161658554597  0.055299467106678414  1.0000
  C   C10       1.0  0.48027104883943383  0.621520391453373  0.05529807921266891  1.0000
  C   C11       1.0  0.4802717528617889  0.8784795374639386  0.4447025113624791  1.0000
  C   C12       1.0  0.0197272341541392  0.1215183529162616  0.4447024492268881  1.0000
  C   C13       1.0  0.9802725433368947  0.6215219122170054  0.9447039442876888  1.0000
  C   C14       1.0  0.519725973090459  0.3784771176863088  0.9447046997628663  1.0000
  C   C15       1.0  0.5197285005679574  0.1215202290488051  0.5552977379368471  1.0000
  C   C16       1.0  0.9802705956507082  0.8784784037655341  0.5552984324913481  1.0000
  C   C17       1.0  0.9803062340418048  0.4701450709463515  0.0346878969146758  1.0000
  C   C18       1.0  0.5196936373211257  0.5298552883585969  0.0346874966807391  1.0000
  C   C19       1.0  0.5196952512643519  0.970143937746883  0.4653124254138065  1.0000
  C   C20       1.0  0.9803007474395142  0.0298546033037965  0.46531124349452574  1.0000
  C   C21       1.0  0.019696443011895298  0.5298577053979938  0.9653129848035107  1.0000
  C   C22       1.0  0.48030015311540797  0.470143725692644  0.9653127526212728  1.0000
  C   C23       1.0  0.4803041942908378  0.029855828765668897  0.534688456304778  1.0000
  C   C24       1.0  0.019692235122718695  0.9701421533736578  0.5346871085503866  1.0000
  C   C25       1.0  0.7266196485040337  0.31360235034814105  0.405775547912974  1.0000
  C   C26       1.0  0.7733820939631924  0.6863976349104489  0.4057762932819671  1.0000
  C   C27       1.0  0.773381610124545  0.813601910666698  0.09422339675703031  1.0000
  C   C28       1.0  0.7266181725951666  0.18639850934844296  0.09422319213083342  1.0000
  C   C29       1.0  0.27338141280026207  0.6863974161647873  0.5942240689670939  1.0000
  C   C30       1.0  0.22661896734023657  0.3136028840608843  0.59422522085503  1.0000
  C   C31       1.0  0.22662025905422914  0.18639710338865706  0.9057749552846275  1.0000
  C   C32       1.0  0.2733828887086601  0.8136012571648122  0.9057770571681232  1.0000
  C   C33       1.0  0.6541315348965637  0.36872886587000403  0.4536889205143524  1.0000
  C   C34       1.0  0.8458669047355795  0.6312704157874195  0.4536889274286864  1.0000
  C   C35       1.0  0.8458698035581519  0.8687299735299941  0.0463100638861036  1.0000
  C   C36       1.0  0.6541332819960314  0.13126964517112327  0.04630988583423351  1.0000
  C   C37       1.0  0.3458679106584767  0.6312693957270384  0.5463106963659144  1.0000
  C   C38       1.0  0.15413011719790856  0.36873010318105054  0.5463119542912693  1.0000
  C   C39       1.0  0.1541328734947811  0.1312697929836304  0.9536889205743437  1.0000
  C   C40       1.0  0.3458702029305201  0.8687301213433327  0.953689731044733  1.0000
  C   C41       1.0  0.5918938073987903  0.44431917582951286  0.41438730459619694  1.0000
  C   C42       1.0  0.9081054986231221  0.5556793132942346  0.41438783251969374  1.0000
  C   C43       1.0  0.9081068326391913  0.9443204019429035  0.08561173428290662  1.0000
  C   C44       1.0  0.591896194399851  0.055680761749833614  0.08561092626447933  1.0000
  C   C45       1.0  0.4081056381577425  0.5556798382243214  0.5856110474465696  1.0000
  C   C46       1.0  0.09189313905838496  0.44431970075973487  0.5856117843612126  1.0000
  C   C47       1.0  0.09189746016096477  0.0556793645723843  0.9143885150145721  1.0000
  C   C48       1.0  0.4081064826536291  0.9443197572212229  0.914388058196238  1.0000
  C   C49       1.0  0.6057448838473077  0.45829227451326904  0.3268364976628392  1.0000
  C   C50       1.0  0.8942529367824291  0.5417076302465277  0.3268376606059391  1.0000
  C   C51       1.0  0.894253352801982  0.9582935724605262  0.1731625512878665  1.0000
  C   C52       1.0  0.6057479281335175  0.04170768050932589  0.17316172052754555  1.0000
  C   C53       1.0  0.39425456170977197  0.5417074919980038  0.6731618543802043  1.0000
  C   C54       1.0  0.10574489302560859  0.4582928887221272  0.6731625886947655  1.0000
  C   C55       1.0  0.10574609275320769  0.041706194052032686  0.826838330430711  1.0000
  C   C56       1.0  0.3942531331718726  0.9582935909184798  0.8268378963530694  1.0000
  C   C57       1.0  0.6789140286465025  0.39858555329274736  0.28341519444128244  1.0000
  C   C58       1.0  0.8210846645096551  0.6014150596461008  0.2834145700885529  1.0000
  C   C59       1.0  0.8210865451667643  0.8985868033772776  0.216585076315198  1.0000
  C   C60       1.0  0.6789146711165513  0.10141524632953751  0.216584854077098  1.0000
  C   C61       1.0  0.3210870326573243  0.6014142132205079  0.7165850548576742  1.0000
  C   C62       1.0  0.17891235742633427  0.3985869642362729  0.716584414375298  1.0000
  C   C63       1.0  0.17891451613605366  0.1014122106788591  0.7834158054023703  1.0000
  C   C64       1.0  0.32108558231436035  0.8985867775558347  0.7834160276419269  1.0000
  C   C65       1.0  0.5162638797190056  0.5082411630721069  0.4597906112485219  1.0000
  C   C66       1.0  0.9837345508281101  0.4917596297231129  0.45979228876114325  1.0000
  C   C67       1.0  0.9837353209878612  0.008240048848939798  0.04020811334697781  1.0000
  C   C68       1.0  0.51626615790326  0.9917588111711239  0.0402074167266306  1.0000
  C   C69       1.0  0.4837347579655499  0.4917601083532047  0.5402071083765421  1.0000
  C   C70       1.0  0.0162640868545552  0.5082416417034921  0.5402079605394619  1.0000
  C   C71       1.0  0.016266548190451098  0.9917589652067419  0.9597908711135619  1.0000
  C   C72       1.0  0.4837357112756705  0.008241707799754699  0.9597922001533449  1.0000
  N   N1        1.0  0.7395061208676521  0.3280171428230291  0.32191806786970295  1.0000
  N   N2        1.0  0.760494130709233  0.671983509379402  0.3219175498006948  1.0000
  N   N3        1.0  0.7604943507585061  0.8280160199682244  0.17808215202699532  1.0000
  N   N4        1.0  0.7395061149775443  0.1719844855603299  0.17808129280494  1.0000
  N   N5        1.0  0.2604941325631813  0.6719841286045848  0.6780821814301634  1.0000
  N   N6        1.0  0.23950531484697277  0.3280170095902689  0.678082699499271  1.0000
  N   N7        1.0  0.23950671054571868  0.17198299408694598  0.8219168324339137  1.0000
  N   N8        1.0  0.26049413845227315  0.8280160334101723  0.8219195889135379  1.0000
  O   O1        1.0  0.9027743736471405  0.3577693369643028  0.1734222551521967  1.0000
  O   O2        1.0  0.597227714772792  0.6422289064416874  0.173422497404303  1.0000
  O   O3        1.0  0.597226948935443  0.8577704173032004  0.3265798834440973  1.0000
  O   O4        1.0  0.9027724878255511  0.1422279822796213  0.3265782210130439  1.0000
  O   O5        1.0  0.0972258797811918  0.642230429549407  0.8265798914037819  1.0000
  O   O6        1.0  0.4027725386553982  0.3577693551565063  0.8265783843133649  1.0000
  O   O7        1.0  0.40277411236744587  0.14222934921069444  0.673421630692623  1.0000
  O   O8        1.0  0.09722614985798829  0.8577725366885784  0.6734201310306389  1.0000
  O   O9        1.0  0.0045936369625322986  0.22604505664646976  0.132625908614429  1.0000
  O   O10       1.0  0.4954106619518938  0.7739540204189553  0.13262777882863475  1.0000
  O   O11       1.0  0.49541045250823146  0.7260451751055259  0.3673721654791109  1.0000
  O   O12       1.0  0.004588649645299399  0.2739541413345492  0.36737412430861144  1.0000
  O   O13       1.0  0.9954098479650353  0.773955462325098  0.8673730758459186  1.0000
  O   O14       1.0  0.504590399350917  0.22604499363718128  0.8673731028889335  1.0000
  O   O15       1.0  0.5045906087960716  0.2739545914074029  0.6326274514009571  1.0000
  O   O16       1.0  0.9954099880348648  0.726045625178145  0.632628022248106  1.0000
