data_image0
_chemical_formula_structural       Ho2H20C18N2O18
_chemical_formula_sum              "Ho2 H20 C18 N2 O18"
_cell_length_a       7.265135093183228
_cell_length_b       8.520566690545515
_cell_length_c       10.592924736086978
_cell_angle_alpha    106.31849063748797
_cell_angle_beta     101.47514047522108
_cell_angle_gamma    94.01417321508266

_space_group_name_H-M_alt    "P 1"
_space_group_IT_number       1

loop_
  _space_group_symop_operation_xyz
  'x, y, z'

loop_
  _atom_site_type_symbol
  _atom_site_label
  _atom_site_symmetry_multiplicity
  _atom_site_fract_x
  _atom_site_fract_y
  _atom_site_fract_z
  _atom_site_occupancy
  Ho  Ho1       1.0  0.7445231467055606  0.2599982468292126  0.5937455668538832  1.0000
  Ho  Ho2       1.0  0.2554693822854616  0.7399908662921459  0.4062472527393908  1.0000
  H   H1        1.0  0.41623402928964753  0.34719660674622316  0.6951687446168153  1.0000
  H   H2        1.0  0.5837753104066081  0.6528010578619429  0.3048293566775513  1.0000
  H   H3        1.0  0.41906411823919854  0.45322022809756385  0.5974130417471815  1.0000
  H   H4        1.0  0.5809325278426627  0.5467774845614526  0.4025879845953213  1.0000
  H   H5        1.0  0.8462861564126882  0.5003578940953444  0.8830814460958225  1.0000
  H   H6        1.0  0.1537162625419199  0.4996410109161573  0.1169235051654596  1.0000
  H   H7        1.0  0.9875228196390965  0.3634502999965931  0.8698908681102325  1.0000
  H   H8        1.0  0.012468993325221263  0.6365523746523251  0.1301115434995097  1.0000
  H   H9        1.0  0.10444910565603749  0.05615786252315759  0.8232258778906357  1.0000
  H   H10       1.0  0.8955593356494518  0.9438434843353177  0.17677954179877992  1.0000
  H   H11       1.0  0.3334578053659669  0.31679526078907827  0.23234485400930546  1.0000
  H   H12       1.0  0.66653964635627  0.6832073916415949  0.7676564667701485  1.0000
  H   H13       1.0  0.3313797103362858  0.7902301625734078  0.08425330851965632  1.0000
  H   H14       1.0  0.6686132692484391  0.2097712589666826  0.9157518161931649  1.0000
  H   H15       1.0  0.17710012663540195  0.6458805249389524  0.8519127612709668  1.0000
  H   H16       1.0  0.8229197775733396  0.3541220075754268  0.14809172706707588  1.0000
  H   H17       1.0  0.27510276501060094  0.7563180522868362  0.7552705852466773  1.0000
  H   H18       1.0  0.7249064947534123  0.24368823822371158  0.24473418751971823  1.0000
  H   H19       1.0  0.03120580823765803  0.7503114720140116  0.7552907438329939  1.0000
  H   H20       1.0  0.9688020640874554  0.2496861806868579  0.2447118662887959  1.0000
  C   C1        1.0  0.42614422295594073  0.053286625663844185  0.31492636040269434  1.0000
  C   C2        1.0  0.5738487950832224  0.9467148075174945  0.6850759402302274  1.0000
  C   C3        1.0  0.3406966655698156  0.05463536943324238  0.1732909039121111  1.0000
  C   C4        1.0  0.6592997792831241  0.9453697584378272  0.8267108367933886  1.0000
  C   C5        1.0  0.29945474913144926  0.20138552400705115  0.1504196332491361  1.0000
  C   C6        1.0  0.70054306054746  0.7986195847280011  0.8495851295086824  1.0000
  C   C7        1.0  0.21090165417250967  0.20412782203889882  0.01872025143939739  1.0000
  C   C8        1.0  0.7890923579178022  0.7958711318216343  0.9812825706274497  1.0000
  C   C9        1.0  0.21737491411845158  0.9076375295597497  0.9376378710220481  1.0000
  C   C10       1.0  0.7826282976583837  0.09236631134299958  0.062368316036149486  1.0000
  C   C11       1.0  0.3008093703608024  0.9059669815275694  0.0659498607419805  1.0000
  C   C12       1.0  0.6991835964057742  0.09403443613210526  0.9340562053308121  1.0000
  C   C13       1.0  0.1724349878134603  0.7563070089353088  0.8185871132323613  1.0000
  C   C14       1.0  0.8275738755394428  0.24369681362961151  0.1814170416355765  1.0000
  C   C15       1.0  0.9612569581496048  0.9999177292384401  0.42676815695751474  1.0000
  C   C16       1.0  0.0387374316003175  8.251292071289893e-05  0.5732217950190164  1.0000
  C   C17       1.0  0.08915097634929478  0.46385977193707356  0.5259946405880954  1.0000
  C   C18       1.0  0.9108543518246606  0.536120674991892  0.47398669976507796  1.0000
  N   N1        1.0  0.17397352700391616  0.05401914706158098  0.9182731740865367  1.0000
  N   N2        1.0  0.8260305062547956  0.9459809883083848  0.08173134273641845  1.0000
  O   O1        1.0  0.4906150561209373  0.19047330468161047  0.4033480075279671  1.0000
  O   O2        1.0  0.5093786078074841  0.8095318459398225  0.5966514545127738  1.0000
  O   O3        1.0  0.42823155236698796  0.9130441106846232  0.33567172384405103  1.0000
  O   O4        1.0  0.5717685461649467  0.08695730442494919  0.6643268598511015  1.0000
  O   O5        1.0  0.1635360606497258  0.3336872858427071  0.9898532522337932  1.0000
  O   O6        1.0  0.836458098373548  0.6663128864689793  0.010153644222143023  1.0000
  O   O7        1.0  0.827547504896387  0.08293854518343839  0.40716166809720283  1.0000
  O   O8        1.0  0.172440625842647  0.9170580095146974  0.5928303305818616  1.0000
  O   O9        1.0  0.037732899500667716  0.9164483521769564  0.33648165656859425  1.0000
  O   O10       1.0  0.9622590574866196  0.08354571597166677  0.6635093767692838  1.0000
  O   O11       1.0  0.07081281975991517  0.36192075633982757  0.5896326456267147  1.0000
  O   O12       1.0  0.9291883655735448  0.6380695574269737  0.41035884667034855  1.0000
  O   O13       1.0  0.24264373273625486  0.5161562991155789  0.5000707031767888  1.0000
  O   O14       1.0  0.7573630498773267  0.48384262997659977  0.49992354568212266  1.0000
  O   O15       1.0  0.504051851401627  0.41356283793881216  0.6657073164479215  1.0000
  O   O16       1.0  0.4959533967267262  0.5864447090288536  0.33429717135047815  1.0000
  O   O17       1.0  0.8782004885036513  0.401075013404828  0.8177744354884525  1.0000
  O   O18       1.0  0.12179899957010319  0.5989313450907614  0.18222518603119645  1.0000
