data_image0
_chemical_formula_structural       Hg4H20C28Cl4O4
_chemical_formula_sum              "Hg4 H20 C28 Cl4 O4"
_cell_length_a       7.375613359401214
_cell_length_b       9.458222320782122
_cell_length_c       10.95178590900831
_cell_angle_alpha    89.99986147943444
_cell_angle_beta     89.99997101508175
_cell_angle_gamma    101.56744947047922

_space_group_name_H-M_alt    "P 1"
_space_group_IT_number       1

loop_
  _space_group_symop_operation_xyz
  'x, y, z'

loop_
  _atom_site_type_symbol
  _atom_site_label
  _atom_site_symmetry_multiplicity
  _atom_site_fract_x
  _atom_site_fract_y
  _atom_site_fract_z
  _atom_site_occupancy
  Hg  Hg1       1.0  0.007720547740845494  0.7983156879160166  0.4232351112868784  1.0000
  Hg  Hg2       1.0  0.007744788208533694  0.2983232090785962  0.07676979652741518  1.0000
  Hg  Hg3       1.0  0.9922697332058446  0.20168168825444616  0.5767721912710825  1.0000
  Hg  Hg4       1.0  0.9922634669930872  0.7016805342983122  0.9232256358100698  1.0000
  H   H1        1.0  0.6019221893306933  0.31353483216719985  0.568600869661303  1.0000
  H   H2        1.0  0.6019494418199969  0.8135474863379885  0.9314041589884496  1.0000
  H   H3        1.0  0.3980644279015308  0.6864539196944222  0.4313973019759914  1.0000
  H   H4        1.0  0.39806935229275814  0.18645510599973392  0.06860314355849079  1.0000
  H   H5        1.0  0.4890557387385712  0.2281740284880415  0.3620456321507319  1.0000
  H   H6        1.0  0.48907963773229557  0.7281886280196518  0.1379492090999506  1.0000
  H   H7        1.0  0.5109356069002756  0.7718222595604943  0.6379452347326691  1.0000
  H   H8        1.0  0.5109283286824889  0.27181403618507005  0.8620526148903879  1.0000
  H   H9        1.0  0.5866162040450931  0.38693848800866704  0.1804677476017602  1.0000
  H   H10       1.0  0.5866277710402271  0.8869429186369755  0.3195340117323866  1.0000
  H   H11       1.0  0.4133858614061125  0.6130674586036875  0.81952951092061  1.0000
  H   H12       1.0  0.41337081158344086  0.11306521324080879  0.6804687253467279  1.0000
  H   H13       1.0  0.7984078850313875  0.6213282216401694  0.2049319527497246  1.0000
  H   H14       1.0  0.7984425517096979  0.12132964180679547  0.2950757937740036  1.0000
  H   H15       1.0  0.201586546755415  0.3786745323872155  0.7950707843360972  1.0000
  H   H16       1.0  0.20156435002594006  0.8786741105459728  0.7049242040291546  1.0000
  H   H17       1.0  0.7690498591781462  0.47592903874712533  0.7000632366407088  1.0000
  H   H18       1.0  0.7690578633863935  0.975945441126619  0.7999358931073246  1.0000
  H   H19       1.0  0.23094072799557339  0.5240542813736367  0.2999321957225902  1.0000
  H   H20       1.0  0.23094160302039765  0.024050793010566503  0.2000668439847715  1.0000
  C   C1        1.0  0.8200306522845151  0.6038255439721639  0.40096757524045756  1.0000
  C   C2        1.0  0.8200538867946037  0.1038394943962402  0.09903563649626791  1.0000
  C   C3        1.0  0.17996311148906585  0.3961696469315612  0.5990351618538412  1.0000
  C   C4        1.0  0.17995146314077456  0.8961685925656371  0.9009698398609131  1.0000
  C   C5        1.0  0.7639422794827552  0.5152723521739162  0.5033902480083796  1.0000
  C   C6        1.0  0.7639546069335734  0.0152819909340209  0.9966144666647594  1.0000
  C   C7        1.0  0.23605254897323388  0.4847217505882997  0.4966097498076678  1.0000
  C   C8        1.0  0.23604659216559307  0.9847207181787714  0.0033900966060329994  1.0000
  C   C9        1.0  0.6455643521978657  0.3801360291887477  0.4881563740290744  1.0000
  C   C10       1.0  0.6455905602320938  0.880148813090763  0.0118444654917909  1.0000
  C   C11       1.0  0.3544220667020426  0.6198570483100315  0.5118399714173023  1.0000
  C   C12       1.0  0.35442069067336485  0.11985599147654824  0.9881564454024955  1.0000
  C   C13       1.0  0.5816773157081908  0.3327310655382547  0.3726255091897741  1.0000
  C   C14       1.0  0.5816957254742263  0.8327403264548965  0.1273727193281786  1.0000
  C   C15       1.0  0.41831431871033686  0.667266301668093  0.6273690100647329  1.0000
  C   C16       1.0  0.41831175382401387  0.16726558422003285  0.872630017751753  1.0000
  C   C17       1.0  0.6360223893068307  0.4212450140441177  0.2716939177970872  1.0000
  C   C18       1.0  0.6360447156489497  0.9212539593471976  0.228309573718299  1.0000
  C   C19       1.0  0.3639714649180164  0.5787555816624136  0.7283051669188794  1.0000
  C   C20       1.0  0.3639644963423122  0.07875842630464552  0.7716940764472469  1.0000
  C   C21       1.0  0.7553628780710326  0.5558236003221565  0.2855243681407558  1.0000
  C   C22       1.0  0.7553887629080975  0.05582747219045811  0.2144771472980196  1.0000
  C   C23       1.0  0.24463097615251428  0.444176995381767  0.714476542761382  1.0000
  C   C24       1.0  0.2446227767802965  0.9441784115411949  0.7855228505019268  1.0000
  C   C25       1.0  0.8233120150894775  0.5570143164257645  0.6286209077946197  1.0000
  C   C26       1.0  0.8233296286039574  0.0570383334785944  0.8713818665793481  1.0000
  C   C27       1.0  0.17667721861890578  0.44296901267217254  0.3713781769412705  1.0000
  C   C28       1.0  0.17667871704242089  0.9429708146880602  0.1286190443106747  1.0000
  Cl  Cl1       1.0  0.24839656411945296  0.0032805708035752003  0.4477415372752914  1.0000
  Cl  Cl2       1.0  0.24840966706263148  0.5032900824815628  0.0522538894952049  1.0000
  Cl  Cl3       1.0  0.7515972901060407  0.9967200249042635  0.5522566343475859  1.0000
  Cl  Cl4       1.0  0.7515996528174966  0.4967125727459916  0.9477442821225495  1.0000
  O   O1        1.0  0.9247536706208662  0.6720349375846055  0.6587062661679112  1.0000
  O   O2        1.0  0.9247723012384764  0.17205254774776793  0.8412889119906453  1.0000
  O   O3        1.0  0.0752331449443275  0.3279494886411599  0.3412928185672115  1.0000
  O   O4        1.0  0.07523779454242426  0.8279479401765358  0.15870560725701208  1.0000
