data_image0
_chemical_formula_structural       Cd4H56C80N16O16
_chemical_formula_sum              "Cd4 H56 C80 N16 O16"
_cell_length_a       8.485969105056682
_cell_length_b       17.995339182151305
_cell_length_c       18.605134330021418
_cell_angle_alpha    89.99983506064373
_cell_angle_beta     89.99994108938061
_cell_angle_gamma    89.9995729217718

_space_group_name_H-M_alt    "P 1"
_space_group_IT_number       1

loop_
  _space_group_symop_operation_xyz
  'x, y, z'

loop_
  _atom_site_type_symbol
  _atom_site_label
  _atom_site_symmetry_multiplicity
  _atom_site_fract_x
  _atom_site_fract_y
  _atom_site_fract_z
  _atom_site_occupancy
  Cd  Cd1       1.0  0.0028428140624897004  0.3130987043138518  0.46980804814514693  1.0000
  Cd  Cd2       1.0  0.9971599988640636  0.8131024989484885  0.5301931276660312  1.0000
  Cd  Cd3       1.0  0.9971541615799352  0.31310126891987977  0.9698122595402764  1.0000
  Cd  Cd4       1.0  0.0028380456361532  0.8130960444644303  0.030188916278909506  1.0000
  H   H1        1.0  0.31479497985727517  0.34909621046814016  0.585811922110004  1.0000
  H   H2        1.0  0.685198998352206  0.8490869647482525  0.4141880781197003  1.0000
  H   H3        1.0  0.6852199231272351  0.34909131860092657  0.0858149049222163  1.0000
  H   H4        1.0  0.3147799472127134  0.8490857439139177  0.9141834828564797  1.0000
  H   H5        1.0  0.8743287523927491  0.25177721321131225  0.6305791349765499  1.0000
  H   H6        1.0  0.12568330754454848  0.7517811224763378  0.3694211372822309  1.0000
  H   H7        1.0  0.12568999379206505  0.25178034234165375  0.1305872262394701  1.0000
  H   H8        1.0  0.8743008546568802  0.7517779933765921  0.8694168084267345  1.0000
  H   H9        1.0  0.05206071333294201  0.2519634769803502  0.7562957065224367  1.0000
  H   H10       1.0  0.9479478083619525  0.75196273174447  0.24370564019509544  1.0000
  H   H11       1.0  0.9479518637829326  0.25196046754303575  0.2563007119846432  1.0000
  H   H12       1.0  0.05203898175867041  0.7519551829192822  0.7437027846960902  1.0000
  H   H13       1.0  0.20224200830311642  0.3322000071801909  0.8243665526726716  1.0000
  H   H14       1.0  0.7977616721208066  0.8322055329372943  0.1756361821969818  1.0000
  H   H15       1.0  0.797738475679651  0.3321952872028858  0.3243700184482492  1.0000
  H   H16       1.0  0.20224045811783503  0.8321974718711546  0.6756316414731813  1.0000
  H   H17       1.0  0.42670531840587966  0.33929633457611175  0.910350817845341  1.0000
  H   H18       1.0  0.5733017817668012  0.839301769372092  0.0896481347837934  1.0000
  H   H19       1.0  0.5732666137919723  0.3392873788694856  0.4103490175187048  1.0000
  H   H20       1.0  0.4267157397423063  0.8392990554301817  0.5896515475908544  1.0000
  H   H21       1.0  0.7535464699454479  0.30581903234025276  0.737099147348225  1.0000
  H   H22       1.0  0.24645881842423017  0.8058083972762303  0.2628961364861411  1.0000
  H   H23       1.0  0.24645230989695932  0.30581341410933754  0.2370867556408314  1.0000
  H   H24       1.0  0.7535411943271982  0.8058123484273167  0.7629096031707974  1.0000
  H   H25       1.0  0.5305456086018127  0.29454940070270647  0.6503822941800692  1.0000
  H   H26       1.0  0.46945750639629585  0.794534969521571  0.3496140961360723  1.0000
  H   H27       1.0  0.4694700415115491  0.29454135477814714  0.1503773192348987  1.0000
  H   H28       1.0  0.5305236462331707  0.7945341242718768  0.8496185336099131  1.0000
  H   H29       1.0  0.6910779249567653  0.42722760156052425  0.4946911756727985  1.0000
  H   H30       1.0  0.30893363608705476  0.9272315944034517  0.5053123685228726  1.0000
  H   H31       1.0  0.3089277445817586  0.427228623512029  0.9946978704551128  1.0000
  H   H32       1.0  0.691066140255252  0.9272272382893973  0.005302986319293301  1.0000
  H   H33       1.0  0.1078219581711082  0.4732023369636167  0.3800057061141189  1.0000
  H   H34       1.0  0.8921888545735612  0.9732045562992439  0.6200025469378261  1.0000
  H   H35       1.0  0.8922067814637417  0.4731913670937544  0.8799911563703589  1.0000
  H   H36       1.0  0.10780638828241959  0.9731977438170958  0.11999398480608649  1.0000
  H   H37       1.0  0.9176459395847091  0.5996353638079839  0.3780209347540975  1.0000
  H   H38       1.0  0.08236859671065841  0.0996352924409862  0.6219915875097543  1.0000
  H   H39       1.0  0.08238310332311022  0.5996243773911657  0.8780024774735081  1.0000
  H   H40       1.0  0.917625541041339  0.0996318307237019  0.12198209553781682  1.0000
  H   H41       1.0  0.7908818975239881  0.6705215765211463  0.4698331569950938  1.0000
  H   H42       1.0  0.2091303065369345  0.17052579058542247  0.5301823920196611  1.0000
  H   H43       1.0  0.20911515261798996  0.6705173819087235  0.9698200131572747  1.0000
  H   H44       1.0  0.7908723048174836  0.1705205383893116  0.030168661574606404  1.0000
  H   H45       1.0  0.5689442214913996  0.757910657680334  0.49436502651156633  1.0000
  H   H46       1.0  0.4310677386117164  0.25791307614171183  0.5056492032405657  1.0000
  H   H47       1.0  0.4310466391015951  0.7579095960436605  0.9943528501163855  1.0000
  H   H48       1.0  0.5689382174798326  0.25791191505869193  0.0056398802037592  1.0000
  H   H49       1.0  0.23822802788999548  0.5780296723045594  0.4753539392824493  1.0000
  H   H50       1.0  0.761775075898349  0.07803201790838439  0.5246538060043733  1.0000
  H   H51       1.0  0.7617740508461707  0.5780330397146257  0.9753448275659479  1.0000
  H   H52       1.0  0.2382208040045697  0.07803420753153739  0.0246462556478235  1.0000
  H   H53       1.0  0.45743060608950253  0.49079842329734913  0.4448543626907124  1.0000
  H   H54       1.0  0.5425869907214319  0.9908031386104738  0.5551586785412256  1.0000
  H   H55       1.0  0.5425859215275891  0.4908008711887675  0.9448432072292691  1.0000
  H   H56       1.0  0.4574151774937292  0.9908001350843848  0.055145109649544104  1.0000
  C   C1        1.0  0.21913373115734203  0.3221332386466144  0.6142616566256933  1.0000
  C   C2        1.0  0.7808653995469826  0.8221276408914803  0.38574003142982605  1.0000
  C   C3        1.0  0.780881548665427  0.3221302433183623  0.11426513057430301  1.0000
  C   C4        1.0  0.21911404682494146  0.8221267463320385  0.8857349450293912  1.0000
  C   C5        1.0  0.9931152502793026  0.2714565364129414  0.6402860766016474  1.0000
  C   C6        1.0  0.006892954131942  0.771456433991112  0.35971467813685365  1.0000
  C   C7        1.0  0.0069007976450024  0.2714550693824407  0.14029261296438023  1.0000
  C   C8        1.0  0.9930909089654277  0.7714551225493337  0.8597102917261665  1.0000
  C   C9        1.0  0.0797710649600702  0.27093231007426505  0.7024675212262821  1.0000
  C   C10       1.0  0.9202371479844088  0.7709320554758463  0.2975337724639289  1.0000
  C   C11       1.0  0.9202424991475411  0.2709293951419768  0.2024730775995494  1.0000
  C   C12       1.0  0.07974568079120561  0.7709271906492601  0.7975287535924309  1.0000
  C   C13       1.0  0.3532480062555338  0.3121163516633557  0.7328552457339583  1.0000
  C   C14       1.0  0.64675953639113  0.8121121185635687  0.2671437828892635  1.0000
  C   C15       1.0  0.6467530371537435  0.31211103527024153  0.23285555975002836  1.0000
  C   C16       1.0  0.35323565092677006  0.81210687670017  0.7671429314064825  1.0000
  C   C17       1.0  0.3231121894407138  0.3257020353529754  0.8055416213623161  1.0000
  C   C18       1.0  0.6768915967945334  0.825702360550288  0.1944568317911006  1.0000
  C   C19       1.0  0.6768766902952094  0.3256916149027305  0.3055440707321324  1.0000
  C   C20       1.0  0.32310941985064545  0.8256944429465917  0.6944559949093261  1.0000
  C   C21       1.0  0.4487217912716162  0.33088920473964817  0.8532644318100537  1.0000
  C   C22       1.0  0.5512830889695479  0.8308873213084168  0.146732931873558  1.0000
  C   C23       1.0  0.5512562942991934  0.3308764342130743  0.3532637171260973  1.0000
  C   C24       1.0  0.44872737458418743  0.8308839765808783  0.6467379464735076  1.0000
  C   C25       1.0  0.6039475239470634  0.3229847073330347  0.8288383521061747  1.0000
  C   C26       1.0  0.39605394974645247  0.8229777239095026  0.1711584961960924  1.0000
  C   C27       1.0  0.39603663560027513  0.3229724662082489  0.3288328752509386  1.0000
  C   C28       1.0  0.6039518756212134  0.8229771839659675  0.6711661230164978  1.0000
  C   C29       1.0  0.6323345555277412  0.3114806777559593  0.7554715166634908  1.0000
  C   C30       1.0  0.36767181912062347  0.811468016653798  0.24452536380463388  1.0000
  C   C31       1.0  0.3676593785043424  0.3114685334346489  0.2554628286427416  1.0000
  C   C32       1.0  0.6323281415761102  0.8114696027162012  0.7445351268167927  1.0000
  C   C33       1.0  0.507771391211449  0.3058533935897713  0.7070972734953003  1.0000
  C   C34       1.0  0.4922350750187761  0.8058418313522395  0.2929012351602651  1.0000
  C   C35       1.0  0.4922357023910849  0.3058447143077814  0.2070922875192096  1.0000
  C   C36       1.0  0.5077566229316233  0.8058405080691313  0.7929056836677262  1.0000
  C   C37       1.0  0.7373830115988442  0.3242552864419608  0.8814474517344735  1.0000
  C   C38       1.0  0.2626243334892422  0.8242489140546068  0.11854831804157581  1.0000
  C   C39       1.0  0.26260454783694337  0.3242446118001395  0.38144096455229  1.0000
  C   C40       1.0  0.7373862995067669  0.8242495861281752  0.6185591051300677  1.0000
  C   C41       1.0  0.7782781362439765  0.4561538793207659  0.46261824705776183  1.0000
  C   C42       1.0  0.22173059716128307  0.9561564073928679  0.5373852162782456  1.0000
  C   C43       1.0  0.221737738154296  0.4561518644667685  0.9626196092290584  1.0000
  C   C44       1.0  0.7782674600615425  0.956152309570157  0.037376329311769  1.0000
  C   C45       1.0  0.9925799663239302  0.48277938492388717  0.4033635467852151  1.0000
  C   C46       1.0  0.007425976869775801  0.9827830239299049  0.5966403796052901  1.0000
  C   C47       1.0  0.0074379607081525  0.4827753224624373  0.9033607128976229  1.0000
  C   C48       1.0  0.9925703393972753  0.9827787509123808  0.09663192629709273  1.0000
  C   C49       1.0  0.900703091922125  0.5454596623059587  0.402160587671105  1.0000
  C   C50       1.0  0.09930879091223942  0.04546071612371351  0.5978483236358015  1.0000
  C   C51       1.0  0.0993138175414359  0.5454530637050468  0.9021528718995101  1.0000
  C   C52       1.0  0.9006909949034423  0.045456756473512896  0.09783830238449552  1.0000
  C   C53       1.0  0.6365608829281373  0.5764341662698697  0.4546821318677132  1.0000
  C   C54       1.0  0.36345049573600363  0.07643614200549818  0.545332067710298  1.0000
  C   C55       1.0  0.3634471589765057  0.5764300010163623  0.9546705257183419  1.0000
  C   C56       1.0  0.6365477219426482  0.076434194629087  0.0453194870003486  1.0000
  C   C57       1.0  0.669171738013894  0.6511906693320595  0.46857657113350376  1.0000
  C   C58       1.0  0.33083606705807966  0.15119057468321265  0.5314395694132514  1.0000
  C   C59       1.0  0.3308279863327143  0.6511871710154935  0.96856336832672  1.0000
  C   C60       1.0  0.6691656778162384  0.1511890717639375  0.0314291228446351  1.0000
  C   C61       1.0  0.5454129236998637  0.6996256232208822  0.48260921898216946  1.0000
  C   C62       1.0  0.45460116350329116  0.1996273708773515  0.5174035612460274  1.0000
  C   C63       1.0  0.45458362484966136  0.6996250370153233  0.9825997186144731  1.0000
  C   C64       1.0  0.5454080724784803  0.19962740144953264  0.017394249608479104  1.0000
  C   C65       1.0  0.3900001246464271  0.6734263231907035  0.4848409352934695  1.0000
  C   C66       1.0  0.6100096753311988  0.17342810313289186  0.5151676182866112  1.0000
  C   C67       1.0  0.6099968454431276  0.6734290968351786  0.9848329720831686  1.0000
  C   C68       1.0  0.38999527828789826  0.17342810803331327  0.015163756804398102  1.0000
  C   C69       1.0  0.35943500357047503  0.5979112842076901  0.47276104946797665  1.0000
  C   C70       1.0  0.6405701334401002  0.0979145912059352  0.5272450277805376  1.0000
  C   C71       1.0  0.6405655788109073  0.5979128422024688  0.9727536089360457  1.0000
  C   C72       1.0  0.35942895247000456  0.09791358895179061  0.0272368812190606  1.0000
  C   C73       1.0  0.4819953739625121  0.5491784808792132  0.45642151223642463  1.0000
  C   C74       1.0  0.5180140914893768  0.04918160172083219  0.5435916885606744  1.0000
  C   C75       1.0  0.5180119293337101  0.5491776783674422  0.9564114436552275  1.0000
  C   C76       1.0  0.48198221675104946  0.0491807371938506  0.0435791827341845  1.0000
  C   C77       1.0  0.25885613666306273  0.726903149554332  0.4996733571135152  1.0000
  C   C78       1.0  0.7411492576487573  0.22690563760455967  0.5003318220578096  1.0000
  C   C79       1.0  0.7411363954342534  0.7269054759285892  0.9996685552832218  1.0000
  C   C80       1.0  0.2588525010222256  0.2269083125622089  0.0003307115386519001  1.0000
  N   N1        1.0  0.08098469386932551  0.3036431726793012  0.5860668106641569  1.0000
  N   N2        1.0  0.9190170945943877  0.80364091007133  0.4139338541023108  1.0000
  N   N3        1.0  0.9190321267650675  0.3036413732802927  0.0860718301370227  1.0000
  N   N4        1.0  0.0809625912298557  0.8036393752841279  0.9139299096078943  1.0000
  N   N5        1.0  0.2237579128565486  0.3030354028064295  0.6851829653566099  1.0000
  N   N6        1.0  0.7762450639361093  0.803030586758247  0.3148177011121334  1.0000
  N   N7        1.0  0.7762528095827576  0.3030307561586056  0.1851864415489999  1.0000
  N   N8        1.0  0.22373956154189048  0.8030263422354266  0.8148126124766222  1.0000
  N   N9        1.0  0.9150005461370655  0.4279285915314404  0.4413112317372594  1.0000
  N   N10       1.0  0.08500511141947699  0.9279326341452855  0.5586906980420494  1.0000
  N   N11       1.0  0.08501112045836119  0.4279253758855575  0.9413121226658417  1.0000
  N   N12       1.0  0.9149886450940912  0.9279275143190946  0.0586833572940506  1.0000
  N   N13       1.0  0.7644606532366752  0.5277602558614873  0.4397701561862561  1.0000
  N   N14       1.0  0.2355503392614935  0.0277620679106434  0.56023772962579  1.0000
  N   N15       1.0  0.2355529270783663  0.5277548596998827  0.9397645243498687  1.0000
  N   N16       1.0  0.7644474597670269  0.027758572922316198  0.0602277743819783  1.0000
  O   O1        1.0  0.8701105825794714  0.2970508238886893  0.8611234979245096  1.0000
  O   O2        1.0  0.1298901347682389  0.7970492895330495  0.1388723478955072  1.0000
  O   O3        1.0  0.12987392870392966  0.29704004622969643  0.3611149251042177  1.0000
  O   O4        1.0  0.8701173614320936  0.7970456190185544  0.6388836081684843  1.0000
  O   O5        1.0  0.7145473861318763  0.3508093306770519  0.943986071007224  1.0000
  O   O6        1.0  0.28546188362098945  0.8507980645019017  0.05600908705826411  1.0000
  O   O7        1.0  0.28543253430369486  0.350797466768931  0.4439784977928412  1.0000
  O   O8        1.0  0.7145590592528422  0.850804371439331  0.5560209601730222  1.0000
  O   O9        1.0  0.2821198746857618  0.7956670441286278  0.48766742965860743  1.0000
  O   O10       1.0  0.7178820435670018  0.29566902024335207  0.5123332573988861  1.0000
  O   O11       1.0  0.7178703859498513  0.7956666713524497  0.9876621016176443  1.0000
  O   O12       1.0  0.2821185697309616  0.29566939304402945  0.012336972984869004  1.0000
  O   O13       1.0  0.12790604683621612  0.7008371442498882  0.523106741700019  1.0000
  O   O14       1.0  0.8720997717450703  0.20083869945237606  0.47690012279723243  1.0000
  O   O15       1.0  0.87208676983461  0.7008388391264191  0.023104796588207  1.0000
  O   O16       1.0  0.12790019406762812  0.20084089451128756  0.9768972305338012  1.0000
