data_image0
_chemical_formula_structural       Ho4P2H38C22N2O32
_chemical_formula_sum              "Ho4 P2 H38 C22 N2 O32"
_cell_length_a       9.628206919218679
_cell_length_b       10.645756029122637
_cell_length_c       11.925567622634242
_cell_angle_alpha    70.4773912992812
_cell_angle_beta     68.95950517845306
_cell_angle_gamma    64.50509386131448

_space_group_name_H-M_alt    "P 1"
_space_group_IT_number       1

loop_
  _space_group_symop_operation_xyz
  'x, y, z'

loop_
  _atom_site_type_symbol
  _atom_site_label
  _atom_site_symmetry_multiplicity
  _atom_site_fract_x
  _atom_site_fract_y
  _atom_site_fract_z
  _atom_site_occupancy
  Ho  Ho1       1.0  0.9284814316274532  0.1895685255310511  0.25053713577329983  1.0000
  Ho  Ho2       1.0  0.07151820796055111  0.8104295763221999  0.7494659971756192  1.0000
  Ho  Ho3       1.0  0.5846331957345469  0.8375744794935043  0.215807277578314  1.0000
  Ho  Ho4       1.0  0.41536603908792813  0.16242478602399052  0.7841931374697282  1.0000
  P   P1        1.0  0.33450605773681735  0.1847596223985235  0.09860619368797789  1.0000
  P   P2        1.0  0.6654934777769342  0.815241694316846  0.9013952608374752  1.0000
  H   H1        1.0  0.13736522977716698  0.3991959239730534  0.24676461589502457  1.0000
  H   H2        1.0  0.8626344124907774  0.6008022769452951  0.7532359725264899  1.0000
  H   H3        1.0  0.46033279413959605  0.3487766094331732  0.07943332345711694  1.0000
  H   H4        1.0  0.5396652201330809  0.6512259159251457  0.9205648751189203  1.0000
  H   H5        1.0  0.27691185057901885  0.4395370363467279  0.03516085223348139  1.0000
  H   H6        1.0  0.7230844413689964  0.5604612664860585  0.9648389702181887  1.0000
  H   H7        1.0  0.17802335121416485  0.6161639795630834  0.13688233558465865  1.0000
  H   H8        1.0  0.8219672498153374  0.38383759791688027  0.8631173590798227  1.0000
  H   H9        1.0  0.35919097764987373  0.5518938230379861  0.1837469125581066  1.0000
  H   H10       1.0  0.6408024648597745  0.44811203105389547  0.8162491517518762  1.0000
  H   H11       1.0  0.13185153664807087  0.7082501842435251  0.32177992306118597  1.0000
  H   H12       1.0  0.8681371330149473  0.29175356741343716  0.6782188868078052  1.0000
  H   H13       1.0  0.020716556384272132  0.6024639590798132  0.35008793308253416  1.0000
  H   H14       1.0  0.9792817692178487  0.3975288886704648  0.6499161489396955  1.0000
  H   H15       1.0  0.14219627692128256  0.5311108921941  0.5239977546578628  1.0000
  H   H16       1.0  0.8578173778353745  0.46889136670095155  0.47599864666401714  1.0000
  H   H17       1.0  0.3338984979536121  0.504262655292024  0.4229550509605176  1.0000
  H   H18       1.0  0.6661086617133379  0.49574540370888115  0.5770306977176104  1.0000
  H   H19       1.0  0.12305637953219414  0.33191113899526675  0.471858801214033  1.0000
  H   H20       1.0  0.8769540227256057  0.6680877758002025  0.5281444497920802  1.0000
  H   H21       1.0  0.3013164938886702  0.26986475957522066  0.5161079794720963  1.0000
  H   H22       1.0  0.6986967543158257  0.7301385969406696  0.4838874003005103  1.0000
  H   H23       1.0  0.453819571405802  0.3054514369525024  0.2960833822944124  1.0000
  H   H24       1.0  0.5461829168088385  0.6945512056862597  0.7039093348935952  1.0000
  H   H25       1.0  0.34551463009530886  0.19200507805115313  0.3267270419475707  1.0000
  H   H26       1.0  0.6544852096829742  0.8079984219488879  0.6732720593520867  1.0000
  H   H27       1.0  0.3337230250278223  0.7673668169198323  0.4515130719068169  1.0000
  H   H28       1.0  0.6662796686553847  0.23262929692960904  0.5484855466555274  1.0000
  H   H29       1.0  0.40691147348744017  0.8509010348621403  0.4840443126388011  1.0000
  H   H30       1.0  0.5930889818848255  0.1490949708145237  0.5159583188812533  1.0000
  H   H31       1.0  0.26311172321245374  0.9649267935194245  0.1946949390765839  1.0000
  H   H32       1.0  0.73688914317853  0.03506827964489641  0.8053044731137362  1.0000
  H   H33       1.0  0.2884729384537578  0.8026974349402566  0.2347830847827197  1.0000
  H   H34       1.0  0.7115301635682342  0.19729764733173744  0.765214858977295  1.0000
  H   H35       1.0  0.007037526093597513  0.2061146882722937  0.99240617666878  1.0000
  H   H36       1.0  0.99295784599591  0.793888925599191  0.007592468788288916  1.0000
  H   H37       1.0  0.09325800127399479  0.29082551611115554  0.0012653194266789836  1.0000
  H   H38       1.0  0.9067427601494201  0.7091727388935781  0.9987332625159836  1.0000
  C   C1        1.0  0.3362565689969442  0.35556435162880723  0.10386465541543542  1.0000
  C   C2        1.0  0.6637401303965405  0.6444328866048324  0.896135340409714  1.0000
  C   C3        1.0  0.237673187105834  0.5509101417212037  0.21098929385631485  1.0000
  C   C4        1.0  0.7623200570001598  0.44909038026729337  0.789009105751326  1.0000
  C   C5        1.0  0.1429661516623141  0.5980046918082922  0.33179451710008573  1.0000
  C   C6        1.0  0.8570289188426018  0.4019968378436189  0.668203937055381  1.0000
  C   C7        1.0  0.21732350415925333  0.49776808340576645  0.437505419865012  1.0000
  C   C8        1.0  0.782684263061867  0.502232184076469  0.5624914926157275  1.0000
  C   C9        1.0  0.23918307744904868  0.34429684765686375  0.4456116513044108  1.0000
  C   C10       1.0  0.7608269218298388  0.6557032968462481  0.5543871854492226  1.0000
  C   C11       1.0  0.3343114398248516  0.29981528469192403  0.3239613054384379  1.0000
  C   C12       1.0  0.665691046603165  0.700187291903447  0.6760331081011728  1.0000
  C   C13       1.0  0.7066880305946198  0.010524162896366806  0.30798600361016787  1.0000
  C   C14       1.0  0.29330806473635807  0.9894688738764261  0.6920144577875647  1.0000
  C   C15       1.0  0.8301679882965161  0.9825261959200449  0.1839909308633735  1.0000
  C   C16       1.0  0.16982973681635366  0.017462582456175796  0.81601022402824  1.0000
  C   C17       1.0  0.8216484818095537  0.5178789839837706  0.2543592956807571  1.0000
  C   C18       1.0  0.1783481980126567  0.4821296528387932  0.7456443379336123  1.0000
  C   C19       1.0  0.6710563093775334  0.5010334737251939  0.2509002872707313  1.0000
  C   C20       1.0  0.32893661625251985  0.49897646169774384  0.7490990142971228  1.0000
  C   C21       1.0  0.044785919340469556  0.9334116115478966  0.4711060565536726  1.0000
  C   C22       1.0  0.9552243850146735  0.06657862419528024  0.5289046008767642  1.0000
  N   N1        1.0  0.2536824719928745  0.39971169348077507  0.2238221274468515  1.0000
  N   N2        1.0  0.7463160511195924  0.6002864533511885  0.7761804674535214  1.0000
  O   O1        1.0  0.19046534579327093  0.15409331002141616  0.19874467361887577  1.0000
  O   O2        1.0  0.8095326640128491  0.845909050228407  0.8012577658361622  1.0000
  O   O3        1.0  0.4893234436323014  0.0686275261794336  0.12155656415122705  1.0000
  O   O4        1.0  0.510669994410783  0.9313781628039525  0.8784437410377566  1.0000
  O   O5        1.0  0.3100844827457648  0.21873789129806923  0.9699967432987648  1.0000
  O   O6        1.0  0.6899121098935336  0.7812624627325846  0.030004118630323363  1.0000
  O   O7        1.0  0.6055968384520724  0.9499190771060879  0.34769637284561145  1.0000
  O   O8        1.0  0.3944033020174942  0.0500864740918203  0.652303767931457  1.0000
  O   O9        1.0  0.7178574377194166  0.0918862485476311  0.35910769893924066  1.0000
  O   O10       1.0  0.2821424002722494  0.9081171854090047  0.6408930987120129  1.0000
  O   O11       1.0  0.8201614491413238  0.9009694380414288  0.1336964876192681  1.0000
  O   O12       1.0  0.1798406209081023  0.0990338729360829  0.8663062343048865  1.0000
  O   O13       1.0  0.931356373353317  0.04387818880732652  0.14417399610135104  1.0000
  O   O14       1.0  0.06865119010427623  0.9561165484413297  0.8558303407318562  1.0000
  O   O15       1.0  0.8082553615766487  0.6374362993150058  0.2628874409583517  1.0000
  O   O16       1.0  0.19174519876317214  0.3625565245212386  0.7371160208093672  1.0000
  O   O17       1.0  0.9480366500152965  0.40784746165849134  0.2484085938824521  1.0000
  O   O18       1.0  0.051964013505468566  0.5921421142939424  0.7515973944845343  1.0000
  O   O19       1.0  0.5474837669314354  0.6108432754183754  0.25239693741455227  1.0000
  O   O20       1.0  0.45252126199047643  0.3891494675681245  0.7476061320199533  1.0000
  O   O21       1.0  0.6861652750386894  0.37774455628142084  0.2468651367841304  1.0000
  O   O22       1.0  0.31383772916223757  0.622253972004586  0.7531251913218071  1.0000
  O   O23       1.0  0.04945205603622322  0.9514967898283403  0.36015905092324363  1.0000
  O   O24       1.0  0.9505474830507766  0.048504658973826116  0.6398390108990029  1.0000
  O   O25       1.0  0.10760223188047749  0.8161201614283655  0.5402891502109454  1.0000
  O   O26       1.0  0.8924044135052256  0.18387995290238732  0.45971231327605006  1.0000
  O   O27       1.0  0.4257611113477606  0.7977403629648094  0.4229143198035743  1.0000
  O   O28       1.0  0.5742407656578833  0.20225781403951262  0.5770856483634362  1.0000
  O   O29       1.0  0.34191105981955167  0.8696029840539552  0.18333816885020573  1.0000
  O   O30       1.0  0.6580897016038632  0.13039527095077835  0.8166604130924499  1.0000
  O   O31       1.0  0.98526970743449  0.2852454559170781  0.029483436802529073  1.0000
  O   O32       1.0  0.0147284100191313  0.7147538215574233  0.9705172883727756  1.0000
