data_image0
_chemical_formula_structural       Zn2H16C33BrN3O8
_chemical_formula_sum              "Zn2 H16 C33 Br1 N3 O8"
_cell_length_a       9.98605011144858
_cell_length_b       10.951251326634878
_cell_length_c       10.989485886563
_cell_angle_alpha    92.86572937381428
_cell_angle_beta     91.40826004590923
_cell_angle_gamma    90.23008484694401

_space_group_name_H-M_alt    "P 1"
_space_group_IT_number       1

loop_
  _space_group_symop_operation_xyz
  'x, y, z'

loop_
  _atom_site_type_symbol
  _atom_site_label
  _atom_site_symmetry_multiplicity
  _atom_site_fract_x
  _atom_site_fract_y
  _atom_site_fract_z
  _atom_site_occupancy
  Zn  Zn1       1.0  0.6402841209909556  0.5032241863744176  0.5008363575202708  1.0000
  Zn  Zn2       1.0  0.35573069443984207  0.4980139733255412  0.4959716975700985  1.0000
  H   H1        1.0  0.5549758068981135  0.8983901579880327  0.6855209238442868  1.0000
  H   H2        1.0  0.7601516370210037  0.4792506141992375  0.7908449501287579  1.0000
  H   H3        1.0  0.4362605052741061  0.7641959600683067  0.2745941173097819  1.0000
  H   H4        1.0  0.4022778427539394  0.866693076712188  0.0816051142124508  1.0000
  H   H5        1.0  0.9673004833580594  0.5193624703231378  0.9126189553720891  1.0000
  H   H6        1.0  0.4246259201830044  0.09426249750475789  0.0771109062331803  1.0000
  H   H7        1.0  0.953985473873168  0.5899789902097865  0.1325144655499315  1.0000
  H   H8        1.0  0.28968176424956493  0.48467370288434347  0.8774152677701679  1.0000
  H   H9        1.0  0.47683536497893214  0.2179338221037028  0.2661241363519835  1.0000
  H   H10       1.0  0.7359949130046318  0.5886906708744987  0.23352958878255242  1.0000
  H   H11       1.0  0.5701801386358697  0.12574441905213257  0.6827461612779686  1.0000
  H   H12       1.0  0.2845629775105394  0.48846781343022627  0.1059354522739611  1.0000
  H   H13       1.0  0.25341153817807094  0.6474185868911916  0.6689522433813835  1.0000
  H   H14       1.0  0.13441924930916832  0.7953794247363817  0.8039487764396469  1.0000
  H   H15       1.0  0.8857316619086152  0.8145080960654738  0.7882899590187621  1.0000
  H   H16       1.0  0.7548917155720859  0.6803099672090765  0.6413771613007242  1.0000
  C   C1        1.0  0.4939822789589386  0.5021705717975422  0.7348956720818407  1.0000
  C   C2        1.0  0.3788959952622691  0.49875727793983043  0.0595450053171689  1.0000
  C   C3        1.0  0.5440689969336391  0.07198734093329759  0.5992145179982771  1.0000
  C   C4        1.0  0.5183759075160312  0.13091945648050538  0.4927948389094183  1.0000
  C   C5        1.0  0.4954262724228613  0.5159189857281774  0.1295340231775484  1.0000
  C   C6        1.0  0.14512413507044644  0.6540728360246747  0.663301089806211  1.0000
  C   C7        1.0  0.07765797898779431  0.7370356279437827  0.7377754752040389  1.0000
  C   C8        1.0  0.5030487683544039  0.7379229948353155  0.4975938232662998  1.0000
  C   C9        1.0  0.9368995294790072  0.7478988464716707  0.7291324657943576  1.0000
  C   C10       1.0  0.8631931810687307  0.6735726268677809  0.6476412445751693  1.0000
  C   C11       1.0  0.9288947374787497  0.5856340524718675  0.5719382798498529  1.0000
  C   C12       1.0  0.0728133479912429  0.5778789633171825  0.5775213786423308  1.0000
  C   C13       1.0  0.06527933203823011  0.42457289322084074  0.4244701645078592  1.0000
  C   C14       1.0  0.4856845222413925  0.5078900779614415  0.2648574378123669  1.0000
  C   C15       1.0  0.5207519709688386  0.267682196359182  0.497767448089057  1.0000
  C   C16       1.0  0.9211989347553244  0.42650884842419146  0.4241372870957747  1.0000
  C   C17       1.0  0.4454532636166564  0.8633827774919712  0.273152451118186  1.0000
  C   C18       1.0  0.7547148186884132  0.5033193511100293  0.8874968194459355  1.0000
  C   C19       1.0  0.4256824024852507  0.9209297894977834  0.1654794307496843  1.0000
  C   C20       1.0  0.8702820444952768  0.5267743838765783  0.9559095777722463  1.0000
  C   C21       1.0  0.43725457155076713  0.0496144434551908  0.1631945505744596  1.0000
  C   C22       1.0  0.863118898720316  0.5632567420862172  0.0805180736122821  1.0000
  C   C23       1.0  0.4659993411365378  0.1190820224116322  0.2688542659741557  1.0000
  C   C24       1.0  0.5352682573294488  0.9436689496600791  0.6007010562088695  1.0000
  C   C25       1.0  0.7415492533106729  0.5631431901480893  0.1370605135167509  1.0000
  C   C26       1.0  0.48560700054081724  0.06290023746136342  0.3817881708996467  1.0000
  C   C27       1.0  0.6212345299311937  0.5298520119588375  0.0713360910570273  1.0000
  C   C28       1.0  0.477339630128583  0.9320022721193764  0.38334892822022243  1.0000
  C   C29       1.0  0.6262843617257092  0.5111384437998863  0.9406968400172105  1.0000
  C   C30       1.0  0.3821864738566277  0.4939850782788397  0.9318294761795088  1.0000
  C   C31       1.0  0.5029091063400557  0.8748137385640291  0.49522584627923294  1.0000
  C   C32       1.0  0.5023517280535047  0.4995438892822008  0.8714496431583642  1.0000
  C   C33       1.0  0.8494519499370555  0.33999249912503166  0.34537676321728134  1.0000
  Br  Br1       1.0  0.1474111214072096  0.3137405041018012  0.3147976488587574  1.0000
  N   N1        1.0  0.13819456167320252  0.497124889139151  0.4995620290345286  1.0000
  N   N2        1.0  0.8560029841005133  0.506726547063451  0.49571340787915125  1.0000
  N   N3        1.0  0.7975606473511975  0.2668819771961353  0.278987761146233  1.0000
  O   O1        1.0  0.5966012729861634  0.5390130579910632  0.6799411895584556  1.0000
  O   O2        1.0  0.6297742717641699  0.32144053070723533  0.5317511094756142  1.0000
  O   O3        1.0  0.5896686954087826  0.47254556579277807  0.322255238802434  1.0000
  O   O4        1.0  0.37312655161904473  0.5317691384672256  0.3130835327502055  1.0000
  O   O5        1.0  0.41156992749886  0.31983587444570105  0.4690179685248026  1.0000
  O   O6        1.0  0.613830308728659  0.6862666923559786  0.47287906027707294  1.0000
  O   O7        1.0  0.38254925007042584  0.4725980340132735  0.6818266786757335  1.0000
  O   O8        1.0  0.39528016986692904  0.6845494944576841  0.5246097223267299  1.0000
