data_image0
_chemical_formula_structural       Zn8H32C20O28
_chemical_formula_sum              "Zn8 H32 C20 O28"
_cell_length_a       9.621645784705077
_cell_length_b       9.806562984346495
_cell_length_c       10.655763988976291
_cell_angle_alpha    102.10480176786326
_cell_angle_beta     97.76299653177111
_cell_angle_gamma    110.27850986841065

_space_group_name_H-M_alt    "P 1"
_space_group_IT_number       1

loop_
  _space_group_symop_operation_xyz
  'x, y, z'

loop_
  _atom_site_type_symbol
  _atom_site_label
  _atom_site_symmetry_multiplicity
  _atom_site_fract_x
  _atom_site_fract_y
  _atom_site_fract_z
  _atom_site_occupancy
  Zn  Zn1       1.0  0.3873744407206558  0.8894520333452716  0.18784978872638186  1.0000
  Zn  Zn2       1.0  0.6126282394617704  0.11054831165336047  0.8121512411987267  1.0000
  Zn  Zn3       1.0  0.12893260064411283  0.8721103254723486  0.338545315499033  1.0000
  Zn  Zn4       1.0  0.8710696251506747  0.12788888863076406  0.6614554482369994  1.0000
  Zn  Zn5       1.0  0.49287522342112305  0.19900567623924553  0.43014903144365485  1.0000
  Zn  Zn6       1.0  0.5071227897981102  0.8009935729730625  0.569848446797799  1.0000
  Zn  Zn7       1.0  0.22162321191407838  0.19437805410041875  0.5612655796615086  1.0000
  Zn  Zn8       1.0  0.778372247535877  0.8056200862035463  0.43873046053363385  1.0000
  H   H1        1.0  0.8934791722513677  0.9225027064982282  0.2819637775792358  1.0000
  H   H2        1.0  0.10652604788805317  0.07749873854358208  0.7180377486120617  1.0000
  H   H3        1.0  0.08246511446547088  0.06969346444890329  0.9512871201217833  1.0000
  H   H4        1.0  0.9175360271078005  0.9303057384848752  0.04871070323532924  1.0000
  H   H5        1.0  0.997912018428138  0.17504304007932342  0.14880619350414995  1.0000
  H   H6        1.0  0.0020861149882163634  0.8249539230505927  0.8511899256175751  1.0000
  H   H7        1.0  0.04255667099722863  0.2959536696889342  0.044847647403393864  1.0000
  H   H8        1.0  0.95744028562504  0.7040455860843832  0.9551487740193776  1.0000
  H   H9        1.0  0.1453983943719166  0.45008316211422533  0.2667896811971673  1.0000
  H   H10       1.0  0.8545955955302843  0.5499138804507236  0.7332078613305837  1.0000
  H   H11       1.0  0.3093886494845106  0.5345502923463523  0.12734603896901575  1.0000
  H   H12       1.0  0.6906012480392574  0.4654444992454002  0.872646858944428  1.0000
  H   H13       1.0  0.5083370290123667  0.44988311464101804  0.07044475192771664  1.0000
  H   H14       1.0  0.4916639412280545  0.5501207047833813  0.9295604985694509  1.0000
  H   H15       1.0  0.46984374211359625  0.3212298735081516  0.1658968780823216  1.0000
  H   H16       1.0  0.5301551287451854  0.6787739679034314  0.8341072005576177  1.0000
  H   H17       1.0  0.2457655973399965  0.3053289069746085  0.9257709394525263  1.0000
  H   H18       1.0  0.7542370552178709  0.6946714202936873  0.07422820691234479  1.0000
  H   H19       1.0  0.6694349137557578  0.4576427051916807  0.3568792181841259  1.0000
  H   H20       1.0  0.33056279289752405  0.5423531447730454  0.6431185183087677  1.0000
  H   H21       1.0  0.6937056642202959  0.32150669394241743  0.27325360679382266  1.0000
  H   H22       1.0  0.3062931128422192  0.6784891583264708  0.7267461282978616  1.0000
  H   H23       1.0  0.159330167645919  0.6752287369176314  0.5193692971954319  1.0000
  H   H24       1.0  0.8406716313857885  0.3247693640202839  0.4806330839117691  1.0000
  H   H25       1.0  0.01571725317219117  0.7148239365302017  0.5320535048535645  1.0000
  H   H26       1.0  0.9842854546347934  0.28517642619876676  0.46794940863178863  1.0000
  H   H27       1.0  0.25884867299029674  0.7002723578247084  0.29007288873018666  1.0000
  H   H28       1.0  0.741153432607369  0.29972914236079606  0.7099292341255745  1.0000
  H   H29       1.0  0.6383073633176649  0.052082587398714984  0.2987760202460378  1.0000
  H   H30       1.0  0.36169574362783397  0.9479188707651073  0.7012233923079092  1.0000
  H   H31       1.0  0.35444084546152504  0.011908397626434895  0.5430235940522292  1.0000
  H   H32       1.0  0.6455637586563012  0.9880941760067324  0.45697619972935377  1.0000
  C   C1        1.0  0.21428183835848807  0.05465539562360528  0.11799357092183269  1.0000
  C   C2        1.0  0.785718047660417  0.9453484126314675  0.8820087391964151  1.0000
  C   C3        1.0  0.1674664031797732  0.15141822259019477  0.03909406751182589  1.0000
  C   C4        1.0  0.8325347522057738  0.8485809892087486  0.9609046976254091  1.0000
  C   C5        1.0  0.09152031167526076  0.24632948599985835  0.11366266628428429  1.0000
  C   C6        1.0  0.9084797733010458  0.7536697234949299  0.8863341002541529  1.0000
  C   C7        1.0  0.2043447067675216  0.37692027263922495  0.23108949085808203  1.0000
  C   C8        1.0  0.795651234694631  0.6230790162905957  0.7689086990863812  1.0000
  C   C9        1.0  0.34716939045815554  0.4698343664314206  0.18808406516480144  1.0000
  C   C10       1.0  0.652824878385438  0.5301660576507671  0.8119113355512652  1.0000
  C   C11       1.0  0.41723724684332797  0.375338616511378  0.10525499716437278  1.0000
  C   C12       1.0  0.5827611696278223  0.6246640940046855  0.8947488152864905  1.0000
  C   C13       1.0  0.29760159248245793  0.2521645846802939  0.989937242193022  1.0000
  C   C14       1.0  0.7024030254476441  0.7478379978180454  0.010063493368676301  1.0000
  C   C15       1.0  0.24861587590849862  0.318279780094528  0.3450299807575234  1.0000
  C   C16       1.0  0.7513828873417339  0.6817160633091885  0.6549688125540454  1.0000
  C   C17       1.0  0.46208312227818016  0.5901207657275334  0.3071219899381885  1.0000
  C   C18       1.0  0.537905079115859  0.4098775091551586  0.6928760703274361  1.0000
  C   C19       1.0  0.36225757814520415  0.15986100019320293  0.8988606034527676  1.0000
  C   C20       1.0  0.6377470397848909  0.8401415823051364  0.10114013210893798  1.0000
  O   O1        1.0  0.1337659435166927  0.006614304801409799  0.19610876874486385  1.0000
  O   O2        1.0  0.8662300255700188  0.9933850018587476  0.8038913047598442  1.0000
  O   O3        1.0  0.33047536969747426  0.025213246233576604  0.09722347090342959  1.0000
  O   O4        1.0  0.6695292896694625  0.9747893628602712  0.9027800899986358  1.0000
  O   O5        1.0  0.3803388309451207  0.31479351489235796  0.36296068885958727  1.0000
  O   O6        1.0  0.6196653049727842  0.6852079189801187  0.6370378969527976  1.0000
  O   O7        1.0  0.15469881628829535  0.2785648268982398  0.4178730261352398  1.0000
  O   O8        1.0  0.8452982605311019  0.721432142792686  0.5821220361678099  1.0000
  O   O9        1.0  0.4071328885109933  0.6646723138080614  0.38575793529244595  1.0000
  O   O10       1.0  0.5928600309819672  0.3353247264527254  0.6142376086365073  1.0000
  O   O11       1.0  0.6030974408505897  0.6138284561979217  0.3219837024680884  1.0000
  O   O12       1.0  0.3968966152233122  0.386176557779386  0.6780163000476732  1.0000
  O   O13       1.0  0.5081929355957086  0.21342935541694164  0.9169385476182298  1.0000
  O   O14       1.0  0.4918152444545923  0.7865687327504386  0.08307299974139676  1.0000
  O   O15       1.0  0.27154329076858363  0.04375804422706149  0.8089073804411199  1.0000
  O   O16       1.0  0.7284601089305979  0.9562468043191782  0.19109083208125804  1.0000
  O   O17       1.0  0.3046051747228232  0.05003151433592019  0.47614898935032096  1.0000
  O   O18       1.0  0.6953985206197256  0.9499687975062012  0.5238502720530958  1.0000
  O   O19       1.0  0.21510192416823753  0.7492977039795857  0.2333233294112062  1.0000
  O   O20       1.0  0.7849001399925867  0.2507037696104104  0.7666759681041808  1.0000
  O   O21       1.0  0.5540067632009594  0.03987888119980448  0.34582478144390894  1.0000
  O   O22       1.0  0.44599876350441275  0.9601259630895806  0.6541764864959486  1.0000
  O   O23       1.0  0.0925535476432982  0.7179417555238312  0.47892269184659125  1.0000
  O   O24       1.0  0.9074490399665649  0.2820608932875287  0.5210815807584837  1.0000
  O   O25       1.0  0.9294416079631701  0.8727104455547233  0.343059223144948  1.0000
  O   O26       1.0  0.07055924085642569  0.12728536699665227  0.6569398002437266  1.0000
  O   O27       1.0  0.6947496770885876  0.3694784518991127  0.36349979427846074  1.0000
  O   O28       1.0  0.30524849776460167  0.6305185378263117  0.6364991501836313  1.0000
