data_image0
_chemical_formula_structural       Zn2H36C44N12O14
_chemical_formula_sum              "Zn2 H36 C44 N12 O14"
_cell_length_a       8.632546386904464
_cell_length_b       9.992937380937857
_cell_length_c       12.8686
_cell_angle_alpha    94.69714431187735
_cell_angle_beta     101.51064122078301
_cell_angle_gamma    92.51714191190041

_space_group_name_H-M_alt    "P 1"
_space_group_IT_number       1

loop_
  _space_group_symop_operation_xyz
  'x, y, z'

loop_
  _atom_site_type_symbol
  _atom_site_label
  _atom_site_symmetry_multiplicity
  _atom_site_fract_x
  _atom_site_fract_y
  _atom_site_fract_z
  _atom_site_occupancy
  Zn  Zn1       1.0  0.3803222302250617  0.24040887074323788  0.37831552651703504  1.0000
  Zn  Zn2       1.0  0.6196766250794425  0.7595912710015822  0.621683863013395  1.0000
  H   H1        1.0  0.19266130317338787  0.5952517845066367  0.5451349387266191  1.0000
  H   H2        1.0  0.8073374059634872  0.4047463452464298  0.4548627491249278  1.0000
  H   H3        1.0  0.0623638815895902  0.7205415290373621  0.678904143246811  1.0000
  H   H4        1.0  0.9376361558981329  0.27945861270745803  0.32109385036309135  1.0000
  H   H5        1.0  0.0293613827231951  0.359571094386105  0.8353254623501555  1.0000
  H   H6        1.0  0.9706411652985948  0.6404310593504617  0.16467610360943746  1.0000
  H   H7        1.0  0.1646401790522134  0.23767759193671617  0.7047695222524127  1.0000
  H   H8        1.0  0.8353609675349176  0.7623215438122273  0.295231664194695  1.0000
  H   H9        1.0  0.8904922011927638  0.6982738102961432  0.8113646922968272  1.0000
  H   H10       1.0  0.10951034682902622  0.3017283434404305  0.1886353194921568  1.0000
  H   H11       1.0  0.8974862696215595  0.5522625626874103  0.8847756061571062  1.0000
  H   H12       1.0  0.10251495004938958  0.4477375790574101  0.11522332278821068  1.0000
  H   H13       1.0  0.7886393189411294  0.7314767042222314  0.9529679778673454  1.0000
  H   H14       1.0  0.21136064546278277  0.26852243152671207  0.0470307190737387  1.0000
  H   H15       1.0  0.9319915903068434  0.0381393156953749  0.21226402753115542  1.0000
  H   H16       1.0  0.0680083740970616  0.9618598200535685  0.7877362235805448  1.0000
  H   H17       1.0  0.2866741335715446  0.8417630262408053  0.07302385999041414  1.0000
  H   H18       1.0  0.7133259039161787  0.158237115504015  0.9269764648754163  1.0000
  H   H19       1.0  0.555603571206774  0.2563428394417784  0.1585995333750461  1.0000
  H   H20       1.0  0.4443965393647602  0.7436583082989188  0.8414016423302259  1.0000
  H   H21       1.0  0.5958572452041794  0.2232324971363937  0.6184240224961783  1.0000
  H   H22       1.0  0.4041403548332951  0.7767666386125498  0.3815766892006423  1.0000
  H   H23       1.0  0.6366388566969335  0.4055008421543107  0.02582291531495429  1.0000
  H   H24       1.0  0.36336236297401575  0.5944992995905096  0.9741775678009787  1.0000
  H   H25       1.0  0.6476317463043273  0.5825772424501351  0.06460491215945302  1.0000
  H   H26       1.0  0.3523683642672069  0.41742390529056184  0.9353962635458188  1.0000
  H   H27       1.0  0.6745205049589912  0.07592653283374058  0.3185720786579438  1.0000
  H   H28       1.0  0.3254808608795727  0.9240756209028334  0.681428551966242  1.0000
  H   H29       1.0  0.05410572593705609  0.1269536617115747  0.4549058384712978  1.0000
  H   H30       1.0  0.9458931293674481  0.8730464800332455  0.5450943281444367  1.0000
  H   H31       1.0  0.9403984471115905  0.9858015159344047  0.37889546439095767  1.0000
  H   H32       1.0  0.0596004812767248  0.014199631806292199  0.6211047759789139  1.0000
  H   H33       1.0  0.342231146911729  0.5446602518436165  0.331547838762866  1.0000
  H   H34       1.0  0.6577688905759942  0.4553398899012038  0.668453263188276  1.0000
  H   H35       1.0  0.5310802711322538  0.9911031142071067  0.1628087911945144  1.0000
  H   H36       1.0  0.46891976635546934  0.0088970275377136  0.8371915336713159  1.0000
  C   C1        1.0  0.2648950594580128  0.3319756214793799  0.5410560245649592  1.0000
  C   C2        1.0  0.7351049780297103  0.6680245202654405  0.458942746130262  1.0000
  C   C3        1.0  0.1884980002209815  0.40997551181597197  0.6188605007698413  1.0000
  C   C4        1.0  0.8115007089159008  0.5900226179370947  0.38113796416701723  1.0000
  C   C5        1.0  0.15908682837972782  0.5460203582695584  0.6105248984369993  1.0000
  C   C6        1.0  0.8409106985739285  0.4539777714835082  0.3894726311644519  1.0000
  C   C7        1.0  0.08699365065300668  0.6149501897775593  0.684662452812219  1.0000
  C   C8        1.0  0.9130051315676795  0.3850489459713842  0.31533608587876927  1.0000
  C   C9        1.0  0.0419199358735725  0.5485816237728399  0.7668326093097804  1.0000
  C   C10       1.0  0.9580789925147428  0.4514195239678571  0.23316763106009122  1.0000
  C   C11       1.0  0.067873813472211  0.41207301321988143  0.7730720146330371  1.0000
  C   C12       1.0  0.9321262970993303  0.5879281345208156  0.22692838398692317  1.0000
  C   C13       1.0  0.1419392006359104  0.3434731483595925  0.7002211107339064  1.0000
  C   C14       1.0  0.858059581584783  0.656525987389351  0.29977898212769827  1.0000
  C   C15       1.0  0.9673416707130116  0.6226772441101218  0.8479025685620911  1.0000
  C   C16       1.0  0.0326596220417414  0.3773239036305752  0.1520979883079718  1.0000
  C   C17       1.0  0.043271251235943  0.7761077113130028  0.0040032946189682795  1.0000
  C   C18       1.0  0.9567310775344069  0.2238914244359407  0.9959964959076189  1.0000
  C   C19       1.0  0.8840826347803767  0.7896645117537844  0.008285464717928938  1.0000
  C   C20       1.0  0.11591732962353518  0.21033462399515904  0.9917140093084668  1.0000
  C   C21       1.0  0.6729681403484662  0.8941160576847551  0.08679850030024032  1.0000
  C   C22       1.0  0.32703189713925696  0.1058840840600652  0.9132002703949809  1.0000
  C   C23       1.0  0.8438863209689131  0.8828458858727899  0.08458887887115202  1.0000
  C   C24       1.0  0.1561160808852478  0.1171542558720304  0.9154125395801813  1.0000
  C   C25       1.0  0.9621003540154263  0.9622139306023312  0.15554966676923954  1.0000
  C   C26       1.0  0.0378995373046749  0.0377841991507353  0.8444497335030192  1.0000
  C   C27       1.0  0.12170370967402988  0.9471571903086868  0.1518881565652066  1.0000
  C   C28       1.0  0.8782951456304673  0.052842951436133496  0.8481120100505278  1.0000
  C   C29       1.0  0.16286506535691098  0.8533138709025037  0.07715295712382189  1.0000
  C   C30       1.0  0.8371360812302201  0.14668526484643957  0.9228466751526696  1.0000
  C   C31       1.0  0.24733167859920968  0.03811114781081669  0.22467527305848026  1.0000
  C   C32       1.0  0.7526694679879213  0.9618879879381267  0.7753251363033157  1.0000
  C   C33       1.0  0.5099517704358192  0.34842164207940124  0.18754270647352914  1.0000
  C   C34       1.0  0.490048267051904  0.6515784996654188  0.8124576183923083  1.0000
  C   C35       1.0  0.6543366173682372  0.1840358797741075  0.556247327754015  1.0000
  C   C36       1.0  0.34566098266923007  0.8159632559748359  0.44375338394280567  1.0000
  C   C37       1.0  0.5691751250108013  0.4908012445715427  0.0458365554133309  1.0000
  C   C38       1.0  0.43082498556073295  0.5091999031691543  0.9541638432066364  1.0000
  C   C39       1.0  0.6888051432383689  0.1091435107021042  0.4023969582789491  1.0000
  C   C40       1.0  0.3111949673331652  0.8908576370385929  0.5976034403410111  1.0000
  C   C41       1.0  0.9670871018440934  0.0443885620843716  0.45666514274795855  1.0000
  C   C42       1.0  0.0329130087274407  0.9556125856563256  0.5433352558720088  1.0000
  C   C43       1.0  0.4013893483992277  0.4985675327433157  0.2721590322658329  1.0000
  C   C44       1.0  0.5986107621723064  0.5014336149973815  0.7278413663541343  1.0000
  N   N1        1.0  0.44122554820427945  0.3673142446527038  0.2715402326819998  1.0000
  N   N2        1.0  0.5587744892834436  0.6326858970921094  0.7284608692691421  1.0000
  N   N3        1.0  0.4410003098717469  0.5609020552805716  0.19345612410434398  1.0000
  N   N4        1.0  0.5589997276159763  0.4390980864642486  0.8065442007614863  1.0000
  N   N5        1.0  0.5105619084754309  0.46382948910866156  0.1407824088290965  1.0000
  N   N6        1.0  0.4894393842793292  0.5361716586320355  0.8592189251262711  1.0000
  N   N7        1.0  0.8010815575807797  0.1444680499331525  0.5743027187873437  1.0000
  N   N8        1.0  0.19891729772371747  0.8555320918116678  0.4256982249137025  1.0000
  N   N9        1.0  0.5811905196519335  0.16540785411650208  0.45090356673041043  1.0000
  N   N10       1.0  0.4188095178357898  0.8345922876283183  0.5490967581354198  1.0000
  N   N11       1.0  0.8200372031695409  0.09723553750401238  0.4754871998327418  1.0000
  N   N12       1.0  0.1799628343181823  0.9027646042408077  0.5245131250330886  1.0000
  O   O1        1.0  0.29138207808144045  0.21012839484033918  0.5517820064074357  1.0000
  O   O2        1.0  0.7086155219560341  0.7898707409086043  0.4482171511187616  1.0000
  O   O3        1.0  0.29943634856087437  0.3923997578458867  0.46259817589685076  1.0000
  O   O4        1.0  0.700562579827441  0.6076013898948105  0.5374012873877093  1.0000
  O   O5        1.0  0.0923742088323323  0.6912590010446209  0.9298727275896682  1.0000
  O   O6        1.0  0.9076269377547989  0.30874013470432254  0.07012690468682344  1.0000
  O   O7        1.0  0.5657669913402189  0.8199832155000165  0.03007353268935733  1.0000
  O   O8        1.0  0.43423311923132246  0.1800179322406805  0.9699268659306101  1.0000
  O   O9        1.0  0.6470540822846971  0.9921996497132213  0.157427986478595  1.0000
  O   O10       1.0  0.3529458821192152  0.0077994860357222  0.8425722646331053  1.0000
  O   O11       1.0  0.3911435484013097  0.0327149859256579  0.2189899650353624  1.0000
  O   O12       1.0  0.6088575981858212  0.9672841498232855  0.7810112214117454  1.0000
  O   O13       1.0  0.2002129498085452  0.1232274529825261  0.2909687059587753  1.0000
  O   O14       1.0  0.799785978579763  0.876773694758171  0.7090307573257847  1.0000
