data_image0
_chemical_formula_structural       Zn4H57C84S3N21O9
_chemical_formula_sum              "Zn4 H57 C84 S3 N21 O9"
_cell_length_a       18.749118498017907
_cell_length_b       19.332275056644566
_cell_length_c       19.970290500426497
_cell_angle_alpha    103.27950168874004
_cell_angle_beta     103.70921376030905
_cell_angle_gamma    114.0096626994038

_space_group_name_H-M_alt    "P 1"
_space_group_IT_number       1

loop_
  _space_group_symop_operation_xyz
  'x, y, z'

loop_
  _atom_site_type_symbol
  _atom_site_label
  _atom_site_symmetry_multiplicity
  _atom_site_fract_x
  _atom_site_fract_y
  _atom_site_fract_z
  _atom_site_occupancy
  Zn  Zn1       1.0  0.8790328872238858  0.8851834911346471  0.5038452946937327  1.0000
  Zn  Zn2       1.0  0.11440038102217906  0.1104879312064497  0.4871760174574291  1.0000
  Zn  Zn3       1.0  0.082717546471919  0.9998532904049923  0.5868039982619422  1.0000
  Zn  Zn4       1.0  0.9099868917405871  0.009942460429428533  0.39896903617398044  1.0000
  H   H1        1.0  0.8486266170949365  0.7875653573802666  0.6233734205334259  1.0000
  H   H2        1.0  0.6277118820994831  0.3086875948822652  0.620837120715052  1.0000
  H   H3        1.0  0.14872018190458652  0.29093703366503115  0.47846398870794365  1.0000
  H   H4        1.0  0.759230781742886  0.31209384447200245  0.6238016199337082  1.0000
  H   H5        1.0  0.7364610532490233  0.9919057947274225  0.6170846028577089  1.0000
  H   H6        1.0  0.6085116829264052  0.9332797484094468  0.6406263834012975  1.0000
  H   H7        1.0  0.4745931197966939  0.9311654621784909  0.6376792576552647  1.0000
  H   H8        1.0  0.9411035184119074  0.6363416568570842  0.31453871523812893  1.0000
  H   H9        1.0  0.09515662671550729  0.7519528389974398  0.546325466290746  1.0000
  H   H10       1.0  0.1304216320138494  0.5429908290255694  0.615883656271734  1.0000
  H   H11       1.0  0.15154014292325257  0.13625281951589585  0.7414431855593335  1.0000
  H   H12       1.0  0.3262573479322626  0.17396200863075956  0.5259070901257203  1.0000
  H   H13       1.0  0.9453492720537612  0.28850554683755547  0.3110978772175272  1.0000
  H   H14       1.0  0.8994437401261807  0.3655942719471881  0.24454706131389517  1.0000
  H   H15       1.0  0.9008608796947686  0.49461808353254366  0.24569005745797776  1.0000
  H   H16       1.0  0.6785993601376532  0.7677224925709966  0.1357018277510846  1.0000
  H   H17       1.0  0.31734376679271054  0.2226440162286636  0.7734224073287876  1.0000
  H   H18       1.0  0.5033880238797934  0.552311649162661  0.9415910533159606  1.0000
  H   H19       1.0  0.6159482654177213  0.49218847655493647  0.13312230872377034  1.0000
  H   H20       1.0  0.6875452569438211  0.6071411634765127  0.2520767645636824  1.0000
  H   H21       1.0  0.8706286713377623  0.13652252450645364  0.4936285490984887  1.0000
  H   H22       1.0  0.5430173520467249  0.433604186500169  0.0008324094961337858  1.0000
  H   H23       1.0  0.13785687080166298  0.8832129065219831  0.5078043087971267  1.0000
  H   H24       1.0  0.6122927595558353  0.6546018253874379  0.017933877597947512  1.0000
  H   H25       1.0  0.3821566799045897  0.5095223732080925  0.854885921602758  1.0000
  H   H26       1.0  0.11994914155835804  0.8607383879177417  0.8010981215781641  1.0000
  H   H27       1.0  0.1752250201590257  0.9533636686060804  0.2682683481743026  1.0000
  H   H28       1.0  0.12320673773675853  0.8304921325346654  0.020773080634434428  1.0000
  H   H29       1.0  0.8570103232202014  0.7210449997783215  0.8441594336563014  1.0000
  H   H30       1.0  0.9296606684565277  0.7126397473417612  0.06311761325838461  1.0000
  H   H31       1.0  0.8515608357857405  0.7616782642002775  0.7357869459262434  1.0000
  H   H32       1.0  0.17739201489877843  0.2779833768720792  0.6008522186228333  1.0000
  H   H33       1.0  0.9299146969689291  0.7322221104386345  0.9602307159295764  1.0000
  H   H34       1.0  0.8972601799735288  0.866024064250297  0.2645535688844803  1.0000
  H   H35       1.0  0.12567519838230368  0.8216482651321966  0.9097758525135475  1.0000
  H   H36       1.0  0.18754013787583554  0.9040769424886648  0.14860141719360345  1.0000
  H   H37       1.0  0.8636896887667833  0.9968680198630647  0.6357229576580538  1.0000
  H   H38       1.0  0.8785928859097824  0.1564622865790568  0.3652696124775119  1.0000
  H   H39       1.0  0.11754937184728928  0.9489711630804859  0.7343581249213358  1.0000
  H   H40       1.0  0.22046561150246194  0.9574071266152726  0.6509187780818664  1.0000
  H   H41       1.0  0.3257634152995905  0.008178189567509276  0.6835672958742621  1.0000
  H   H42       1.0  0.9818566154712871  0.283800758233376  0.70858404727489  1.0000
  H   H43       1.0  0.0733289701516142  0.7031840973827098  0.6949394235538763  1.0000
  H   H44       1.0  0.052049600506968816  0.32822172413169426  0.557393062771844  1.0000
  H   H45       1.0  0.16659304772114333  0.9951734586531269  0.3862152104910948  1.0000
  H   H46       1.0  0.07582958115660428  0.4226493217522956  0.607485127851895  1.0000
  H   H47       1.0  0.2570143787718919  0.46830826122846486  0.7507640334623319  1.0000
  H   H48       1.0  0.18696023547317966  0.369934596538421  0.6988774091407848  1.0000
  H   H49       1.0  0.45383046090672263  0.2647320283024541  0.8494739868538874  1.0000
  H   H50       1.0  0.5272818602055339  0.36256820840189624  0.8980691263150435  1.0000
  H   H51       1.0  0.9061329060351042  0.7525634394891796  0.2377597788812054  1.0000
  H   H52       1.0  0.8615701840042009  0.693129822662584  0.14678067133304756  1.0000
  H   H53       1.0  0.5792053610929032  0.6451687540484912  0.34488724244690877  1.0000
  H   H54       1.0  0.8695127920023185  0.7258930268123577  0.39102396304972603  1.0000
  H   H55       1.0  0.7686275959032969  0.8717045606574774  0.23352184657983346  1.0000
  H   H56       1.0  0.3837489488557467  0.9906824747052028  0.6161026381774947  1.0000
  H   H57       1.0  0.4801824655969185  0.23431434576371396  0.6143919338712607  1.0000
  C   C1        1.0  0.9142724934988778  0.8333105892327453  0.6424755872345003  1.0000
  C   C2        1.0  0.9329843528141597  0.7763820834365306  0.42193000736605785  1.0000
  C   C3        1.0  0.7637460110758667  0.8488408338512912  0.27799098437414227  1.0000
  C   C4        1.0  0.08264883601812302  0.24534068603751538  0.45061678756921714  1.0000
  C   C5        1.0  0.2711378218752643  0.0529213492327116  0.6175560736422199  1.0000
  C   C6        1.0  0.7253081326063937  0.7674871585980014  0.27339269630091684  1.0000
  C   C7        1.0  0.3371943103644099  0.10289011622769094  0.5990770445419925  1.0000
  C   C8        1.0  0.009139714631452002  0.7748160718431976  0.43935376691442235  1.0000
  C   C9        1.0  0.03582721270099402  0.9069664580919506  0.2992842503349564  1.0000
  C   C10       1.0  0.4357251821814075  0.04783136879950693  0.6221918614382533  1.0000
  C   C11       1.0  0.4215037449615125  0.11230473615243845  0.6149266318135816  1.0000
  C   C12       1.0  0.013008802583804898  0.2563471837000435  0.4246450652433397  1.0000
  C   C13       1.0  0.48910370914199325  0.1827642362800077  0.6183445454395341  1.0000
  C   C14       1.0  0.5675622615356062  0.18784550185425516  0.6248804030918649  1.0000
  C   C15       1.0  0.5804349002833791  0.12123504657864002  0.6303949067150896  1.0000
  C   C16       1.0  0.1468897221236247  0.1592661121131584  0.6966869602118706  1.0000
  C   C17       1.0  0.5134073663732508  0.05109886292570552  0.6308117417420434  1.0000
  C   C18       1.0  0.635978671825562  0.25665063299373964  0.6241109342404627  1.0000
  C   C19       1.0  0.7101036716116412  0.25845446039251385  0.6255387126182086  1.0000
  C   C20       1.0  0.7236491181695898  0.19068123475978646  0.627519292444859  1.0000
  C   C21       1.0  0.6571143796665665  0.12252997614100272  0.6315810092809784  1.0000
  C   C22       1.0  0.6657082875706595  0.052875323916652145  0.6334396002157447  1.0000
  C   C23       1.0  0.19377079148274126  0.23849967979186454  0.6988402688973068  1.0000
  C   C24       1.0  0.5994449278152845  0.9850549854562515  0.6380515402824969  1.0000
  C   C25       1.0  0.5258915389009434  0.9838950385332977  0.6363242104570264  1.0000
  C   C26       1.0  0.7953392119062174  0.18435633018334846  0.6210871086777915  1.0000
  C   C27       1.0  0.7981142671359365  0.11058396979502302  0.6122732143174403  1.0000
  C   C28       1.0  0.873687191903464  0.09506098856753184  0.5212552385055744  1.0000
  C   C29       1.0  0.7350469635110388  0.04878232134268515  0.623342733351173  1.0000
  C   C30       1.0  0.9759654967623774  0.6336615489127483  0.3652314471170471  1.0000
  C   C31       1.0  0.018326287311687388  0.7019475057913594  0.43093371095622507  1.0000
  C   C32       1.0  0.0640135920324028  0.6985320256809117  0.49565444934449243  1.0000
  C   C33       1.0  0.0644307338942838  0.6268239191061865  0.4972358159147774  1.0000
  C   C34       1.0  0.8520294586341991  0.0854003424805398  0.5826633982272967  1.0000
  C   C35       1.0  0.019515886827555604  0.5559807445966101  0.4303784310326435  1.0000
  C   C36       1.0  0.9764094605062184  0.5607538025718456  0.3633488905831541  1.0000
  C   C37       1.0  0.1042547652445975  0.6179844458022713  0.5636011420850977  1.0000
  C   C38       1.0  0.09820474121845993  0.544849540091441  0.5637489341589585  1.0000
  C   C39       1.0  0.0542852996379537  0.4741728566815906  0.49754589286482803  1.0000
  C   C40       1.0  0.15936184267420833  0.2321788647409733  0.625675765438004  1.0000
  C   C41       1.0  0.015987988199889  0.48096580609475126  0.43004541455724177  1.0000
  C   C42       1.0  0.9730773118052696  0.4122298545328674  0.3622320571380939  1.0000
  C   C43       1.0  0.9321018608168997  0.41899012948751846  0.29585770148577234  1.0000
  C   C44       1.0  0.9331441236182628  0.49019325585311424  0.2964190463736216  1.0000
  C   C45       1.0  0.7414842536492117  0.7783171756332549  0.3494889406062213  1.0000
  C   C46       1.0  0.0481178901548986  0.39818069841064124  0.49697040363584943  1.0000
  C   C47       1.0  0.0120799095663173  0.33262861335431637  0.42804879315973215  1.0000
  C   C48       1.0  0.9743748372789371  0.3403902406655988  0.36321038671380285  1.0000
  C   C49       1.0  0.6852924351201041  0.6965977370722031  0.2044161632873625  1.0000
  C   C50       1.0  0.6649157531955865  0.7074227731706271  0.13615466289022035  1.0000
  C   C51       1.0  0.6264998160048307  0.6429418919740684  0.06903231360527684  1.0000
  C   C52       1.0  0.8693542701671716  0.023657726611410967  0.5937440479087428  1.0000
  C   C53       1.0  0.6038401236669984  0.5626814160180659  0.06570321652421288  1.0000
  C   C54       1.0  0.6297629236195946  0.5529322072099064  0.13354274686389542  1.0000
  C   C55       1.0  0.6692155218384104  0.6179044848134224  0.20121047261725516  1.0000
  C   C56       1.0  0.2989932650496884  0.13400175875823817  0.5538087167941301  1.0000
  C   C57       1.0  0.4087890230250154  0.3442422263709941  0.849527783423902  1.0000
  C   C58       1.0  0.33113142133477425  0.28597961756859286  0.7935049431340959  1.0000
  C   C59       1.0  0.29034583177247714  0.3877932501843801  0.7800149746364369  1.0000
  C   C60       1.0  0.36747719844161253  0.44585207290233336  0.8363501949775414  1.0000
  C   C61       1.0  0.42663578364048493  0.4267278746458415  0.8739344756513462  1.0000
  C   C62       1.0  0.5494871102168801  0.49142439195566107  0.9977211677504769  1.0000
  C   C63       1.0  0.4976755797369989  0.4927884959323591  0.9379715406812608  1.0000
  C   C64       1.0  0.9450692153525253  0.17678666453385738  0.3917992710935609  1.0000
  C   C65       1.0  0.2710820324883443  0.3051821588734143  0.7590903046753966  1.0000
  C   C66       1.0  0.9856489090019451  0.8172495411787323  0.7613445388075135  1.0000
  C   C67       1.0  0.06987682280565374  0.8560531586884607  0.48340698968043216  1.0000
  C   C68       1.0  0.061912610484157006  0.8305584004827506  0.8105409845522403  1.0000
  C   C69       1.0  0.0650611259375538  0.8080953358465663  0.8719616447321741  1.0000
  C   C70       1.0  0.9919176066240354  0.77108013487981  0.8874913458230508  1.0000
  C   C71       1.0  0.9149293836435817  0.7512863816401776  0.834498769261039  1.0000
  C   C72       1.0  0.9117946011409404  0.7741124003091215  0.7732876831141198  1.0000
  C   C73       1.0  0.9844472153579389  0.7653880092314934  0.10825758701265908  1.0000
  C   C74       1.0  0.977503513942132  0.7911863461955306  0.17670640729410544  1.0000
  C   C75       1.0  0.12175903455928962  0.8990760960515872  0.22374179659584575  1.0000
  C   C76       1.0  0.0515078573600718  0.9147199375201395  0.6982627455706663  1.0000
  C   C77       1.0  0.12881035544380384  0.8717480733850279  0.15627352863596408  1.0000
  C   C78       1.0  0.961357168468851  0.9056056784378439  0.3036620897379335  1.0000
  C   C79       1.0  0.05771860362538919  0.8076558502004189  0.09529034527622572  1.0000
  C   C80       1.0  0.9924278212617993  0.761858010888723  0.9577794280410574  1.0000
  C   C81       1.0  0.06045910053032341  0.7969946958569166  0.021568241265754327  1.0000
  C   C82       1.0  0.04571111538785999  0.8636145578559038  0.23475472528139107  1.0000
  C   C83       1.0  0.9838620788237691  0.8512502674786475  0.7033247997921848  1.0000
  C   C84       1.0  0.0991079218214352  0.971981045445048  0.36470105602763436  1.0000
  S   S1        1.0  0.880706483744021  0.2703299172409928  0.6200791651469545  1.0000
  S   S2        1.0  0.16642903098955486  0.7026093203553077  0.648777372617488  1.0000
  S   S3        1.0  0.7127808411011286  0.7148141043419398  0.3989561110963535  1.0000
  N   N1        1.0  0.9387747369129614  0.8820253598573372  0.6046330172299365  1.0000
  N   N2        1.0  0.09139866950926738  0.10954012144871678  0.6271032552257054  1.0000
  N   N3        1.0  0.8989752707678067  0.04149567644183358  0.49710673977689623  1.0000
  N   N4        1.0  0.0993770455632372  0.154365732342022  0.5828736123163978  1.0000
  N   N5        1.0  0.8965663966774785  0.9976327261749985  0.5418537180902945  1.0000
  N   N6        1.0  0.9722108062868814  0.12297822530128134  0.3980255632887051  1.0000
  N   N7        1.0  0.023931398301804997  0.9327152744336117  0.6394928142972773  1.0000
  N   N8        1.0  0.7866439166197312  0.8583964269807185  0.39363817556456854  1.0000
  N   N9        1.0  0.2726256460947951  0.012136549979636875  0.6664746833552115  1.0000
  N   N10       1.0  0.0779220271269025  0.38765683181880917  0.5622989580135851  1.0000
  N   N11       1.0  0.23176931699227774  0.4102138504289385  0.7491334594038079  1.0000
  N   N12       1.0  0.21768618391892863  0.1046436861728779  0.5447372785871067  1.0000
  N   N13       1.0  0.46567356185387604  0.32043826701239186  0.8810246216717275  1.0000
  N   N14       1.0  0.901721969862301  0.7498785240923382  0.18543890740911464  1.0000
  N   N15       1.0  0.0319544832093754  0.9018463109965039  0.4922403482408413  1.0000
  N   N16       1.0  0.9797327001139708  0.9657864766269738  0.3654264951979444  1.0000
  N   N17       1.0  0.0641763539914635  0.006516930411656596  0.4028142604007385  1.0000
  N   N18       1.0  0.947610614582949  0.8526429904972158  0.45487399652304816  1.0000
  N   N19       1.0  0.8003165612166897  0.9012605821649727  0.3490728253661431  1.0000
  N   N20       1.0  0.20051131358542318  0.05441943402502864  0.584883163269815  1.0000
  N   N21       1.0  0.058098703410152594  0.16564324932779328  0.4343733997236612  1.0000
  O   O1        1.0  0.8743191701261637  0.2623685100578471  0.5451246199156402  1.0000
  O   O2        1.0  0.8931840448606964  0.34432660839915735  0.6710182343277894  1.0000
  O   O3        1.0  0.9623130339095312  0.26084702731677095  0.6544347428989781  1.0000
  O   O4        1.0  0.19331748041292235  0.6748984642102868  0.7061608538914897  1.0000
  O   O5        1.0  0.2258419095863076  0.7699079142619354  0.6371587023819246  1.0000
  O   O6        1.0  0.10109330874390572  0.7323564054537072  0.6664932047689334  1.0000
  O   O7        1.0  0.7128645701790931  0.6396962056617995  0.3691682164603663  1.0000
  O   O8        1.0  0.7605948147638629  0.7652651008553805  0.47700856249668533  1.0000
  O   O9        1.0  0.61772744404923  0.6938368209743687  0.3896622678745488  1.0000
