data_image0
_chemical_formula_structural       Cd2H16C20I4N4Cl4
_chemical_formula_sum              "Cd2 H16 C20 I4 N4 Cl4"
_cell_length_a       4.1708635387144675
_cell_length_b       12.38015000950764
_cell_length_c       14.517686825193824
_cell_angle_alpha    90.00056678828247
_cell_angle_beta     90.00004723717979
_cell_angle_gamma    85.4811704048012

_space_group_name_H-M_alt    "P 1"
_space_group_IT_number       1

loop_
  _space_group_symop_operation_xyz
  'x, y, z'

loop_
  _atom_site_type_symbol
  _atom_site_label
  _atom_site_symmetry_multiplicity
  _atom_site_fract_x
  _atom_site_fract_y
  _atom_site_fract_z
  _atom_site_occupancy
  Cd  Cd1       1.0  0.9999934595886085  0.9999994095799211  0.9999979621396449  1.0000
  Cd  Cd2       1.0  0.9999977891759142  0.4999968115343166  0.5000023358965748  1.0000
  H   H1        1.0  0.7791681278607925  0.8976474098431526  0.8030116525342239  1.0000
  H   H2        1.0  0.7791822108952003  0.397638113621511  0.6969933911785448  1.0000
  H   H3        1.0  0.22081111376499504  0.10235056155786283  0.19698286552718966  1.0000
  H   H4        1.0  0.22084549033272788  0.6023560149415631  0.3030183472326017  1.0000
  H   H5        1.0  0.9564492172907466  0.10476715748824722  0.5715024638688533  1.0000
  H   H6        1.0  0.9564887166754872  0.604759470606709  0.9284994136868365  1.0000
  H   H7        1.0  0.04357097501966217  0.8952294907114294  0.4284948094396769  1.0000
  H   H8        1.0  0.0435126553258058  0.3952535830674935  0.0715019925824762  1.0000
  H   H9        1.0  0.1750588121219039  0.23400875976422955  0.6834748308741466  1.0000
  H   H10       1.0  0.1750783663454882  0.7339991979282918  0.8165221915288114  1.0000
  H   H11       1.0  0.8249665860478999  0.7659845892292695  0.3165238200497953  1.0000
  H   H12       1.0  0.8249095874641625  0.2660059399541055  0.18347370419051862  1.0000
  H   H13       1.0  0.17896752069720628  0.18834662506859706  0.8523403868964579  1.0000
  H   H14       1.0  0.17896440949066056  0.6883337447925585  0.6476576353615826  1.0000
  H   H15       1.0  0.821038553640399  0.8116477752802069  0.1476582640352646  1.0000
  H   H16       1.0  0.8210191382408851  0.3116682146991964  0.3523375715304696  1.0000
  C   C1        1.0  0.8663334360640745  0.9712904963770799  0.7742373839650442  1.0000
  C   C2        1.0  0.86635503904364  0.4712806356435949  0.7257627251141514  1.0000
  C   C3        1.0  0.13366022347175033  0.028707293806654405  0.22576126698286467  1.0000
  C   C4        1.0  0.13365023554804617  0.5287202423583041  0.2742448804390065  1.0000
  C   C5        1.0  0.8521244982091151  0.991948043332343  0.679744456561437  1.0000
  C   C6        1.0  0.8521470941651687  0.4919368563781676  0.8202572054836282  1.0000
  C   C7        1.0  0.14787366736200622  0.008052115517806201  0.3202507503205824  1.0000
  C   C8        1.0  0.1478619866528632  0.5080720581868621  0.1797462672121597  1.0000
  C   C9        1.0  0.9636679457642077  0.08709158583923943  0.6450698948668789  1.0000
  C   C10       1.0  0.963704602566594  0.5870822608322328  0.854933212044962  1.0000
  C   C11       1.0  0.03634714065409383  0.9129075518584814  0.354924623192943  1.0000
  C   C12       1.0  0.03629987223116869  0.41292509474639166  0.1450702606452197  1.0000
  C   C13       1.0  0.08300016389690507  0.15909322769180534  0.7078124378573989  1.0000
  C   C14       1.0  0.0830262487137006  0.6590873396969386  0.792187444003055  1.0000
  C   C15       1.0  0.9170133193353609  0.8408994626401098  0.2921869018809247  1.0000
  C   C16       1.0  0.916961405206699  0.34092022732999555  0.20781602869099916  1.0000
  C   C17       1.0  0.08702049533393111  0.13399685499967262  0.8013244762700467  1.0000
  C   C18       1.0  0.08702226434495938  0.6339869388339425  0.6986724420264423  1.0000
  C   C19       1.0  0.9129830760387491  0.8659983852400615  0.1986714194057058  1.0000
  C   C20       1.0  0.9129635864194512  0.36601580018719926  0.3013289642031297  1.0000
  I   I1        1.0  0.4726133505797847  0.16912755728437648  0.0285010208249687  1.0000
  I   I2        1.0  0.4726115148899837  0.6691273634336027  0.47150478533778545  1.0000
  I   I3        1.0  0.5273751030916004  0.8308735320974991  0.9714948748775925  1.0000
  I   I4        1.0  0.5273922564501278  0.33086625744210363  0.5284973096659799  1.0000
  N   N1        1.0  0.9819691036400611  0.041318981086512004  0.8338112037951362  1.0000
  N   N2        1.0  0.981965228606086  0.5413136044095381  0.6661928969570781  1.0000
  N   N3        1.0  0.01802715881283487  0.9586771594740287  0.1661846918856327  1.0000
  N   N4        1.0  0.018033336889786297  0.4586833156964617  0.3338119533210886  1.0000
  Cl  Cl1       1.0  0.6973761429863005  0.8978659893057144  0.6074233464061791  1.0000
  Cl  Cl2       1.0  0.6974209961976071  0.3978545648902383  0.8925796618442092  1.0000
  Cl  Cl3       1.0  0.3026075047125402  0.10213516047790698  0.39257048285257673  1.0000
  Cl  Cl4       1.0  0.3025934904522956  0.6021494311126221  0.10743276542493162  1.0000
