data_image0
_chemical_formula_structural       Na2Er2H24C24O24
_chemical_formula_sum              "Na2 Er2 H24 C24 O24"
_cell_length_a       6.82710043069631
_cell_length_b       7.4456662391409045
_cell_length_c       15.586963617935396
_cell_angle_alpha    90.00054029531655
_cell_angle_beta     102.6538587733756
_cell_angle_gamma    90.00032193079873

_space_group_name_H-M_alt    "P 1"
_space_group_IT_number       1

loop_
  _space_group_symop_operation_xyz
  'x, y, z'

loop_
  _atom_site_type_symbol
  _atom_site_label
  _atom_site_symmetry_multiplicity
  _atom_site_fract_x
  _atom_site_fract_y
  _atom_site_fract_z
  _atom_site_occupancy
  Na  Na1       1.0  0.3585469446141616  0.7498951600004844  0.716974981316177  1.0000
  Na  Na2       1.0  0.6414556717176225  0.2498947824958861  0.2830234417915917  1.0000
  Er  Er1       1.0  0.19593986834073007  0.2500222582220175  0.3918591103096459  1.0000
  Er  Er2       1.0  0.8040477157829642  0.750009435638674  0.6081429922185462  1.0000
  H   H1        1.0  0.6330538204381354  0.7514851284100033  0.895829690873519  1.0000
  H   H2        1.0  0.36695183325011266  0.2514838445383489  0.1041639006878512  1.0000
  H   H3        1.0  0.2629716507279767  0.7486234277189182  0.8959037357407309  1.0000
  H   H4        1.0  0.7370324716723289  0.2486294684429495  0.10409097785127838  1.0000
  H   H5        1.0  0.7146767350552778  0.74581081183684  0.0597533061482451  1.0000
  H   H6        1.0  0.2853228645759244  0.2458106204816701  0.9402396741362791  1.0000
  H   H7        1.0  0.345102176943989  0.7542456168096338  0.0598392527418525  1.0000
  H   H8        1.0  0.6549064899411263  0.25425543332185896  0.9401578506115552  1.0000
  H   H9        1.0  0.43024440780173  0.732630019095481  0.41537935366963546  1.0000
  H   H10       1.0  0.5697430493039519  0.2326284265269294  0.5846168833198175  1.0000
  H   H11       1.0  0.9851554434878407  0.7674839731051931  0.4154130365643454  1.0000
  H   H12       1.0  0.014829297541503196  0.26745661828690703  0.5845869458449329  1.0000
  H   H13       1.0  0.256058013526129  0.8873855677363734  0.2994488731324551  1.0000
  H   H14       1.0  0.7439412837750294  0.387376410086091  0.7005517799184701  1.0000
  H   H15       1.0  0.043327057475416084  0.6126963571601749  0.2994434906621635  1.0000
  H   H16       1.0  0.9566608420640248  0.11269772409585949  0.70055673379413  1.0000
  H   H17       1.0  0.5165656746322043  0.4131488544212161  0.8037326030781742  1.0000
  H   H18       1.0  0.48346082827502096  0.9131383985234366  0.19628042156982417  1.0000
  H   H19       1.0  0.2873779019543079  0.0867221209416797  0.8036703273307423  1.0000
  H   H20       1.0  0.7126112813838075  0.586712875969745  0.19632797825280324  1.0000
  H   H21       1.0  0.2811839836003926  0.40065493192850715  0.7906315394430833  1.0000
  H   H22       1.0  0.7188363770157976  0.9006446310386736  0.20938789152270937  1.0000
  H   H23       1.0  0.5096306543238285  0.099229184027493  0.790568111766788  1.0000
  H   H24       1.0  0.49036913806984467  0.5992257364806902  0.20943320139250687  1.0000
  C   C1        1.0  0.8943748842266143  0.7500141194788129  0.788652317432799  1.0000
  C   C2        1.0  0.1056157313675072  0.25001085900817793  0.21134302103643415  1.0000
  C   C3        1.0  0.9432168345822161  0.7500098275588342  0.8862704724719777  1.0000
  C   C4        1.0  0.0567932994029974  0.2500164940549752  0.11372611188900089  1.0000
  C   C5        1.0  0.302881259648295  0.8138407847153174  0.4258388500916296  1.0000
  C   C6        1.0  0.6971129014024909  0.3138342884433243  0.5741596881831369  1.0000
  C   C7        1.0  0.12290080311664298  0.6861996166119225  0.42585651533836694  1.0000
  C   C8        1.0  0.8770802304967871  0.18618466869892097  0.5741427383609404  1.0000
  C   C9        1.0  0.3667764623148244  0.9130310446489673  0.5128457442175076  1.0000
  C   C10       1.0  0.6332275557681655  0.41301982901833156  0.4871567652671657  1.0000
  C   C11       1.0  0.1461006818417232  0.5869696474419256  0.5128476202412172  1.0000
  C   C12       1.0  0.8538854773281982  0.0869367646828252  0.4871561680401725  1.0000
  C   C13       1.0  0.7883377016931306  0.7498661596836341  0.9323099456948609  1.0000
  C   C14       1.0  0.21166643146550254  0.24986737412808682  0.06768477458678748  1.0000
  C   C15       1.0  0.1441229309598739  0.7501693348965192  0.9323491392843408  1.0000
  C   C16       1.0  0.8558811995679889  0.2501766357270085  0.0676468652631854  1.0000
  C   C17       1.0  0.035065551113426394  0.7499994754327659  0.07006379090923079  1.0000
  C   C18       1.0  0.9649415883103598  0.25001072939368635  0.9299305791491219  1.0000
  C   C19       1.0  0.8342554854412754  0.7475245240934496  0.02363897933357612  1.0000
  C   C20       1.0  0.1657456276454923  0.2475297776644112  0.976354796684518  1.0000
  C   C21       1.0  0.18944000718529708  0.7524478349876843  0.0236791180928719  1.0000
  C   C22       1.0  0.8105656310822694  0.2524511197725943  0.9763202504374532  1.0000
  C   C23       1.0  0.08415446371088109  0.7500448830303484  0.16824923126524274  1.0000
  C   C24       1.0  0.9158436609307046  0.25006067926666725  0.8317461919584941  1.0000
  O   O1        1.0  0.25153904237306784  0.9460914187472511  0.3581769353286433  1.0000
  O   O2        1.0  0.7484607747082134  0.4460824832450071  0.6418214691232363  1.0000
  O   O3        1.0  0.10638440827622726  0.5539380830846881  0.3581909255421961  1.0000
  O   O4        1.0  0.8935849459124512  0.053936628909482906  0.641812370425562  1.0000
  O   O5        1.0  0.39347464187242304  0.48500639151770747  0.7990088059414049  1.0000
  O   O6        1.0  0.6065494263678416  0.9849926484704878  0.2010177833723361  1.0000
  O   O7        1.0  0.4057008018155698  0.014852391100980399  0.7988940625408815  1.0000
  O   O8        1.0  0.5942937418586851  0.5148493299482055  0.20110956656387907  1.0000
  O   O9        1.0  0.7115092142893716  0.7581320366703109  0.7458781315737253  1.0000
  O   O10       1.0  0.28850548586624564  0.2581426630443672  0.25412085603294793  1.0000
  O   O11       1.0  0.03448298929633609  0.7418550102592647  0.7458816229820115  1.0000
  O   O12       1.0  0.9655300684095636  0.2418530940338925  0.2541171316321282  1.0000
  O   O13       1.0  0.47549763176549215  0.8304241792247566  0.5778090950656389  1.0000
  O   O14       1.0  0.5244876631955576  0.3304124663022918  0.42218930293123685  1.0000
  O   O15       1.0  0.10215772219466149  0.6694893078067565  0.5777929411858408  1.0000
  O   O16       1.0  0.897848689616964  0.16945404805830577  0.42220804889554125  1.0000
  O   O17       1.0  0.3071280771775661  0.07279851832013409  0.515851698554762  1.0000
  O   O18       1.0  0.6928865191401739  0.5727773195984937  0.484145793234866  1.0000
  O   O19       1.0  0.20897585545882433  0.42725680135810506  0.5158549159233558  1.0000
  O   O20       1.0  0.7910132554202602  0.9272495513935582  0.4841507077597099  1.0000
  O   O21       1.0  0.26237185796019696  0.7915168576614205  0.20929668484463088  1.0000
  O   O22       1.0  0.7376266105871563  0.2915430005274829  0.790702809928213  1.0000
  O   O23       1.0  0.9470147999047354  0.7085603398755893  0.20930005609911  1.0000
  O   O24       1.0  0.05297547740248379  0.20858689730694377  0.7906899284131795  1.0000
