data_image0
_chemical_formula_structural       Zn2H18C26N6O8
_chemical_formula_sum              "Zn2 H18 C26 N6 O8"
_cell_length_a       8.555601437500036
_cell_length_b       8.94101893407943
_cell_length_c       9.065744672712695
_cell_angle_alpha    113.85756975610246
_cell_angle_beta     100.0813014979879
_cell_angle_gamma    98.43951948017009

_space_group_name_H-M_alt    "P 1"
_space_group_IT_number       1

loop_
  _space_group_symop_operation_xyz
  'x, y, z'

loop_
  _atom_site_type_symbol
  _atom_site_label
  _atom_site_symmetry_multiplicity
  _atom_site_fract_x
  _atom_site_fract_y
  _atom_site_fract_z
  _atom_site_occupancy
  Zn  Zn1       1.0  0.22975581285557922  0.7532183812639061  0.7665455311961369  1.0000
  Zn  Zn2       1.0  0.7702445098725405  0.24678175012039816  0.2334566553860996  1.0000
  H   H1        1.0  0.21341004558543372  0.15321270857768346  0.23295857933326405  1.0000
  H   H2        1.0  0.7865902945120238  0.8467874491734474  0.7670403115727852  1.0000
  H   H3        1.0  0.39629853097196127  0.5889815387931916  0.9394972949035535  1.0000
  H   H4        1.0  0.6037000332963984  0.4110160724580893  0.0605024740336759  1.0000
  H   H5        1.0  0.4579289367429524  0.5914921400353137  0.22106853317433217  1.0000
  H   H6        1.0  0.5420699093047149  0.4085067226455265  0.7789328921966147  1.0000
  H   H7        1.0  0.39337960153984847  0.8231021251506546  0.4576943312248574  1.0000
  H   H8        1.0  0.6066210203369167  0.1768992840300427  0.5423062161149091  1.0000
  H   H9        1.0  0.2806466974325019  0.04447285178965639  0.4037825404370566  1.0000
  H   H10       1.0  0.7193536368751764  0.9555272971725369  0.5962174490277192  1.0000
  H   H11       1.0  0.13878747001113823  0.3326978125134303  0.14332388679258656  1.0000
  H   H12       1.0  0.8612116809749465  0.6673023367527404  0.8566748007771566  1.0000
  H   H13       1.0  0.0839308945932515  0.4164961164571679  0.9108714810458526  1.0000
  H   H14       1.0  0.916069445504199  0.583504041293963  0.08912740986018962  1.0000
  H   H15       1.0  0.1077406468558166  0.22440592993428504  0.6282145302352404  1.0000
  H   H16       1.0  0.8922596874518618  0.7755942190279085  0.3717854592295354  1.0000
  H   H17       1.0  0.17223393128851683  0.9478085096691797  0.5879069582752051  1.0000
  H   H18       1.0  0.8277640190066436  0.052191613534148494  0.4120937230757067  1.0000
  C   C1        1.0  0.3737367599207957  0.6875124871933023  0.04723291008049556  1.0000
  C   C2        1.0  0.6262635628073313  0.31248764419100183  0.9527692765017408  1.0000
  C   C3        1.0  0.40769351723517394  0.6894345603656403  0.20268151762533657  1.0000
  C   C4        1.0  0.5923041397011275  0.3105642938302394  0.7973197044093185  1.0000
  C   C5        1.0  0.3721518604609031  0.8189560471311025  0.33408272042338183  1.0000
  C   C6        1.0  0.6278472847354096  0.18104409334612365  0.6659170657050881  1.0000
  C   C7        1.0  0.30854793397257646  0.94078950002595  0.30508677597510564  1.0000
  C   C8        1.0  0.691452400335102  0.05921064893624359  0.6949132134896704  1.0000
  C   C9        1.0  0.2779487432557203  0.931108739402873  0.14273491898404692  1.0000
  C   C10       1.0  0.722051591051958  0.06889140955931339  0.857265070480729  1.0000
  C   C11       1.0  0.1883179266969037  0.09584507429577367  0.987705911651155  1.0000
  C   C12       1.0  0.8116812184994088  0.9041550661814596  0.012293874477322093  1.0000
  C   C13       1.0  0.1481315179116507  0.2520440368960521  0.019027800225522584  1.0000
  C   C14       1.0  0.8518691097548938  0.7479573810735829  0.9809716485555102  1.0000
  C   C15       1.0  0.11742454086758869  0.298139646711256  0.8906295891107308  1.0000
  C   C16       1.0  0.8825784650216945  0.7018617882282995  0.10937026634290697  1.0000
  C   C17       1.0  0.1291842241610652  0.19090166017857507  0.731562158217294  1.0000
  C   C18       1.0  0.8708161159363924  0.8090984975725561  0.2684367326887482  1.0000
  C   C19       1.0  0.16710533992080204  0.039755637353209694  0.7091970957052995  1.0000
  C   C20       1.0  0.8328947126075689  0.9602432601794177  0.290801237325759  1.0000
  C   C21       1.0  0.47156297673335246  0.5934514698658189  0.5979521058877708  1.0000
  C   C22       1.0  0.5284352611308947  0.4065499135560131  0.40204913333813164  1.0000
  C   C23       1.0  0.3825870924000014  0.42193382711410976  0.46856635492469684  1.0000
  C   C24       1.0  0.6174135294767638  0.5780675820665805  0.5314341924150627  1.0000
  C   C25       1.0  0.02254267540964608  0.5369272021098225  0.44048648948236757  1.0000
  C   C26       1.0  0.9774585546505393  0.4630716863298757  0.5595142440024503  1.0000
  N   N1        1.0  0.3086656666648935  0.8040059460749944  0.01598127175125798  1.0000
  N   N2        1.0  0.691334374283919  0.19599293387974367  0.9840192583972612  1.0000
  N   N3        1.0  0.2147088858441037  0.05550852767173349  0.1199562342559091  1.0000
  N   N4        1.0  0.7852926375749478  0.9444916297754132  0.8800439585451657  1.0000
  N   N5        1.0  0.19538856766865823  0.9905787556199925  0.8329901025463259  1.0000
  N   N6        1.0  0.8046105717378751  0.0094213760682962  0.16701078214088486  1.0000
  O   O1        1.0  0.4457526136841635  0.7117413093935808  0.7206072596750916  1.0000
  O   O2        1.0  0.5542465257223697  0.28825882229470784  0.27939362501211223  1.0000
  O   O3        1.0  0.24378410854714613  0.3254698685512024  0.4287676990235668  1.0000
  O   O4        1.0  0.7562165075398469  0.6745315318405429  0.5712339468749263  1.0000
  O   O5        1.0  0.13198929624375916  0.6724940178899103  0.503260836216036  1.0000
  O   O6        1.0  0.8680119396062053  0.32750487933873257  0.4967387987100481  1.0000
  O   O7        1.0  0.9458226242900097  0.4561315890204368  0.2866911721790332  1.0000
  O   O8        1.0  0.05417741665880271  0.5438672909343083  0.7133093579694858  1.0000
