data_image0
_chemical_formula_structural       Zn8C40O26F16
_chemical_formula_sum              "Zn8 C40 O26 F16"
_cell_length_a       17.25070966269634
_cell_length_b       17.250526322863134
_cell_length_c       17.250630623253613
_cell_angle_alpha    99.26413150615666
_cell_angle_beta     114.80356442391306
_cell_angle_gamma    114.80373635081116

_space_group_name_H-M_alt    "P 1"
_space_group_IT_number       1

loop_
  _space_group_symop_operation_xyz
  'x, y, z'

loop_
  _atom_site_type_symbol
  _atom_site_label
  _atom_site_symmetry_multiplicity
  _atom_site_fract_x
  _atom_site_fract_y
  _atom_site_fract_z
  _atom_site_occupancy
  Zn  Zn1       1.0  0.5889049174250759  0.7017989837869508  0.2907046761465892  1.0000
  Zn  Zn2       1.0  0.4110950803527942  0.2982010109529228  0.7092960392480734  1.0000
  Zn  Zn3       1.0  0.41109492191002067  0.11289681629911287  0.7017981324218354  1.0000
  Zn  Zn4       1.0  0.5889048815145372  0.8871043710790899  0.29820036654904675  1.0000
  Zn  Zn5       1.0  0.41109386580632895  0.7017981985202509  0.11289450541524812  1.0000
  Zn  Zn6       1.0  0.5889054947755026  0.29820114919419893  0.8871046811650486  1.0000
  Zn  Zn7       1.0  0.5889066269740367  0.2907041099123476  0.7018004338911011  1.0000
  Zn  Zn8       1.0  0.41109378657800744  0.7092956008299752  0.29820041328905234  1.0000
  C   C1        1.0  0.4999987160033826  0.5271421035740005  0.02714233550433683  1.0000
  C   C2        1.0  0.49999951014177674  0.09189088921552009  0.5918907792929601  1.0000
  C   C3        1.0  0.5000036713388595  0.4081124362546333  0.9081109051555316  1.0000
  C   C4        1.0  0.4999980166046  0.591888553617082  0.09189067854190112  1.0000
  C   C5        1.0  0.5000021507332946  0.9081079807252552  0.40811220407722726  1.0000
  C   C6        1.0  0.4999985385971186  0.6115095041685663  0.38849395182616325  1.0000
  C   C7        1.0  0.5000027606422464  0.388493926935304  0.6115119031916905  1.0000
  C   C8        1.0  0.2230149138890738  0.11150670723630901  0.6115073250914164  1.0000
  C   C9        1.0  0.5000025290975145  0.4728570503643255  0.9728605160803738  1.0000
  C   C10       1.0  0.7769829779497216  0.8884925912907422  0.3884947113264657  1.0000
  C   C11       1.0  0.49999979836050584  0.8884915085761735  0.11150942977742782  1.0000
  C   C12       1.0  0.500000420838731  0.11150940599558368  0.8884909418125346  1.0000
  C   C13       1.0  0.7769838072209441  0.38849212635951624  0.8884894604351175  1.0000
  C   C14       1.0  0.22301657926186647  0.6115054458000416  0.11150988502846106  1.0000
  C   C15       1.0  0.5000012083738312  0.027140558608067487  0.5271463159228986  1.0000
  C   C16       1.0  0.946921506723676  0.9068153441556462  0.4404885761619752  1.0000
  C   C17       1.0  0.053078491055380504  0.09318467669679363  0.5595162011777504  1.0000
  C   C18       1.0  0.4663304286491865  0.9598975687081934  0.9068153336933521  1.0000
  C   C19       1.0  0.5336697905495383  0.04010333467246603  0.09318329706301402  1.0000
  C   C20       1.0  0.05307629508822489  0.49355706985215864  0.9598969490055039  1.0000
  C   C21       1.0  0.9469205437796759  0.506441850725551  0.04010110570106222  1.0000
  C   C22       1.0  0.5336670927313278  0.44048574760369524  0.49356596271420017  1.0000
  C   C23       1.0  0.5000042215383615  0.972857901398264  0.47286051578892335  1.0000
  C   C24       1.0  0.4663342335764256  0.5595198034311082  0.5064384926308989  1.0000
  C   C25       1.0  0.5336708587360731  0.09318405884575748  0.04010273861637607  1.0000
  C   C26       1.0  0.46632913904078804  0.9068159135119205  0.9598944951110939  1.0000
  C   C27       1.0  0.9469178258429025  0.040102736255995815  0.5064345622965121  1.0000
  C   C28       1.0  0.05308070319193105  0.9598972092964786  0.49356900293574324  1.0000
  C   C29       1.0  0.4663339969377347  0.5064385000716173  0.5595175738149082  1.0000
  C   C30       1.0  0.5336664707526068  0.4935654841058864  0.44048569652051844  1.0000
  C   C31       1.0  0.05308015602244618  0.559523439329567  0.09318282481604716  1.0000
  C   C32       1.0  0.9469170715509063  0.44047306985892465  0.9068156007930241  1.0000
  C   C33       1.0  0.10884701309501574  0.05442661075964853  0.5544265405166513  1.0000
  C   C34       1.0  0.8911519317141624  0.9455730545256458  0.445577736778958  1.0000
  C   C35       1.0  0.4999994532520375  0.9455750329630989  0.05442272259831076  1.0000
  C   C36       1.0  0.5000018189164023  0.05442622225433521  0.9455758279243155  1.0000
  C   C37       1.0  0.891152593702323  0.44557594319771726  0.94557525284759  1.0000
  C   C38       1.0  0.10884590826243831  0.5544218451201602  0.054423909278767765  1.0000
  C   C39       1.0  0.5000014054188426  0.5544263919969126  0.44557946976754437  1.0000
  C   C40       1.0  0.5000013896332975  0.4455792380682199  0.5544267779628883  1.0000
  O   O1        1.0  0.4999993628311969  0.7499992932170231  0.25000071569731847  1.0000
  O   O2        1.0  0.5617085570667726  0.17841937395046162  0.6167107205380233  1.0000
  O   O3        1.0  0.4382934532690753  0.3832897636005086  0.8215834883140258  1.0000
  O   O4        1.0  0.5617069602833098  0.6167099546025483  0.17841851942185363  1.0000
  O   O5        1.0  0.5617089976227945  0.9449978253652065  0.38329255272735463  1.0000
  O   O6        1.0  0.4382920260565655  0.05500040501087975  0.6167100623841932  1.0000
  O   O7        1.0  0.5617101664923254  0.3832921573822858  0.9450008969180104  1.0000
  O   O8        1.0  0.4382913000297679  0.6167079126575532  0.05500103058412994  1.0000
  O   O9        1.0  0.4382905820938631  0.8215790576624755  0.3832893901248369  1.0000
  O   O10       1.0  0.5000002191723354  0.2500009817900378  0.7499992876340045  1.0000
  O   O11       1.0  0.42994548733418  0.6279226005532833  0.3619034699411258  1.0000
  O   O12       1.0  0.5700564491003847  0.3720814589241785  0.638101012501771  1.0000
  O   O13       1.0  0.2660199383875366  0.19798015350448855  0.6279243314986331  1.0000
  O   O14       1.0  0.7339804751651825  0.8020195721593026  0.3720788367929799  1.0000
  O   O15       1.0  0.5700505914403922  0.9319541972600476  0.19797524925171228  1.0000
  O   O16       1.0  0.4299474947505286  0.06804388251610761  0.8020249416448948  1.0000
  O   O17       1.0  0.7339812875392723  0.3619062963448201  0.9319574321619867  1.0000
  O   O18       1.0  0.2660189045909007  0.6380924833745354  0.06804201798927076  1.0000
  O   O19       1.0  0.7339804444273028  0.37207412534473866  0.8020216402036766  1.0000
  O   O20       1.0  0.2660186947331624  0.627924302537835  0.19797789018132766  1.0000
  O   O21       1.0  0.429941765462182  0.8020192746834098  0.06803993140898268  1.0000
  O   O22       1.0  0.5700569849930089  0.19798156831875247  0.9319598083513724  1.0000
  O   O23       1.0  0.26601923340445666  0.06804549054886173  0.6380952483882963  1.0000
  O   O24       1.0  0.7339776054636148  0.9319534337592119  0.3619033865961329  1.0000
  O   O25       1.0  0.5700553681391298  0.6380975357896475  0.3720801300165136  1.0000
  O   O26       1.0  0.42994631980585046  0.36190348765536845  0.6279266761817084  1.0000
  F   F1        1.0  0.8997209235661926  0.8176198691750758  0.3818048097689442  1.0000
  F   F2        1.0  0.4358153630698709  0.8176192860304994  0.9178960232117391  1.0000
  F   F3        1.0  0.899721127340207  0.08210140292891313  0.5179191196979217  1.0000
  F   F4        1.0  0.10027718027259189  0.9178976078702237  0.4820824682275744  1.0000
  F   F5        1.0  0.4358232849064478  0.5179238744918067  0.618201703623555  1.0000
  F   F6        1.0  0.5641759083923146  0.48207882682594067  0.3818002499167292  1.0000
  F   F7        1.0  0.10028124699261556  0.6182122860887916  0.18237764573867585  1.0000
  F   F8        1.0  0.8997185293635539  0.38178678135847127  0.8176222529049609  1.0000
  F   F9        1.0  0.10027782688984392  0.18238099247891884  0.6181978313807405  1.0000
  F   F10       1.0  0.43581771183260526  0.9178978424417252  0.8176206446850429  1.0000
  F   F11       1.0  0.5641843918845169  0.08210285224134141  0.18237932996427733  1.0000
  F   F12       1.0  0.1002771134324334  0.4820661808627166  0.9179052098700639  1.0000
  F   F13       1.0  0.8997195040144419  0.5179318273438439  0.08209434919693592  1.0000
  F   F14       1.0  0.56417649711819  0.38180042474500203  0.4820786329362292  1.0000
  F   F15       1.0  0.435823111955422  0.618202007496656  0.5179257735009913  1.0000
  F   F16       1.0  0.5641861034512061  0.18238076162714387  0.08210242262320822  1.0000
