data_image0
_chemical_formula_structural       Cd4H48C64N8O16
_chemical_formula_sum              "Cd4 H48 C64 N8 O16"
_cell_length_a       12.27093958700583
_cell_length_b       13.32792965300424
_cell_length_c       13.987421848011113
_cell_angle_alpha    90.0000916252251
_cell_angle_beta     89.99988854130426
_cell_angle_gamma    89.99999443244862

_space_group_name_H-M_alt    "P 1"
_space_group_IT_number       1

loop_
  _space_group_symop_operation_xyz
  'x, y, z'

loop_
  _atom_site_type_symbol
  _atom_site_label
  _atom_site_symmetry_multiplicity
  _atom_site_fract_x
  _atom_site_fract_y
  _atom_site_fract_z
  _atom_site_occupancy
  Cd  Cd1       1.0  0.2793083792160473  0.24999914823727923  0.9999998190247652  1.0000
  Cd  Cd2       1.0  0.7793072940505112  0.7499998427188003  0.4999998374356168  1.0000
  Cd  Cd3       1.0  0.22069320974163287  0.2500002302105386  0.49999993514540375  1.0000
  Cd  Cd4       1.0  0.7206918317706724  0.7500002666752861  0.9999998214372994  1.0000
  H   H1        1.0  0.030422167426102906  0.5207636191157762  0.0801266434672741  1.0000
  H   H2        1.0  0.1578726888308211  0.4450850913359262  0.25667295065203893  1.0000
  H   H3        1.0  0.935203639766286  0.6272160416572206  0.16440238306174854  1.0000
  H   H4        1.0  0.8318943859764119  0.7349928213140018  0.27793669948006544  1.0000
  H   H5        1.0  0.0007629933710831002  0.6246368313004211  0.5117280867009413  1.0000
  H   H6        1.0  0.11698485848663151  0.5149610393475968  0.4075900569621851  1.0000
  H   H7        1.0  0.0304212133675392  0.9792353840077439  0.9198743105794807  1.0000
  H   H8        1.0  0.15787217003034473  0.05491387418098981  0.7433277418702178  1.0000
  H   H9        1.0  0.9352036984234576  0.8727843799309055  0.8355970255225031  1.0000
  H   H10       1.0  0.831893892438359  0.7650068593505424  0.7220643154233244  1.0000
  H   H11       1.0  0.0007630063181381001  0.8753629248192424  0.4882722030785374  1.0000
  H   H12       1.0  0.11698544424798743  0.9850387062198606  0.5924093193694946  1.0000
  H   H13       1.0  0.5304210189667276  0.0207642448209739  0.4198732223695103  1.0000
  H   H14       1.0  0.6578735093797409  0.9450861958681857  0.24332734139490245  1.0000
  H   H15       1.0  0.4352034592953731  0.12721582043119642  0.3355969529060943  1.0000
  H   H16       1.0  0.3318944570363201  0.234993159067443  0.22206440635915925  1.0000
  H   H17       1.0  0.5007625083096556  0.12463682196564461  0.9882718553053564  1.0000
  H   H18       1.0  0.6169860653833655  0.014961113216180903  0.09240893728043183  1.0000
  H   H19       1.0  0.5304216325438277  0.47923618748104246  0.5801268338008327  1.0000
  H   H20       1.0  0.6578737759476  0.5549142508976459  0.756671825970429  1.0000
  H   H21       1.0  0.43520389722951347  0.3727838702113787  0.6644032659055201  1.0000
  H   H22       1.0  0.3318962845148691  0.2650072912589891  0.7779367038426203  1.0000
  H   H23       1.0  0.5007627620957253  0.3753636130290303  0.0117282515251773  1.0000
  H   H24       1.0  0.6169851379336607  0.4850393112268208  0.907590971028938  1.0000
  H   H25       1.0  0.4695794848254239  0.9792358281083722  0.5801265502115102  1.0000
  H   H26       1.0  0.34212699441162203  0.054913877061757405  0.7566731461141458  1.0000
  H   H27       1.0  0.5647962295632568  0.872784252498178  0.6644028196756153  1.0000
  H   H28       1.0  0.6681060467549997  0.7650076641665818  0.7779360811504648  1.0000
  H   H29       1.0  0.49923718054897404  0.8753632509637301  0.0117279172763531  1.0000
  H   H30       1.0  0.38301443840878596  0.9850389597131655  0.9075908353005888  1.0000
  H   H31       1.0  0.46957887124752773  0.5207638854489005  0.4198736537082156  1.0000
  H   H32       1.0  0.34212672784613585  0.44508582203049224  0.2433265167545215  1.0000
  H   H33       1.0  0.5647966065618846  0.6272154524144895  0.3355972216029599  1.0000
  H   H34       1.0  0.668105849142741  0.7349927816714799  0.22206449859307045  1.0000
  H   H35       1.0  0.4992377416963835  0.6246372102043977  0.9882715210564115  1.0000
  H   H36       1.0  0.38301536585848356  0.5149607617025252  0.09240880155207523  1.0000
  H   H37       1.0  0.9695775214317737  0.4792357035101205  0.9198738440419023  1.0000
  H   H38       1.0  0.8421261850935338  0.5549142312900129  0.7433275368578336  1.0000
  H   H39       1.0  0.06479686402666121  0.37278403127152165  0.835596674591237  1.0000
  H   H40       1.0  0.16810530288142198  0.26500725161597666  0.7220637880296792  1.0000
  H   H41       1.0  0.9992375104210683  0.3753632416289249  0.4882716858800792  1.0000
  H   H42       1.0  0.8830148303728296  0.48503828327709914  0.5924090006909284  1.0000
  H   H43       1.0  0.9695784754903374  0.020763938618152598  0.0801261769297028  1.0000
  H   H44       1.0  0.8421275188274964  0.9450861987489957  0.2566727456395271  1.0000
  H   H45       1.0  0.0647968053686583  0.12721644330251536  0.16440274705908567  1.0000
  H   H46       1.0  0.1681057964194821  0.23499321357944322  0.2779361720864274  1.0000
  H   H47       1.0  0.9992366825405271  0.12463639780605719  0.5117275695026038  1.0000
  H   H48       1.0  0.8830142446106422  0.014961366709513903  0.40759045321222237  1.0000
  C   C1        1.0  0.1565673709771289  0.40304840023417643  0.07300075870271171  1.0000
  C   C2        1.0  0.08901502702046571  0.4788441638434833  0.12326889382021022  1.0000
  C   C3        1.0  0.09852600998767971  0.4914763631516053  0.2185044586671978  1.0000
  C   C4        1.0  0.034728870773641105  0.5599956846934192  0.27716727002964353  1.0000
  C   C5        1.0  0.9537001015769778  0.6242869179328067  0.2406487249211651  1.0000
  C   C6        1.0  0.8945554137102294  0.6835662480161844  0.3034666870318575  1.0000
  C   C7        1.0  0.9895757055038107  0.6227729658535563  0.4343169780703207  1.0000
  C   C8        1.0  0.053430670049010635  0.5619653157171882  0.3764586056727809  1.0000
  C   C9        1.0  0.1565648110174038  0.0969513157048141  0.9269992211234452  1.0000
  C   C10       1.0  0.08901421617810713  0.021154807923700496  0.876730486462421  1.0000
  C   C11       1.0  0.09852622638391753  0.008523358056734803  0.7814956202973917  1.0000
  C   C12       1.0  0.0347291722689818  0.9400033180378455  0.7228322468036623  1.0000
  C   C13       1.0  0.9536995139166469  0.8757127516732126  0.7593520819252151  1.0000
  C   C14       1.0  0.8945557863201262  0.816433426958831  0.69653350591107  1.0000
  C   C15       1.0  0.9895763616882365  0.877226700494724  0.5656830525676285  1.0000
  C   C16       1.0  0.053430376793436124  0.9380344356202812  0.6235408792169396  1.0000
  C   C17       1.0  0.656565339804658  0.9030483136790011  0.4269987568564133  1.0000
  C   C18       1.0  0.5890147370811222  0.9788447428827071  0.3767322820011074  1.0000
  C   C19       1.0  0.5985259310415715  0.9914745307886224  0.2814960051477513  1.0000
  C   C20       1.0  0.5347289737870045  0.0599952280450111  0.22283264798385016  1.0000
  C   C21       1.0  0.45370009002743233  0.12428656821830937  0.2593512899355943  1.0000
  C   C22       1.0  0.3945563562658379  0.18356579244204593  0.19653351880615597  1.0000
  C   C23       1.0  0.4895761230229142  0.12277304007602649  0.06568225828159063  1.0000
  C   C24       1.0  0.5534309930410047  0.0619646917440733  0.1235405684566331  1.0000
  C   C25       1.0  0.6565660089212174  0.5969521332055763  0.5730004127430703  1.0000
  C   C26       1.0  0.5890144877806877  0.5211557101353107  0.6232677179107924  1.0000
  C   C27       1.0  0.5985262869949182  0.50852517106118  0.7185032635888933  1.0000
  C   C28       1.0  0.5347299698380183  0.4400044535617909  0.7771674008271463  1.0000
  C   C29       1.0  0.4537011736707088  0.3757131207443578  0.7406481823532332  1.0000
  C   C30       1.0  0.39455567703477373  0.31643315158617474  0.8034660545073821  1.0000
  C   C31       1.0  0.4895767774393038  0.37722739593362326  0.9343171527280989  1.0000
  C   C32       1.0  0.5534309543846376  0.43803573846833643  0.8764587334827568  1.0000
  C   C33       1.0  0.3434343490539717  0.09695175925038062  0.5730010157253035  1.0000
  C   C34       1.0  0.41098576670864884  0.0211553300484439  0.6232696353640108  1.0000
  C   C35       1.0  0.4014737578155519  0.0085240415338035  0.7185051972888914  1.0000
  C   C36       1.0  0.4652707150708722  0.9400040945808926  0.7771678395253263  1.0000
  C   C37       1.0  0.546300413764719  0.8757135047110296  0.740648482645426  1.0000
  C   C38       1.0  0.6054441475263134  0.8164342804872932  0.8034662537748645  1.0000
  C   C39       1.0  0.5104235658357155  0.877227032853355  0.9343175143001191  1.0000
  C   C40       1.0  0.446569510751182  0.938034630881191  0.8764592041238188  1.0000
  C   C41       1.0  0.3434344948716871  0.4030486900272408  0.4269986449104835  1.0000
  C   C42       1.0  0.41098438614596944  0.47884511309698047  0.3767306248161191  1.0000
  C   C43       1.0  0.40147340186597097  0.4914771527786285  0.281494364210424  1.0000
  C   C44       1.0  0.46527134888765437  0.5599956193675125  0.2228323717531708  1.0000
  C   C45       1.0  0.546300145054957  0.6242869521849457  0.2593515902270839  1.0000
  C   C46       1.0  0.6054440118238987  0.6835661710391249  0.19653371807375922  1.0000
  C   C47       1.0  0.5104245412863692  0.6227726769956875  0.06568261985222532  1.0000
  C   C48       1.0  0.4465703643410351  0.5619643344609742  0.1235410390975673  1.0000
  C   C49       1.0  0.8434331328134732  0.5969509223922956  0.9270004437338033  1.0000
  C   C50       1.0  0.910984661837411  0.5211551587824133  0.876731593688966  1.0000
  C   C51       1.0  0.9014728639366396  0.508523709778416  0.7814960288432503  1.0000
  C   C52       1.0  0.9652708180849887  0.4400043882359554  0.7228325025520733  1.0000
  C   C53       1.0  0.0462995872808207  0.37571390530125376  0.7593517625891479  1.0000
  C   C54       1.0  0.10544427514840042  0.31643382491319016  0.6965330855498523  1.0000
  C   C55       1.0  0.010423983354819205  0.3772271070758252  0.5656827945113961  1.0000
  C   C56       1.0  0.9465690188096193  0.43803475721219337  0.6235411669089289  1.0000
  C   C57       1.0  0.8434340629077399  0.9030480069205211  0.07300055145839222  1.0000
  C   C58       1.0  0.9109846577470366  0.9788445147016417  0.1232692861194167  1.0000
  C   C59       1.0  0.9014734624739238  0.991476714873251  0.21850486721235285  1.0000
  C   C60       1.0  0.9652713315232123  0.05999600458741839  0.2771675257767825  1.0000
  C   C61       1.0  0.04630017494123001  0.1242865709526839  0.24064840558396133  1.0000
  C   C62       1.0  0.10544390253854632  0.1835658956664687  0.3034662666700712  1.0000
  C   C63       1.0  0.0104241421031617  0.12277262213113717  0.43431743494085856  1.0000
  C   C64       1.0  0.9465693120652364  0.0619648870050185  0.37645889336420163  1.0000
  N   N1        1.0  0.9103340508173621  0.681809115629001  0.3989874918934788  1.0000
  N   N2        1.0  0.9103346348688321  0.8181905579134962  0.6010126740976817  1.0000
  N   N3        1.0  0.41033439006375266  0.18180849908483052  0.10101268432688222  1.0000
  N   N4        1.0  0.410335128891859  0.31819119381555083  0.8989875769634923  1.0000
  N   N5        1.0  0.5896652987949197  0.8181908235404692  0.898987088254259  1.0000
  N   N6        1.0  0.5896653748994966  0.6818088791143921  0.10101291054556333  1.0000
  N   N7        1.0  0.08966645297483214  0.31819020699626327  0.6010122806869661  1.0000
  N   N8        1.0  0.08966586892256603  0.1818087647123718  0.3989878134107983  1.0000
  O   O1        1.0  0.23190710964734512  0.35771656501142957  0.12061343715924272  1.0000
  O   O2        1.0  0.137858747449279  0.38427356048466527  0.9853118452565541  1.0000
  O   O3        1.0  0.23190546539466086  0.1422831440857522  0.8793842691937571  1.0000
  O   O4        1.0  0.137857391809824  0.11572690745626354  0.014687451597424704  1.0000
  O   O5        1.0  0.7319051839614943  0.8577171485228803  0.37938445106462393  1.0000
  O   O6        1.0  0.6378568148105046  0.8842727791091605  0.5146868267205991  1.0000
  O   O7        1.0  0.7319057428743678  0.6422832915229293  0.6206160197025739  1.0000
  O   O8        1.0  0.6378576762447851  0.6157291700826875  0.4853130897640342  1.0000
  O   O9        1.0  0.26809450489630393  0.14228367471118022  0.6206160364456964  1.0000
  O   O10       1.0  0.36214205911464603  0.11572654351617472  0.4853129458612386  1.0000
  O   O11       1.0  0.26809394598426195  0.35771678140644525  0.37938375287914283  1.0000
  O   O12       1.0  0.3621420126138447  0.3842709028466942  0.5146866828176755  1.0000
  O   O13       1.0  0.7680925792113203  0.6422827576138702  0.8793863354218987  1.0000
  O   O14       1.0  0.8621409414093509  0.6157265124447093  0.0146879273251628  1.0000
  O   O15       1.0  0.7680942234639689  0.8577169288436296  0.1206155033879526  1.0000
  O   O16       1.0  0.862141482114616  0.8842709145615116  0.9853130359113109  1.0000
