data_image0
_chemical_formula_structural       Cd2As4H36C32N4O20
_chemical_formula_sum              "Cd2 As4 H36 C32 N4 O20"
_cell_length_a       4.739632298938759
_cell_length_b       9.733770632009284
_cell_length_c       22.632335519795333
_cell_angle_alpha    90.00015801902683
_cell_angle_beta     92.1148317275116
_cell_angle_gamma    89.99998180737497

_space_group_name_H-M_alt    "P 1"
_space_group_IT_number       1

loop_
  _space_group_symop_operation_xyz
  'x, y, z'

loop_
  _atom_site_type_symbol
  _atom_site_label
  _atom_site_symmetry_multiplicity
  _atom_site_fract_x
  _atom_site_fract_y
  _atom_site_fract_z
  _atom_site_occupancy
  Cd  Cd1       1.0  0.999997733003127  0.9999994087592085  0.4999998731529587  1.0000
  Cd  Cd2       1.0  0.9999979644451783  0.5000024586583294  4.6978779979935413e-07  1.0000
  As  As1       1.0  0.4596514386889935  0.1426705350814998  0.4034194742826429  1.0000
  As  As2       1.0  0.5403421466246244  0.6426731067682495  0.09658245120716911  1.0000
  As  As3       1.0  0.5403461903014062  0.8573284246239369  0.596580832679024  1.0000
  As  As4       1.0  0.4596512760931973  0.35732893499498886  0.9034191510605964  1.0000
  H   H1        1.0  0.19155871649402906  0.94741947429506  0.12793941730283362  1.0000
  H   H2        1.0  0.808438945100562  0.4474176746728558  0.3720620146344659  1.0000
  H   H3        1.0  0.8084389179388792  0.05257845806069379  0.8720613315445082  1.0000
  H   H4        1.0  0.19156291193038297  0.552583339735982  0.6279387645692722  1.0000
  H   H5        1.0  0.8961954144760541  0.24416257514660342  0.4215667805944108  1.0000
  H   H6        1.0  0.1038002315901139  0.7441661250826145  0.0784348380356192  1.0000
  H   H7        1.0  0.1038022253986668  0.7558374119127791  0.5784344101404317  1.0000
  H   H8        1.0  0.8961931856854264  0.255835916679203  0.9215663223458678  1.0000
  H   H9        1.0  0.3327031661977244  0.3640554824719899  0.09002166575619701  1.0000
  H   H10       1.0  0.6673008391308243  0.8640569653055862  0.40997750384166665  1.0000
  H   H11       1.0  0.6673071033783843  0.6359393678212584  0.9099765228353434  1.0000
  H   H12       1.0  0.3327052187297426  0.1359440490973469  0.5900215381715057  1.0000
  H   H13       1.0  0.051565710909947896  0.2803332836516432  0.3174341889328147  1.0000
  H   H14       1.0  0.9484278186672769  0.7803342898314014  0.18256834100380812  1.0000
  H   H15       1.0  0.9484319071954412  0.7196677307531729  0.6825652342575027  1.0000
  H   H16       1.0  0.05156980488038701  0.2196667245748288  0.8174315240727953  1.0000
  H   H17       1.0  0.8985647878675637  0.23593282951032526  0.21507239785636056  1.0000
  H   H18       1.0  0.1014308618579989  0.735927432529756  0.28492921105014807  1.0000
  H   H19       1.0  0.1014349415376472  0.7640661301921624  0.7849270405100272  1.0000
  H   H20       1.0  0.8985688675478938  0.26406844511942756  0.7150702273144135  1.0000
  H   H21       1.0  0.46866981934802243  0.888377849772567  0.2103997446680381  1.0000
  H   H22       1.0  0.531321512818529  0.38837453600240923  0.2895998044710454  1.0000
  H   H23       1.0  0.5313257092284757  0.11161700053141031  0.789601430886485  1.0000
  H   H24       1.0  0.4686761052873152  0.6116244237001922  0.7103996187180571  1.0000
  H   H25       1.0  0.6277978921915021  0.9354144092502492  0.31280356210132254  1.0000
  H   H26       1.0  0.37219553581206805  0.4354155991270045  0.18719649964792504  1.0000
  H   H27       1.0  0.37219129160099135  0.06458660515785648  0.6871966841524113  1.0000
  H   H28       1.0  0.6278020986199238  0.5645864426331642  0.8128042492018467  1.0000
  H   H29       1.0  0.6977537164463855  0.13063115401315883  0.13485406376453576  1.0000
  H   H30       1.0  0.30224828676290366  0.6306272685571273  0.36514525689599964  1.0000
  H   H31       1.0  0.3022502355568619  0.8693708877424128  0.8651454049582484  1.0000
  H   H32       1.0  0.6977577656556163  0.36937271849328823  0.634853343230283  1.0000
  H   H33       1.0  0.8221434495842529  0.04402319373588169  0.0732153390398622  1.0000
  H   H34       1.0  0.17785649169908876  0.5440228054358371  0.4267847479455115  1.0000
  H   H35       1.0  0.177858396562371  0.9559767933190101  0.9267845563907076  1.0000
  H   H36       1.0  0.8221474603041584  0.4559792363197345  0.5732147207772728  1.0000
  C   C1        1.0  0.34716774389288213  0.11023680977368142  0.3225609625903516  1.0000
  C   C2        1.0  0.6528237445363416  0.6102347466455598  0.1774409094195164  1.0000
  C   C3        1.0  0.6528319909543755  0.8897631772813311  0.6774389176629257  1.0000
  C   C4        1.0  0.34716756688279565  0.3897642130644812  0.822560677669145  1.0000
  C   C5        1.0  0.1434507364765594  0.19414666316346543  0.29419912621526834  1.0000
  C   C6        1.0  0.8565470431174161  0.694146805415457  0.20580244852788354  1.0000
  C   C7        1.0  0.8565447812142464  0.8058533238931955  0.7058011655697243  1.0000
  C   C8        1.0  0.1434548030287459  0.3058552363416496  0.7941974469038939  1.0000
  C   C9        1.0  0.05673043879863831  0.1688592626401828  0.23591686829681896  1.0000
  C   C10       1.0  0.943265224408009  0.6688556564069897  0.2640833357469106  1.0000
  C   C11       1.0  0.9432692906063452  0.8311407244134088  0.7640825700701726  1.0000
  C   C12       1.0  0.056734499554920596  0.3311433032940769  0.7359156607331913  1.0000
  C   C13       1.0  0.16932096324599397  0.056759738270216104  0.2047726670886547  1.0000
  C   C14       1.0  0.8306705435064289  0.5567594315175411  0.29522869988664274  1.0000
  C   C15       1.0  0.8306724377036331  0.9432381940829304  0.7952271676315521  1.0000
  C   C16       1.0  0.16932920222514977  0.44324158289141014  0.7047720641398103  1.0000
  C   C17       1.0  0.3778885522760973  0.9744329702430005  0.23394894186929358  1.0000
  C   C18       1.0  0.6221090864289563  0.4744305185530351  0.26605163819440497  1.0000
  C   C19       1.0  0.6221153834005547  0.025568044157210992  0.7660492011940221  1.0000
  C   C20       1.0  0.3778885534453095  0.525571523208555  0.7339495525416527  1.0000
  C   C21       1.0  0.46644494393999036  0.0006974451421442002  0.291823168781832  1.0000
  C   C22       1.0  0.5335529161838224  0.5006935431543551  0.2081777356347843  1.0000
  C   C23       1.0  0.5335505574239933  0.9993025419102609  0.7081757973443035  1.0000
  C   C24       1.0  0.46644894084803906  0.4993033618500747  0.7918230435665309  1.0000
  C   C25       1.0  0.8919549452349501  0.1045846332695959  0.11205541636970655  1.0000
  C   C26       1.0  0.108047069549464  0.6045819515976234  0.38794387353405574  1.0000
  C   C27       1.0  0.10805112351039271  0.8954153537850758  0.8879445094154336  1.0000
  C   C28       1.0  0.8919568715696897  0.3954180354529058  0.6120547114149417  1.0000
  C   C29       1.0  0.0095402391381825  0.2393278886618546  0.08897720862065482  1.0000
  C   C30       1.0  0.9904596099073614  0.7393262462197827  0.4110226671066216  1.0000
  C   C31       1.0  0.9904679409067539  0.7606710710415997  0.9110227323411595  1.0000
  C   C32       1.0  0.009542247124038302  0.26067271348684773  0.5889781120959015  1.0000
  N   N1        1.0  0.0822079527032074  0.0233696256665041  0.1483720594640943  1.0000
  N   N2        1.0  0.9177898810180167  0.5233655582809928  0.3516275460664105  1.0000
  N   N3        1.0  0.9177917767020031  0.9766293340359836  0.8516273789022935  1.0000
  N   N4        1.0  0.082211959686326  0.4766344287724848  0.6483719074778733  1.0000
  O   O1        1.0  0.18008037866908214  0.18558828261937066  0.445019648259134  1.0000
  O   O2        1.0  0.8199131821289214  0.6855915712776477  0.05498188602498291  1.0000
  O   O3        1.0  0.8199193616202223  0.814412731788167  0.5549806738810333  1.0000
  O   O4        1.0  0.18008023514616409  0.31441252518637697  0.945019274357712  1.0000
  O   O5        1.0  0.6996910834350061  0.28223617987371336  0.40837898525221317  1.0000
  O   O6        1.0  0.3003045457110076  0.7822387567959552  0.0916226783371172  1.0000
  O   O7        1.0  0.3003065564397219  0.717763807185669  0.5916222054826292  1.0000
  O   O8        1.0  0.6996909774216179  0.21776328496432734  0.9083780553353764  1.0000
  O   O9        1.0  0.6367162210585916  0.0032035909208829993  0.4318265156632252  1.0000
  O   O10       1.0  0.36328374380735795  0.5032049801635807  0.06817396500694171  1.0000
  O   O11       1.0  0.3632856305302994  0.996796396135437  0.5681738216536232  1.0000
  O   O12       1.0  0.6367159964821738  0.4967950068928459  0.9318263571326213  1.0000
  O   O13       1.0  0.2718198557352096  0.266394513216099  0.10537069943598712  1.0000
  O   O14       1.0  0.7281841712259903  0.7663958880558254  0.3946265872920236  1.0000
  O   O15       1.0  0.7281925088134287  0.7336003370727795  0.8946261786739812  1.0000
  O   O16       1.0  0.2718218703075195  0.23360615369395535  0.6053711290629025  1.0000
  O   O17       1.0  0.8538875578095568  0.3141455934723325  0.0573944801824098  1.0000
  O   O18       1.0  0.1461122525437304  0.8141442843351355  0.44260504200855894  1.0000
  O   O19       1.0  0.14611642140530276  0.6858554209392266  0.9426071979711852  1.0000
  O   O20       1.0  0.8538916994599786  0.18585570271822854  0.5573944267130102  1.0000
