data_image0
_chemical_formula_structural       Cu4H28C36N28
_chemical_formula_sum              "Cu4 H28 C36 N28"
_cell_length_a       5.669247305026562
_cell_length_b       12.745600532497576
_cell_length_c       14.570113327066498
_cell_angle_alpha    89.99995961811821
_cell_angle_beta     90.00039458049926
_cell_angle_gamma    92.80546506845988

_space_group_name_H-M_alt    "P 1"
_space_group_IT_number       1

loop_
  _space_group_symop_operation_xyz
  'x, y, z'

loop_
  _atom_site_type_symbol
  _atom_site_label
  _atom_site_symmetry_multiplicity
  _atom_site_fract_x
  _atom_site_fract_y
  _atom_site_fract_z
  _atom_site_occupancy
  Cu  Cu1       1.0  0.22777751270468366  0.7898273147356603  0.3028090570144429  1.0000
  Cu  Cu2       1.0  0.2722112765290134  0.2101774465878492  0.8028113737635538  1.0000
  Cu  Cu3       1.0  0.7722088366604111  0.21016607703095494  0.6971891740124722  1.0000
  Cu  Cu4       1.0  0.7277795866753676  0.789823789309196  0.19718960258548185  1.0000
  H   H1        1.0  0.8473228719991539  0.6625364055813421  0.39242992310787644  1.0000
  H   H2        1.0  0.6526744333505264  0.3374775616962395  0.8924296872144315  1.0000
  H   H3        1.0  0.1526714051316631  0.3374498891746782  0.6075641900414228  1.0000
  H   H4        1.0  0.3473259379037685  0.6625291452263508  0.10755962146158995  1.0000
  H   H5        1.0  0.7953658939589728  0.5688614168170787  0.543597203871933  1.0000
  H   H6        1.0  0.7046394500899638  0.43114513359498824  0.04359796336449051  1.0000
  H   H7        1.0  0.20462622490089188  0.43112174140032516  0.456397595619791  1.0000
  H   H8        1.0  0.2953823765747998  0.5688638640445729  0.9563892864958422  1.0000
  H   H9        1.0  0.09821844046575728  0.6016940379475526  0.6663316379859128  1.0000
  H   H10       1.0  0.4018031786355393  0.39831275165813185  0.16633690099433815  1.0000
  H   H11       1.0  0.9017675140139543  0.3982962117720845  0.33366453405520974  1.0000
  H   H12       1.0  0.598241668656044  0.6016969603150314  0.8336599577995261  1.0000
  H   H13       1.0  0.4596658050802843  0.7064694288918003  0.7198726832445107  1.0000
  H   H14       1.0  0.04034538773606759  0.2935376212317066  0.21987532476659072  1.0000
  H   H15       1.0  0.5403272024250683  0.2935207988999692  0.28012348886706934  1.0000
  H   H16       1.0  0.9596861433718757  0.7064784186713664  0.7801235928485685  1.0000
  H   H17       1.0  0.7774865965587167  0.8436066616823934  0.6886223178344937  1.0000
  H   H18       1.0  0.7225188124134262  0.15639949173563383  0.18862618708591586  1.0000
  H   H19       1.0  0.22249456168584913  0.1563875320567263  0.31137797214306323  1.0000
  H   H20       1.0  0.2775144815311563  0.8436165427712651  0.8113816529208298  1.0000
  H   H21       1.0  0.7985150301002406  0.9329913877741587  0.5367183274910732  1.0000
  H   H22       1.0  0.7014834288720736  0.06702526930261139  0.03671373455667752  1.0000
  H   H23       1.0  0.20146152946487214  0.06700832098483289  0.463284707738204  1.0000
  H   H24       1.0  0.29852967922292345  0.932984541464762  0.9632954779763954  1.0000
  H   H25       1.0  0.5037502341019928  0.8875043668403674  0.416252072769858  1.0000
  H   H26       1.0  0.9962418959533323  0.11251478249148048  0.9162461511412803  1.0000
  H   H27       1.0  0.496231121504536  0.11249139793874012  0.5837509625417427  1.0000
  H   H28       1.0  0.0037602378792839647  0.8874919190877291  0.08375757061800473  1.0000
  C   C1        1.0  0.973179925276895  0.676431738912356  0.44823158215723435  1.0000
  C   C2        1.0  0.526818985045459  0.3235817084911118  0.9482304545937627  1.0000
  C   C3        1.0  0.026814549151310985  0.3235561268968467  0.5517666489990349  1.0000
  C   C4        1.0  0.47318628086664916  0.6764218399847903  0.05176159950452332  1.0000
  C   C5        1.0  0.9457252013861889  0.6239092343852021  0.5327952838641326  1.0000
  C   C6        1.0  0.554290469229116  0.376101008395409  0.03279263901040251  1.0000
  C   C7        1.0  0.05426760859575097  0.37607942239957015  0.4672015745957056  1.0000
  C   C8        1.0  0.4457399760651199  0.623906390853719  0.967198042632099  1.0000
  C   C9        1.0  0.11088930365767874  0.6434876080377234  0.6009132385075165  1.0000
  C   C10       1.0  0.38911624001449496  0.35652349333197014  0.10091417655755926  1.0000
  C   C11       1.0  0.8891090921041424  0.356503388867729  0.3990884243426935  1.0000
  C   C12       1.0  0.6109054875172291  0.6434847188799891  0.8990813093461871  1.0000
  C   C13       1.0  0.29823137010851747  0.7192020422253123  0.5863558728388016  1.0000
  C   C14       1.0  0.2017831889373056  0.28081347029338827  0.08635440430014545  1.0000
  C   C15       1.0  0.7017588020060828  0.2807936950977633  0.4136423582056638  1.0000
  C   C16       1.0  0.7982371701265123  0.7191978894673171  0.9136451995811545  1.0000
  C   C17       1.0  0.4697234365339113  0.7469933866268826  0.6540671750872352  1.0000
  C   C18       1.0  0.030275920586248586  0.25300931084887407  0.15407101229166645  1.0000
  C   C19       1.0  0.5302609519544959  0.25299843963450996  0.3459338012797063  1.0000
  C   C20       1.0  0.969755511453229  0.7470059436133947  0.8459347686939869  1.0000
  C   C21       1.0  0.6458476702957157  0.8226994479733347  0.6364102022785121  1.0000
  C   C22       1.0  0.8541693239493782  0.1773166820012833  0.13640946494129486  1.0000
  C   C23       1.0  0.35412457295353045  0.17729398766223164  0.3635894012804074  1.0000
  C   C24       1.0  0.14584368565837735  0.8226923432065049  0.863594256905991  1.0000
  C   C25       1.0  0.6583562747509717  0.8733533753025923  0.550104446097443  1.0000
  C   C26       1.0  0.8416281864204651  0.1266604356342285  0.05010983717631492  1.0000
  C   C27       1.0  0.3416179291166443  0.12664162589098985  0.44989790281314185  1.0000
  C   C28       1.0  0.15838767258030367  0.8733572246795447  0.9498952572966535  1.0000
  C   C29       1.0  0.49568930997391886  0.8476955826856452  0.48250989028331065  1.0000
  C   C30       1.0  0.004311869182529892  0.15232118709925396  0.9825037644060404  1.0000
  C   C31       1.0  0.5042829331138705  0.15229785298291176  0.5174931449579108  1.0000
  C   C32       1.0  0.9956972189301606  0.8476847070452818  0.017499957429606607  1.0000
  C   C33       1.0  0.3131611463191176  0.7706075285249195  0.4990226885163766  1.0000
  C   C34       1.0  0.18683455731726178  0.22940642779578715  0.9990222809515221  1.0000
  C   C35       1.0  0.6868236371515408  0.22938743976365564  0.5009782878269748  1.0000
  C   C36       1.0  0.8131820777103227  0.7706033719218581  0.0009780092428002005  1.0000
  N   N1        1.0  0.15156691601965375  0.7454147438471562  0.4312222383790145  1.0000
  N   N2        1.0  0.34844114831876993  0.25460339074091104  0.9312198050989768  1.0000
  N   N3        1.0  0.8484248218279474  0.2545794169869565  0.5687766790313166  1.0000
  N   N4        1.0  0.6515748944937627  0.7454016958831671  0.06877499443904612  1.0000
  N   N5        1.0  0.9873940451125235  0.6877764019324528  0.20511340554494956  1.0000
  N   N6        1.0  0.5125869749892473  0.3122167806587867  0.7051046437731474  1.0000
  N   N7        1.0  0.012596423206474585  0.31222169191760674  0.7948855118182865  1.0000
  N   N8        1.0  0.4873975125353238  0.6877758310500109  0.2948901555597559  1.0000
  N   N9        1.0  0.9490306052337304  0.595248869449925  0.18993550289712868  1.0000
  N   N10       1.0  0.5509645809325647  0.40474712489289283  0.689923825904096  1.0000
  N   N11       1.0  0.05097388442554518  0.4047625396682902  0.8100661598350175  1.0000
  N   N12       1.0  0.44903058458541517  0.5952462394902794  0.3100771505567438  1.0000
  N   N13       1.0  0.9183330692865893  0.5055963734147609  0.1750390493912165  1.0000
  N   N14       1.0  0.581673308198603  0.49439301750459197  0.675025727516044  1.0000
  N   N15       1.0  0.08166768230188377  0.4943993310297045  0.8249605544318545  1.0000
  N   N16       1.0  0.41833419985591996  0.5056003085576037  0.32498073975977365  1.0000
  N   N17       1.0  0.9511240965957838  0.8777432603026507  0.27861595629462954  1.0000
  N   N18       1.0  0.548862744423637  0.12225443955377806  0.7786222261297769  1.0000
  N   N19       1.0  0.0488607855558527  0.12225249350591838  0.7213863927157436  1.0000
  N   N20       1.0  0.4511294871517677  0.8777436488143165  0.22137669125107362  1.0000
  N   N21       1.0  0.896883149992142  0.9550925714643979  0.32110171068882937  1.0000
  N   N22       1.0  0.6031068450274334  0.04490670900305818  0.8211104161877931  1.0000
  N   N23       1.0  0.1031073180685382  0.044905522438455095  0.6789026973660842  1.0000
  N   N24       1.0  0.39689400485454474  0.9550897810405913  0.17889879633981565  1.0000
  N   N25       1.0  0.8417451019703392  0.0292755337769961  0.36029153195572433  1.0000
  N   N26       1.0  0.6582474827784851  0.9707323389330397  0.860299532262346  1.0000
  N   N27       1.0  0.15824380026047882  0.9707241366346151  0.6397142487426993  1.0000
  N   N28       1.0  0.34175827589274377  0.029275137274808592  0.13971311190024957  1.0000
