data_image0
_chemical_formula_structural       Cu4H20C20N4Cl4
_chemical_formula_sum              "Cu4 H20 C20 N4 Cl4"
_cell_length_a       6.610652178879604
_cell_length_b       7.364922784084466
_cell_length_c       12.780773241314593
_cell_angle_alpha    89.99990353405697
_cell_angle_beta     98.82060337251112
_cell_angle_gamma    90.0004296213343

_space_group_name_H-M_alt    "P 1"
_space_group_IT_number       1

loop_
  _space_group_symop_operation_xyz
  'x, y, z'

loop_
  _atom_site_type_symbol
  _atom_site_label
  _atom_site_symmetry_multiplicity
  _atom_site_fract_x
  _atom_site_fract_y
  _atom_site_fract_z
  _atom_site_occupancy
  Cu  Cu1       1.0  0.0458094725341027  0.13992632132313076  0.5950027053685574  1.0000
  Cu  Cu2       1.0  0.4542017134420888  0.6399349757468114  0.9050044413626707  1.0000
  Cu  Cu3       1.0  0.9542043428884526  0.8600706983614687  0.4050030973591916  1.0000
  Cu  Cu4       1.0  0.5457859718346895  0.36005389716005004  0.09498997721335908  1.0000
  H   H1        1.0  0.7015841233507842  0.9337621529051957  0.9029478159554785  1.0000
  H   H2        1.0  0.7984104597185748  0.4337737393722136  0.597042544831595  1.0000
  H   H3        1.0  0.2984020311586661  0.06623079336049639  0.0970464857521804  1.0000
  H   H4        1.0  0.2015941086973498  0.5662164913583608  0.40295707487223353  1.0000
  H   H5        1.0  0.8958026146927409  0.3112183651262085  0.9622198093416758  1.0000
  H   H6        1.0  0.6042076448663707  0.8112110877832706  0.5377828570127506  1.0000
  H   H7        1.0  0.1042081925711642  0.6887922324215554  0.0377904583517079  1.0000
  H   H8        1.0  0.3957968614177362  0.1887995097648059  0.4622112808654961  1.0000
  H   H9        1.0  0.6818196988366765  0.022437663762723003  0.08668865095749112  1.0000
  H   H10       1.0  0.8181686465433913  0.5224510676613079  0.4133086113987972  1.0000
  H   H11       1.0  0.31816649125914154  0.9775593558624605  0.9133087832183121  1.0000
  H   H12       1.0  0.18184967233993626  0.47754730982909177  0.5866897107582432  1.0000
  H   H13       1.0  0.8119014829931858  0.21260139751738197  0.24376651499029833  1.0000
  H   H14       1.0  0.6880782767551779  0.7126199024778755  0.25624158856204104  1.0000
  H   H15       1.0  0.188063409294017  0.7873698240835907  0.7562410298064323  1.0000
  H   H16       1.0  0.3119522795037994  0.2873703283173937  0.743756885419053  1.0000
  H   H17       1.0  0.9306430388955107  0.37116691029881116  0.157635531014968  1.0000
  H   H18       1.0  0.5693383589607138  0.8711914552908194  0.3423701502319645  1.0000
  H   H19       1.0  0.06934332009126361  0.6288219625873521  0.8423767823908436  1.0000
  H   H20       1.0  0.43067680058423014  0.12881506892540534  0.6576193238983592  1.0000
  C   C1        1.0  0.8423537447717778  0.09027514458264112  0.794580826020379  1.0000
  C   C2        1.0  0.6576557526218282  0.5902705173518258  0.7054244082033848  1.0000
  C   C3        1.0  0.1576692465986937  0.9097422419367973  0.20542489479001352  1.0000
  C   C4        1.0  0.34233964895839364  0.40974143795527596  0.294576076525388  1.0000
  C   C5        1.0  0.7761594339801974  0.06375322435199139  0.8923287264031359  1.0000
  C   C6        1.0  0.7238328129300058  0.5637504693671433  0.6076634877214815  1.0000
  C   C7        1.0  0.2238389936837279  0.9362723088402092  0.1076688595882942  1.0000
  C   C8        1.0  0.2761670476618718  0.4362642015369502  0.3923256008499081  1.0000
  C   C9        1.0  0.8144216695252313  0.1853308883360967  0.9733410359503765  1.0000
  C   C10       1.0  0.6855673859388818  0.6853321775026301  0.5266617352778199  1.0000
  C   C11       1.0  0.18557843999308693  0.8146783513972765  0.026669979905833  1.0000
  C   C12       1.0  0.31444931325751213  0.31466891556653553  0.47332863883845994  1.0000
  C   C13       1.0  0.7585836219055865  0.15138015054439788  0.07614212736226021  1.0000
  C   C14       1.0  0.7414137577901626  0.6513850116099249  0.4238580093616022  1.0000
  C   C15       1.0  0.24141475224691086  0.8486141535400548  0.9238507599327335  1.0000
  C   C16       1.0  0.25859862467592615  0.34861743921283755  0.5761562907874378  1.0000
  C   C17       1.0  0.825633636127897  0.2587119719062656  0.16405312732375424  1.0000
  C   C18       1.0  0.6743617643688679  0.7587126030295508  0.33594281069905213  1.0000
  C   C19       1.0  0.17432353117844462  0.7412769009198215  0.8359475681935891  1.0000
  C   C20       1.0  0.325673330830341  0.24126269211869564  0.6640513151841603  1.0000
  N   N1        1.0  0.8996398479152817  0.10496934076848419  0.7126795050536644  1.0000
  N   N2        1.0  0.6003652113886558  0.6049656313150038  0.7873253718071354  1.0000
  N   N3        1.0  0.10037855111045252  0.8950521191025161  0.2873258651534911  1.0000
  N   N4        1.0  0.39961327152305154  0.39505175510878837  0.2126667793232002  1.0000
  Cl  Cl1       1.0  0.19238906331791136  0.8416367239447098  0.5544486001438571  1.0000
  Cl  Cl2       1.0  0.30759508424647214  0.34164224452691627  0.9455499683665707  1.0000
  Cl  Cl3       1.0  0.807621699397089  0.15835622236942729  0.445557751967236  1.0000
  Cl  Cl4       1.0  0.6923864512088543  0.6583479861551353  0.0544416333876043  1.0000
