data_image0
_chemical_formula_structural       Zr6H24C48N12O32
_chemical_formula_sum              "Zr6 H24 C48 N12 O32"
_cell_length_a       17.26979874343061
_cell_length_b       17.273133134644127
_cell_length_c       18.151369920666273
_cell_angle_alpha    89.55450789277505
_cell_angle_beta     89.97322152999294
_cell_angle_gamma    110.25655121192719

_space_group_name_H-M_alt    "P 1"
_space_group_IT_number       1

loop_
  _space_group_symop_operation_xyz
  'x, y, z'

loop_
  _atom_site_type_symbol
  _atom_site_label
  _atom_site_symmetry_multiplicity
  _atom_site_fract_x
  _atom_site_fract_y
  _atom_site_fract_z
  _atom_site_occupancy
  Zr  Zr1       1.0  0.8949629881323918  0.8871564640794602  0.9079790539359607  1.0000
  Zr  Zr2       1.0  0.9066146165145951  0.8926261090588239  0.1033321844574289  1.0000
  Zr  Zr3       1.0  0.0764263364549862  0.06480027460855811  0.897237775411746  1.0000
  Zr  Zr4       1.0  0.08407189193292199  0.07397538956393389  0.09256668634687057  1.0000
  Zr  Zr5       1.0  0.9017384395887336  0.06845335699483707  0.000874753492262  1.0000
  Zr  Zr6       1.0  0.07911438936753971  0.8909197892251797  0.9994932819938002  1.0000
  H   H1        1.0  0.904509472841049  0.7662521911494907  0.00018274367596399978  1.0000
  H   H2        1.0  0.9270250484241274  0.0418028769738399  0.1637445361544323  1.0000
  H   H3        1.0  0.20398891694292595  0.06533539650931891  0.9995908680789468  1.0000
  H   H4        1.0  0.9264156026694937  0.045149531201403206  0.8374761986350946  1.0000
  H   H5        1.0  0.9243544412815867  0.8704783601666506  0.24604459935152073  1.0000
  H   H6        1.0  0.1341643688217715  0.06072040460719559  0.23095129430137717  1.0000
  H   H7        1.0  0.19732981321243412  0.223594215131115  0.0959679193648242  1.0000
  H   H8        1.0  0.23398764192224067  0.17529986103451026  0.8588936944622745  1.0000
  H   H9        1.0  0.098984037878985  0.0506666023112601  0.7544205494633475  1.0000
  H   H10       1.0  0.8329595484106775  0.8758391788128959  0.7642463152716488  1.0000
  H   H11       1.0  0.7449030282530701  0.7746617169206046  0.9065491082338966  1.0000
  H   H12       1.0  0.8002891020434788  0.735320549769284  0.1439952580239066  1.0000
  H   H13       1.0  0.1728676831657765  0.22329137020496154  0.8770252645599399  1.0000
  H   H14       1.0  0.9041484057315757  0.8375645249678241  0.7686753340328848  1.0000
  H   H15       1.0  0.7489742195086678  0.7938267508696056  0.12684275413285206  1.0000
  H   H16       1.0  0.09713210339096894  0.13256629993185948  0.2377777118903666  1.0000
  H   H17       1.0  0.3644022751823287  0.9653576981252313  0.43067563767717587  1.0000
  H   H18       1.0  0.617383998997113  0.9779049504469269  0.4302239877787598  1.0000
  H   H19       1.0  0.6181135733786078  0.980249191815048  0.568468048853248  1.0000
  H   H20       1.0  0.36525857955604846  0.967940137094388  0.5687690141086463  1.0000
  H   H21       1.0  0.004982097531616609  0.6054098513342439  0.4295195197477923  1.0000
  H   H22       1.0  0.9793239993120084  0.3488430836419809  0.43402978858821223  1.0000
  H   H23       1.0  0.9794496866634933  0.3505430613975307  0.572305336466286  1.0000
  H   H24       1.0  0.0052951909050661765  0.6071190645045661  0.5676677450890679  1.0000
  C   C1        1.0  0.7577086705904466  0.9792849093442796  0.8838658236098523  1.0000
  C   C2        1.0  0.9987267478303753  0.7549568264738724  0.1269992397947135  1.0000
  C   C3        1.0  0.7571907135515447  0.9764587077104707  0.1158301268453812  1.0000
  C   C4        1.0  0.0011255001896302687  0.759919597963787  0.8718160598659707  1.0000
  C   C5        1.0  0.2139379341826242  0.9734893755865244  0.8718459791316205  1.0000
  C   C6        1.0  0.9923273315372969  0.21080584187242832  0.1184013025876993  1.0000
  C   C7        1.0  0.21111147569419594  0.966069418695021  0.1273079813779603  1.0000
  C   C8        1.0  0.9914328466653334  0.21425737085822052  0.8858764202806667  1.0000
  C   C9        1.0  0.9989676632530262  0.5513819339628797  0.7656117449902595  1.0000
  C   C10       1.0  0.993312429317861  0.4809812467139807  0.6594055526482662  1.0000
  C   C11       1.0  0.9914732173053198  0.4184889655592697  0.7702227043190034  1.0000
  C   C12       1.0  0.9963171155028905  0.5450120776259125  0.2338987334706033  1.0000
  C   C13       1.0  0.9926510706175053  0.47720137762109976  0.3423328257117788  1.0000
  C   C14       1.0  0.9910691346979021  0.41292723479903515  0.23343146031305648  1.0000
  C   C15       1.0  0.4228727283204989  0.9746001087798959  0.7652674838436652  1.0000
  C   C16       1.0  0.5547893696562769  0.9792017116806733  0.7679706591458171  1.0000
  C   C17       1.0  0.4910417264126252  0.9754380708429339  0.6579914209864342  1.0000
  C   C18       1.0  0.4189406008944587  0.9646153050681363  0.23404246119388714  1.0000
  C   C19       1.0  0.5518603948356715  0.9721096617208432  0.2306561118478214  1.0000
  C   C20       1.0  0.4890774896263679  0.9701472260334042  0.34093065419862256  1.0000
  C   C21       1.0  0.41953795077920836  0.9687217766797929  0.46143505719970074  1.0000
  C   C22       1.0  0.490744822279872  0.9715789312822665  0.4222871821072117  1.0000
  C   C23       1.0  0.562532479448315  0.9757662339641301  0.4611026167832932  1.0000
  C   C24       1.0  0.562963409509912  0.977039134379666  0.5376866187070632  1.0000
  C   C25       1.0  0.4916912480740692  0.9742452352912564  0.5767158372118502  1.0000
  C   C26       1.0  0.42000120558096654  0.9700604709184971  0.5378177407918372  1.0000
  C   C27       1.0  0.999439637289264  0.5500511838342276  0.4613687709047838  1.0000
  C   C28       1.0  0.9922559109204415  0.47710740076966124  0.4236177303642704  1.0000
  C   C29       1.0  0.9849757410199304  0.40503891974088896  0.4638470761046278  1.0000
  C   C30       1.0  0.9850599959572506  0.4059577849392896  0.5404345409184259  1.0000
  C   C31       1.0  0.9925104345480026  0.47900187193345545  0.578075566128902  1.0000
  C   C32       1.0  0.9995871759670649  0.5509935649753357  0.5377837057964782  1.0000
  C   C33       1.0  0.989892248508099  0.3417054611617657  0.19345013703277658  1.0000
  C   C34       1.0  0.990405683108904  0.28218327321004466  0.1584376249230317  1.0000
  C   C35       1.0  0.9986356228548205  0.6182293812226974  0.19561424553657494  1.0000
  C   C36       1.0  0.9996783118818585  0.681118047728006  0.164490399792804  1.0000
  C   C37       1.0  0.9897726478921671  0.34748677102406583  0.8119235533286967  1.0000
  C   C38       1.0  0.9902579575215713  0.28753734905971834  0.8472649607702748  1.0000
  C   C39       1.0  0.003522873206676979  0.6882901682083614  0.8323832472796083  1.0000
  C   C40       1.0  0.0022646252582702964  0.6254460101622854  0.8019203379712607  1.0000
  C   C41       1.0  0.28234261821054935  0.9616536908743853  0.1666652645194873  1.0000
  C   C42       1.0  0.34498964656079784  0.9616906499947431  0.1971947893595143  1.0000
  C   C43       1.0  0.6231360854798568  0.9746101434684533  0.1894423628090109  1.0000
  C   C44       1.0  0.6834705202637466  0.9758218119364699  0.1542104870916461  1.0000
  C   C45       1.0  0.2871630784309218  0.9725279333695553  0.8337901397909846  1.0000
  C   C46       1.0  0.34967338950067284  0.9731893920360335  0.8025970403363161  1.0000
  C   C47       1.0  0.6259457890192907  0.9810895027896366  0.8088666358052592  1.0000
  C   C48       1.0  0.6859109177887678  0.9813003907354698  0.8440193366350854  1.0000
  N   N1        1.0  0.9982097885103016  0.5525854616424937  0.6915635119075815  1.0000
  N   N2        1.0  0.9893379277242647  0.4117258560146126  0.6963462403619616  1.0000
  N   N3        1.0  0.9961887843401133  0.4864789482663737  0.8085634413472604  1.0000
  N   N4        1.0  0.9958627812357933  0.5476463435409257  0.30783595465613434  1.0000
  N   N5        1.0  0.9899790306909325  0.4076789668326768  0.3074789051923331  1.0000
  N   N6        1.0  0.9941317190959611  0.4796381953803889  0.1929202169604451  1.0000
  N   N7        1.0  0.4880620042872579  0.9775325739451475  0.8073281509768009  1.0000
  N   N8        1.0  0.5602362599516441  0.9783732519489164  0.6940171935101346  1.0000
  N   N9        1.0  0.4205285004687982  0.9733690059498771  0.6912950103086145  1.0000
  N   N10       1.0  0.4840125063785621  0.9675558587570946  0.1916942747732762  1.0000
  N   N11       1.0  0.5583948137213427  0.9739261198031955  0.3046056075237118  1.0000
  N   N12       1.0  0.41759698333250844  0.9652967572769526  0.30806636776718926  1.0000
  O   O1        1.0  0.7824454324739636  0.9198430669453542  0.8680268773716762  1.0000
  O   O2        1.0  0.789208857439185  0.0365641895089297  0.929806561182751  1.0000
  O   O3        1.0  0.9418681121533796  0.7820054651309292  0.1464320158648604  1.0000
  O   O4        1.0  0.05394610875060124  0.7850027211863448  0.0782746629686457  1.0000
  O   O5        1.0  0.7781734462493901  0.9134923864765908  0.12493877827616019  1.0000
  O   O6        1.0  0.7949953351452665  0.04094884419694011  0.0779529713670684  1.0000
  O   O7        1.0  0.9501014297778172  0.7929071744167827  0.8493363596618693  1.0000
  O   O8        1.0  0.04931634352899294  0.7817758606497734  0.9269221357945554  1.0000
  O   O9        1.0  0.8018622348544967  0.7785673210708524  0.9130925645694957  1.0000
  O   O10       1.0  0.8903798028628389  0.8872733664037542  0.7781254779902511  1.0000
  O   O11       1.0  0.7895699810902455  0.7713343618607453  0.1067570766142865  1.0000
  O   O12       1.0  0.9036817078745473  0.9032761165354942  0.2131281807240057  1.0000
  O   O13       1.0  0.8772716045166719  0.9436437432969029  0.0028114428688397  1.0000
  O   O14       1.0  0.9332031918850279  0.8255116202442354  0.003430449337081099  1.0000
  O   O15       1.0  0.1873227710177332  0.031166576888011794  0.853478194928087  1.0000
  O   O16       1.0  0.18397352251477633  0.9173592087359168  0.9199992936860611  1.0000
  O   O17       1.0  0.05192358856198352  0.18596284132686952  0.1338926234314712  1.0000
  O   O18       1.0  0.934594520546483  0.17979350444851858  0.07254215058612348  1.0000
  O   O19       1.0  0.17880155251491914  0.017047200319531396  0.15059811256156758  1.0000
  O   O20       1.0  0.18890429105670145  0.919450951407441  0.0713876121199348  1.0000
  O   O21       1.0  0.05470940459948542  0.19403490523314565  0.876248374251567  1.0000
  O   O22       1.0  0.9278175444555289  0.1759083118520692  0.9244608356105247  1.0000
  O   O23       1.0  0.19659046495674207  0.1829467515517464  0.8960786938625559  1.0000
  O   O24       1.0  0.06524749468436401  0.06952217863539542  0.7875234547123711  1.0000
  O   O25       1.0  0.1928989016078972  0.16667056371587563  0.0886142979371414  1.0000
  O   O26       1.0  0.08478004206983061  0.0755714993601302  0.222495941564901  1.0000
  O   O27       1.0  0.14464128508927135  0.036956937838723995  0.9965609304465701  1.0000
  O   O28       1.0  0.026684442371141905  0.0931249959193465  0.9982130543352524  1.0000
  O   O29       1.0  0.026999835780117106  0.9400569137262451  0.9184040681755689  1.0000
  O   O30       1.0  0.9451282852633015  0.02979055052917089  0.1157845000350122  1.0000
  O   O31       1.0  0.9390482767660231  0.026435926449515496  0.8851699944111644  1.0000
  O   O32       1.0  0.031147491748121918  0.9421768383698889  0.081469879481169  1.0000
