data_image0
_chemical_formula_structural       Nd4H24C28S4O32
_chemical_formula_sum              "Nd4 H24 C28 S4 O32"
_cell_length_a       8.175442232034088
_cell_length_b       8.308490525055912
_cell_length_c       18.28745981903192
_cell_angle_alpha    90.00001585951685
_cell_angle_beta     89.99979207584353
_cell_angle_gamma    110.32099987358562

_space_group_name_H-M_alt    "P 1"
_space_group_IT_number       1

loop_
  _space_group_symop_operation_xyz
  'x, y, z'

loop_
  _atom_site_type_symbol
  _atom_site_label
  _atom_site_symmetry_multiplicity
  _atom_site_fract_x
  _atom_site_fract_y
  _atom_site_fract_z
  _atom_site_occupancy
  Nd  Nd1       1.0  0.7412878271303426  0.21845404437014077  0.5200754633920183  1.0000
  Nd  Nd2       1.0  0.7587181744885286  0.7815558646938567  0.020074933201541995  1.0000
  Nd  Nd3       1.0  0.258713789372095  0.7815509576300527  0.4799259775944265  1.0000
  Nd  Nd4       1.0  0.2412834420187693  0.21844913730766538  0.9799254141392949  1.0000
  H   H1        1.0  0.500753738865768  0.24383141583790993  0.651198301657473  1.0000
  H   H2        1.0  0.9992480959417092  0.7561498422234649  0.15119846745012916  1.0000
  H   H3        1.0  0.4992503096231857  0.756156788714385  0.34880313932590207  1.0000
  H   H4        1.0  0.0007499584262405328  0.24383199422219803  0.8488018798921501  1.0000
  H   H5        1.0  0.37494945639556226  0.16726763767048422  0.582624086577887  1.0000
  H   H6        1.0  0.1250459692277915  0.8327322069460904  0.08262378209705899  1.0000
  H   H7        1.0  0.6250483201671031  0.8327335467144649  0.41737626076585593  1.0000
  H   H8        1.0  0.8749498410568248  0.16727029328578166  0.917377658893983  1.0000
  H   H9        1.0  0.7772050794950475  0.6056255930301616  0.48744654207684573  1.0000
  H   H10       1.0  0.722786652581533  0.3943755744654424  0.9874482186543428  1.0000
  H   H11       1.0  0.22278932554571176  0.3943730571057528  0.512552711623897  1.0000
  H   H12       1.0  0.27720166572917293  0.6056231568749268  0.012551581874191697  1.0000
  H   H13       1.0  0.612874897703165  0.5154556478860854  0.539238445834563  1.0000
  H   H14       1.0  0.8871150127539521  0.48454410996419023  0.03923876088826009  1.0000
  H   H15       1.0  0.387118289987207  0.48454301848951786  0.46076190151277524  1.0000
  H   H16       1.0  0.11287377397217574  0.5154559047417209  0.96076158646278  1.0000
  H   H17       1.0  0.3659427384593029  0.5505776667205493  0.6170099765717224  1.0000
  H   H18       1.0  0.13405200565109968  0.44941436142946867  0.1170107021298179  1.0000
  H   H19       1.0  0.6340508223596545  0.4494119673731801  0.38298654301512863  1.0000
  H   H20       1.0  0.8659571954342977  0.5505879601511265  0.882990738850232  1.0000
  H   H21       1.0  0.3120696358967835  0.38156865464139866  0.7436623730117942  1.0000
  H   H22       1.0  0.18793203528077376  0.6184216678524732  0.2436602976417105  1.0000
  H   H23       1.0  0.6879254227726433  0.6184183802365265  0.2563352402192719  1.0000
  H   H24       1.0  0.8120730453526193  0.38157941908565357  0.7563405965188392  1.0000
  C   C1        1.0  0.5522928691157106  0.7656121739024115  0.67424906099032  1.0000
  C   C2        1.0  0.9477160675421175  0.2343856955109231  0.17425033845837123  1.0000
  C   C3        1.0  0.4477113673007409  0.23437989699486642  0.3257480054107447  1.0000
  C   C4        1.0  0.05230165495953544  0.7656165123818253  0.8257516493374835  1.0000
  C   C5        1.0  0.430928935860976  0.6009508921675035  0.6681203600548711  1.0000
  C   C6        1.0  0.06907500003271143  0.3990473308283952  0.16812227939854546  1.0000
  C   C7        1.0  0.5690650933685504  0.3990400252904323  0.33187780000007894  1.0000
  C   C8        1.0  0.9309400072729375  0.6009574925211821  0.8318786147541033  1.0000
  C   C9        1.0  0.40298477235818814  0.5114670781203684  0.7348704897518343  1.0000
  C   C10       1.0  0.09700929978461663  0.48853239552601474  0.23487073421319582  1.0000
  C   C11       1.0  0.5970094447842414  0.4885277056785497  0.2651265766576144  1.0000
  C   C12       1.0  0.9029952198291654  0.511473857359  0.7651301599481426  1.0000
  C   C13       1.0  0.5028591033591283  0.6087927157192041  0.7912844819672384  1.0000
  C   C14       1.0  0.9971570337522521  0.3912073378060725  0.2912867919933574  1.0000
  C   C15       1.0  0.49715356187181214  0.39120569080333206  0.20871313125011423  1.0000
  C   C16       1.0  0.002852259944624862  0.6087885344640965  0.7087124616950005  1.0000
  C   C17       1.0  0.6056024703849588  0.9002165132895356  0.6177944930662631  1.0000
  C   C18       1.0  0.8943952631239397  0.09978293946091549  0.11779474716583847  1.0000
  C   C19       1.0  0.39439296409084784  0.09977825426503266  0.3822053074561892  1.0000
  C   C20       1.0  0.1056095369996441  0.9002207304506553  0.882206146995102  1.0000
  C   C21       1.0  0.49844589838430414  0.5555491058107689  0.8686178031687672  1.0000
  C   C22       1.0  0.0015667454827408883  0.44446396407816735  0.368617651714814  1.0000
  C   C23       1.0  0.5015574039009678  0.4444571633199316  0.13137926323395988  1.0000
  C   C24       1.0  0.9984367447008538  0.5555461713895226  0.631381601979214  1.0000
  C   C25       1.0  0.07314899272626012  0.07090272997218248  0.520574704197834  1.0000
  C   C26       1.0  0.4268435203733674  0.9291011808943279  0.020578291683797496  1.0000
  C   C27       1.0  0.9268436339493604  0.9291011023516446  0.47942454950469926  1.0000
  C   C28       1.0  0.5731505115169355  0.070906501517463  0.9794297111826393  1.0000
  S   S1        1.0  0.633898522053201  0.8084785886930703  0.761865867381303  1.0000
  S   S2        1.0  0.8661102920121878  0.19152421693544133  0.2618672732061214  1.0000
  S   S3        1.0  0.3661051533460622  0.19151864815176364  0.23813065219774635  1.0000
  S   S4        1.0  0.13389787963816963  0.8084819872264929  0.7381336209522188  1.0000
  O   O1        1.0  0.5116265322365194  0.8844861161416303  0.5597903405076536  1.0000
  O   O2        1.0  0.9883701237663659  0.11550576150457198  0.05979153615454887  1.0000
  O   O3        1.0  0.48837105642539314  0.11551120190566168  0.44020836636759236  1.0000
  O   O4        1.0  0.011631865845203121  0.884490208208419  0.9402104516538116  1.0000
  O   O5        1.0  0.7415748901532595  0.03133589046681349  0.6278022771322326  1.0000
  O   O6        1.0  0.758418353417774  0.9686648862275148  0.1278034117314419  1.0000
  O   O7        1.0  0.2584181096314922  0.968658909569804  0.37219752339221657  1.0000
  O   O8        1.0  0.24158129682847826  0.031341431625598694  0.8721942014970876  1.0000
  O   O9        1.0  0.3840909242787163  0.41260813242986666  0.8855354916380448  1.0000
  O   O10       1.0  0.1159318689908275  0.5873996003665594  0.38553134310720333  1.0000
  O   O11       1.0  0.6159150931879651  0.5873955212400117  0.11446594934469798  1.0000
  O   O12       1.0  0.8840733995603429  0.41260535291388567  0.6144673637622303  1.0000
  O   O13       1.0  0.6074654164083597  0.6548586920275238  0.9128699020970288  1.0000
  O   O14       1.0  0.8925580713233078  0.345164165829523  0.4128723777840334  1.0000
  O   O15       1.0  0.3925460341840221  0.3451564957025397  0.08712716429958788  1.0000
  O   O16       1.0  0.10745000772529074  0.654848487645509  0.5871285163747898  1.0000
  O   O17       1.0  0.051355222709787526  0.2124876214512668  0.5309791285194904  1.0000
  O   O18       1.0  0.4486317648049862  0.7875047300132889  0.030978834472662687  1.0000
  O   O19       1.0  0.9486333761058603  0.7875085269143297  0.46902176565425424  1.0000
  O   O20       1.0  0.5513585197618908  0.21249268547416017  0.969024793813787  1.0000
  O   O21       1.0  0.20431453375455527  0.033275676443153684  0.5400048488425923  1.0000
  O   O22       1.0  0.2956741545774266  0.9667282358032452  0.040007562566998396  1.0000
  O   O23       1.0  0.7956755656258211  0.9667346376751451  0.45999495168522475  1.0000
  O   O24       1.0  0.7043177231462252  0.0332768961211514  0.9599971593642348  1.0000
  O   O25       1.0  0.4947981788585025  0.243456994104278  0.5981625098778592  1.0000
  O   O26       1.0  0.005197857551898701  0.7565415130426486  0.09816293904138007  1.0000
  O   O27       1.0  0.5052003466294012  0.7565428906727688  0.4018383842879912  1.0000
  O   O28       1.0  0.9947982332473871  0.2434584042171153  0.9018374083036631  1.0000
  O   O29       1.0  0.6813757086592531  0.4956141194613437  0.49883365164610166  1.0000
  O   O30       1.0  0.8186154537729919  0.5043857369232825  0.9988340914527353  1.0000
  O   O31       1.0  0.3186174790335485  0.5043845469149274  0.5011661488784468  1.0000
  O   O32       1.0  0.18137726550681776  0.49561164608810754  0.0011646154265107995  1.0000
