data_image0
_chemical_formula_structural       Al4H24C56N4O20
_chemical_formula_sum              "Al4 H24 C56 N4 O20"
_cell_length_a       6.673845798131259
_cell_length_b       20.066838288315193
_cell_length_c       23.317805620189045
_cell_angle_alpha    86.6366899390649
_cell_angle_beta     89.99952409304402
_cell_angle_gamma    90.00048567945004

_space_group_name_H-M_alt    "P 1"
_space_group_IT_number       1

loop_
  _space_group_symop_operation_xyz
  'x, y, z'

loop_
  _atom_site_type_symbol
  _atom_site_label
  _atom_site_symmetry_multiplicity
  _atom_site_fract_x
  _atom_site_fract_y
  _atom_site_fract_z
  _atom_site_occupancy
  Al  Al1       1.0  0.23641032467842393  0.2503111598135064  0.24995012502750305  1.0000
  Al  Al2       1.0  0.7635294792723711  0.7495600520935923  0.7503462699867496  1.0000
  Al  Al3       1.0  0.7364623193281618  0.2495554851834498  0.2503451202661324  1.0000
  Al  Al4       1.0  0.2635868667884226  0.7503112411044128  0.749951286786242  1.0000
  H   H1        1.0  0.31177318247682717  0.013129465002251104  0.4529964858757295  1.0000
  H   H2        1.0  0.6948151388699559  0.9439030388542023  0.5145189900617098  1.0000
  H   H3        1.0  0.8052009600320247  0.4439032344462818  0.014517263016891496  1.0000
  H   H4        1.0  0.18822403635537202  0.5131311555546532  0.9530072406444673  1.0000
  H   H5        1.0  0.30250197489717584  0.098192385183097  0.37125323699217455  1.0000
  H   H6        1.0  0.6985378081504762  0.863057643302845  0.5992647637173931  1.0000
  H   H7        1.0  0.8014721535868504  0.3630544750325769  0.0992609054964149  1.0000
  H   H8        1.0  0.1974863705667929  0.5981941093047142  0.8712639734794436  1.0000
  H   H9        1.0  0.6761229115930546  0.13064680889594626  0.4009543256577004  1.0000
  H   H10       1.0  0.3189739523720263  0.906939733692937  0.6281685275566673  1.0000
  H   H11       1.0  0.181044176940155  0.4069400051158852  0.12817434585996776  1.0000
  H   H12       1.0  0.8238806036766989  0.6306471645808003  0.9009467779320345  1.0000
  H   H13       1.0  0.6857881826719493  0.04930177772688182  0.48536513248637897  1.0000
  H   H14       1.0  0.313797836183646  0.9917960773541736  0.5462441472076165  1.0000
  H   H15       1.0  0.18622640615134867  0.4918006593115719  0.0462529503099063  1.0000
  H   H16       1.0  0.8142256800627977  0.5492996062969198  0.9853576105659343  1.0000
  H   H17       1.0  0.7007388126381072  0.0059158152858885  0.0629594552404171  1.0000
  H   H18       1.0  0.30091965264090703  0.9944840056630329  0.9369528048529929  1.0000
  H   H19       1.0  0.19908151136483096  0.4944853121330653  0.4369512830971019  1.0000
  H   H20       1.0  0.7992490376900748  0.5059189886054655  0.5629609681329412  1.0000
  H   H21       1.0  0.48602750367281544  0.16649031911408235  0.23339980255189366  1.0000
  H   H22       1.0  0.5153702896768807  0.8345999499572798  0.7642689256137131  1.0000
  H   H23       1.0  0.9846181631116057  0.33459766639653316  0.2642690006580962  1.0000
  H   H24       1.0  0.013953673480074303  0.6664942314320328  0.7333975782731628  1.0000
  C   C1        1.0  0.4823893066700578  0.3270858391500441  0.32600578348807824  1.0000
  C   C2        1.0  0.5090516510409415  0.6728458091236506  0.6742341891622202  1.0000
  C   C3        1.0  0.9909339188118695  0.17284138842659053  0.17423683471010779  1.0000
  C   C4        1.0  0.017636592476641504  0.8270869676804365  0.8260082842766251  1.0000
  C   C5        1.0  0.4916986551432602  0.33218539527218377  0.170126612451952  1.0000
  C   C6        1.0  0.5173048902616841  0.6676158700344744  0.8300260739974519  1.0000
  C   C7        1.0  0.9826749396447954  0.16761659771552223  0.33002571517494056  1.0000
  C   C8        1.0  0.008316502483793902  0.8321915020218357  0.6701286885263542  1.0000
  C   C9        1.0  0.1725840158642669  0.0396476537424704  0.4426876508688978  1.0000
  C   C10       1.0  0.8310209365623537  0.9373785992648391  0.5400731794298891  1.0000
  C   C11       1.0  0.6689926122587337  0.43737879986601047  0.040071719744688  1.0000
  C   C12       1.0  0.3274200852132055  0.5396452523729424  0.9426921302092451  1.0000
  C   C13       1.0  0.1681096284935819  0.08659067141729081  0.39645591826039356  1.0000
  C   C14       1.0  0.8325794607525482  0.8914664040136488  0.5870344546812731  1.0000
  C   C15       1.0  0.6674329942524225  0.3914636084221216  0.0870330061691433  1.0000
  C   C16       1.0  0.33188057613381977  0.5865921073004402  0.8964629555587535  1.0000
  C   C17       1.0  0.9885067672425978  0.1190439960926994  0.38079114277242343  1.0000
  C   C18       1.0  0.008541154275384603  0.8804097264961186  0.6190940466967162  1.0000
  C   C19       1.0  0.4914782861580846  0.38040696930614354  0.11909410958757859  1.0000
  C   C20       1.0  0.5114837665789693  0.6190442441533293  0.8807915103902956  1.0000
  C   C21       1.0  0.8145898305510074  0.1046026964795885  0.4129211118826887  1.0000
  C   C22       1.0  0.18267377089854625  0.9159423279111677  0.6031406621099862  1.0000
  C   C23       1.0  0.3173499344296717  0.41594367468272236  0.10314492138145677  1.0000
  C   C24       1.0  0.6854052533037702  0.6046028272065627  0.9129172727402872  1.0000
  C   C25       1.0  0.8206450133381296  0.05845042013537239  0.4597030640713626  1.0000
  C   C26       1.0  0.1793006989404162  0.9627374374468972  0.5567529837762919  1.0000
  C   C27       1.0  0.320719601402729  0.4627377718623862  0.05675766869048719  1.0000
  C   C28       1.0  0.6793609656192244  0.5584480368261993  0.9596992436116522  1.0000
  C   C29       1.0  0.9991052228220667  0.024511116237370296  0.4752626437603169  1.0000
  C   C30       1.0  0.0035017142549165006  0.9745594887641577  0.5243121759041571  1.0000
  C   C31       1.0  0.49651849166528456  0.4745591310692205  0.024313940483232  1.0000
  C   C32       1.0  0.5009085234191134  0.5245106611986188  0.9752656111812996  1.0000
  C   C33       1.0  0.8322181930847422  0.0030715700518300004  0.03567406467728059  1.0000
  C   C34       1.0  0.1693233994923489  0.9973881203117331  0.9641907862716222  1.0000
  C   C35       1.0  0.33067383836825565  0.4973887680352292  0.4641911555789662  1.0000
  C   C36       1.0  0.6677675926726109  0.5030742670788372  0.535675836954219  1.0000
  C   C37       1.0  0.9960130435986728  0.0448728899065642  0.0450878944670663  1.0000
  C   C38       1.0  0.005459623129461001  0.9555793239698857  0.9547769767931766  1.0000
  C   C39       1.0  0.494537142716844  0.4555822268914512  0.4547744412142051  1.0000
  C   C40       1.0  0.5039687189126952  0.5448739690045342  0.5450904221760382  1.0000
  C   C41       1.0  0.1660364497546638  0.041367845994578496  0.0084550250209929  1.0000
  C   C42       1.0  0.835407748939417  0.9591283710458072  0.9913611914094602  1.0000
  C   C43       1.0  0.6645838962705141  0.45913143537816137  0.49136145068136733  1.0000
  C   C44       1.0  0.3339534327662079  0.5413687083489762  0.5084556170092328  1.0000
  C   C45       1.0  0.991751254229854  0.0892252723088802  0.08982039023938879  1.0000
  C   C46       1.0  0.010269818626298402  0.9110826136530366  0.9101496740495776  1.0000
  C   C47       1.0  0.48973668762688055  0.4110850007429789  0.41014714930010127  1.0000
  C   C48       1.0  0.5082402403449678  0.5892289975870425  0.5898207548101267  1.0000
  C   C49       1.0  0.014264837923775503  0.8726039042228064  0.8717379770764139  1.0000
  C   C50       1.0  0.9898120174472  0.12756128878716314  0.1283583207943622  1.0000
  C   C51       1.0  0.510169837477804  0.6275703379623039  0.6283535129176413  1.0000
  C   C52       1.0  0.4857542975157686  0.372604698429079  0.3717367530284363  1.0000
  C   C53       1.0  0.6644895706959703  0.9184024633952249  0.9824491422808063  1.0000
  C   C54       1.0  0.33705352089619817  0.08205554039302142  0.017380063108056697  1.0000
  C   C55       1.0  0.1629413247646667  0.582054371130404  0.5173797077384563  1.0000
  C   C56       1.0  0.8355046021092251  0.41840761444124996  0.482449489908987  1.0000
  N   N1        1.0  0.5206338020673584  0.8866875856285078  0.9754901760417382  1.0000
  N   N2        1.0  0.48095873620107454  0.11374751900684289  0.024330930429407302  1.0000
  N   N3        1.0  0.019042467618874105  0.6137494560262554  0.5243287015294911  1.0000
  N   N4        1.0  0.9793585076715206  0.38669281481107726  0.47548938203352975  1.0000
  O   O1        1.0  0.6614038789957776  0.3091473356154922  0.18677300538965372  1.0000
  O   O2        1.0  0.35064894262358587  0.6822632706315019  0.8055666713050939  1.0000
  O   O3        1.0  0.14933442448500503  0.18226262499185714  0.3055618163137694  1.0000
  O   O4        1.0  0.8386003691928395  0.8091535311192432  0.6867761509472956  1.0000
  O   O5        1.0  0.3114654255665457  0.305835639210315  0.3114916080128012  1.0000
  O   O6        1.0  0.6776348286062017  0.6855707674136154  0.6965436071080473  1.0000
  O   O7        1.0  0.8223531778904772  0.18556208072924824  0.19654917224897156  1.0000
  O   O8        1.0  0.18853061801601007  0.8058358638714722  0.8114942052756506  1.0000
  O   O9        1.0  0.3234787382384994  0.3184660971654906  0.1941027689175954  1.0000
  O   O10       1.0  0.6885035397071492  0.6900085450869256  0.8140073334877795  1.0000
  O   O11       1.0  0.8114862955238493  0.1900084585681228  0.31401031955837766  1.0000
  O   O12       1.0  0.17652179943308255  0.8184712348369771  0.6941058059749352  1.0000
  O   O13       1.0  0.16134624136603287  0.19514284943307558  0.18816371054862907  1.0000
  O   O14       1.0  0.8488577320987005  0.8132196103678664  0.8044010951593633  1.0000
  O   O15       1.0  0.6511348461793105  0.3132206877235859  0.30440052717341365  1.0000
  O   O16       1.0  0.33864911699623695  0.695144697915488  0.688164720174157  1.0000
  O   O17       1.0  0.48592571573010457  0.20924152658335524  0.25070879777885574  1.0000
  O   O18       1.0  0.5138657520714675  0.7905624441410524  0.7493244839433401  1.0000
  O   O19       1.0  0.9861358709756376  0.29056124606470496  0.24932326452354658  1.0000
  O   O20       1.0  0.014057164436792401  0.709244331542159  0.7507082943753147  1.0000
