data_image0
_chemical_formula_structural       Zn8H72C96N12O26
_chemical_formula_sum              "Zn8 H72 C96 N12 O26"
_cell_length_a       27.124360713269194
_cell_length_b       27.684031843156006
_cell_length_c       27.585425894567923
_cell_angle_alpha    89.91026697491714
_cell_angle_beta     61.09378761013849
_cell_angle_gamma    60.20046384827795

_space_group_name_H-M_alt    "P 1"
_space_group_IT_number       1

loop_
  _space_group_symop_operation_xyz
  'x, y, z'

loop_
  _atom_site_type_symbol
  _atom_site_label
  _atom_site_symmetry_multiplicity
  _atom_site_fract_x
  _atom_site_fract_y
  _atom_site_fract_z
  _atom_site_occupancy
  Zn  Zn1       1.0  0.9460761406108132  0.022896415715699392  0.9665801038248459  1.0000
  Zn  Zn2       1.0  0.05796321036351775  0.9082594915185991  0.9657467267389422  1.0000
  Zn  Zn3       1.0  0.9476891952994606  0.019270435040290586  0.08055916891704831  1.0000
  Zn  Zn4       1.0  0.0660319075509079  0.020834102536390696  0.9657129399844777  1.0000
  Zn  Zn5       1.0  0.06513953107310051  0.46324253162615026  0.5221070365431899  1.0000
  Zn  Zn6       1.0  0.9481045900840003  0.5777539756829098  0.5262315316483709  1.0000
  Zn  Zn7       1.0  0.9473808640081953  0.4620144086655527  0.520942958750979  1.0000
  Zn  Zn8       1.0  0.06310348973571685  0.46980918842192654  0.409228367170158  1.0000
  H   H1        1.0  0.05564046977608676  0.5567503548545076  0.7422710641598088  1.0000
  H   H2        1.0  0.027663646697007545  0.6219654598773728  0.7810723465101859  1.0000
  H   H3        1.0  0.04629857953153758  0.5439186275645227  0.6631963123907596  1.0000
  H   H4        1.0  0.9627578030830292  0.693818792194669  0.609373391318492  1.0000
  H   H5        1.0  0.9653353797390879  0.7512716202147941  0.6764233981547393  1.0000
  H   H6        1.0  0.043170361668153134  0.6890419145138721  0.7607774208802384  1.0000
  H   H7        1.0  0.9288590715731503  0.7996431578925323  0.7624680115132562  1.0000
  H   H8        1.0  0.08046309040822315  0.740699574021377  0.771060501096592  1.0000
  H   H9        1.0  0.09081612105597991  0.797203205215524  0.8315339445025884  1.0000
  H   H10       1.0  0.8821547033407671  0.9405967751973133  0.9069680704436397  1.0000
  H   H11       1.0  0.8434963536760592  0.8608914993602778  0.8454541086337881  1.0000
  H   H12       1.0  0.8151208603064295  0.9256784828388114  0.8856149330136203  1.0000
  H   H13       1.0  0.36988504947053974  0.3849798570713644  0.42819395159704504  1.0000
  H   H14       1.0  0.44662192975270193  0.3470707786926254  0.3639761771602536  1.0000
  H   H15       1.0  0.26781782518865077  0.40746979727538957  0.4403812852413013  1.0000
  H   H16       1.0  0.2789363583771589  0.3430515478953707  0.2914219757600165  1.0000
  H   H17       1.0  0.40598115147442115  0.28256132024427666  0.23577970518891087  1.0000
  H   H18       1.0  0.5053717373402833  0.2652361569815156  0.30023036190333124  1.0000
  H   H19       1.0  0.5079005750177216  0.2681231410908254  0.18787624750108747  1.0000
  H   H20       1.0  0.6031367017154494  0.17860358404598034  0.2523018347535738  1.0000
  H   H21       1.0  0.7296393353436555  0.10925530267962101  0.1971313133687716  1.0000
  H   H22       1.0  0.747941975880913  0.16713433834210176  0.04837564434355097  1.0000
  H   H23       1.0  0.5727895379443595  0.28831142697747225  0.1238707522553142  1.0000
  H   H24       1.0  0.6497561563995761  0.24882940307256257  0.059986509462447775  1.0000
  H   H25       1.0  0.190451997234689  0.2458298173728294  0.604559505315521  1.0000
  H   H26       1.0  0.16396106564149454  0.2077926745944296  0.6449323409740161  1.0000
  H   H27       1.0  0.12327891445048071  0.32258594856093475  0.5808088079069053  1.0000
  H   H28       1.0  0.9173242853941304  0.37553107079018827  0.6532363130913409  1.0000
  H   H29       1.0  0.9280699038323518  0.3113748017678687  0.716076792515551  1.0000
  H   H30       1.0  0.07889822728735403  0.22885127599454336  0.7273466533186975  1.0000
  H   H31       1.0  0.9668136609327006  0.22480552008174468  0.729661942563695  1.0000
  H   H32       1.0  0.045281604719733116  0.21410916500744998  0.8129950532403853  1.0000
  H   H33       1.0  0.05282839681474631  0.15207766679892387  0.8781052345005449  1.0000
  H   H34       1.0  0.9729063265831142  0.07920693973649408  0.8243138347633453  1.0000
  H   H35       1.0  0.985570066039415  0.14196648441117787  0.7085234440303197  1.0000
  H   H36       1.0  0.9606768817402693  0.10188605923413259  0.7465324773110782  1.0000
  H   H37       1.0  0.8199807311702259  0.7888385318104055  0.4320452092921272  1.0000
  H   H38       1.0  0.8452448235147402  0.8014483009443792  0.3671280136041446  1.0000
  H   H39       1.0  0.8879548895415612  0.7012763918673312  0.44537182082048316  1.0000
  H   H40       1.0  0.09096285711516583  0.5725819296175272  0.2983277805599727  1.0000
  H   H41       1.0  0.07919346892698097  0.643245372963534  0.24181524262042584  1.0000
  H   H42       1.0  0.9313109808572263  0.7996608713992616  0.3025867661498154  1.0000
  H   H43       1.0  0.038761205806317034  0.6920897582529688  0.1926237815645137  1.0000
  H   H44       1.0  0.9707012841096729  0.8480427324159475  0.25200533590999197  1.0000
  H   H45       1.0  0.9650044533701986  0.9186807366250775  0.1954337671712381  1.0000
  H   H46       1.0  0.032476036171026255  0.7903757441444623  0.05055956269944762  1.0000
  H   H47       1.0  0.01527194828699419  0.6908877719243874  0.13010943015907364  1.0000
  H   H48       1.0  0.039198828561907845  0.703418029268718  0.0652740819520615  1.0000
  H   H49       1.0  0.6531797264680179  0.7734475987645837  0.7384509914148509  1.0000
  H   H50       1.0  0.5741563024543627  0.7875976060164259  0.7754887478879979  1.0000
  H   H51       1.0  0.7506638685100813  0.6872124778874349  0.6620891737698785  1.0000
  H   H52       1.0  0.7263679590536329  0.5604325105219913  0.6060420404901522  1.0000
  H   H53       1.0  0.5999897571534732  0.6314663618002994  0.6696143139727367  1.0000
  H   H54       1.0  0.5112351564959353  0.7878416575438006  0.7533051212752753  1.0000
  H   H55       1.0  0.49734105977221094  0.6843934767363818  0.7553635935598351  1.0000
  H   H56       1.0  0.4097269283381595  0.8449528853432181  0.7708408782606709  1.0000
  H   H57       1.0  0.28400579637470713  0.919083524851089  0.8343327971443061  1.0000
  H   H58       1.0  0.2582377930415445  0.7869573565041463  0.9001291610433314  1.0000
  H   H59       1.0  0.4358355817789885  0.6787484833112101  0.835460034626415  1.0000
  H   H60       1.0  0.3556351155516281  0.6955894654576582  0.8751694050134022  1.0000
  H   H61       1.0  0.061617816745801746  0.382294522594833  0.19815968120258987  1.0000
  H   H62       1.0  0.03722360230307234  0.3425233463645795  0.1824627096075488  1.0000
  H   H63       1.0  0.04768484020464576  0.4045568348948975  0.287936371906035  1.0000
  H   H64       1.0  0.9644478489394928  0.3324660144473128  0.417117182029223  1.0000
  H   H65       1.0  0.9735477744733316  0.27055727718139616  0.34380796747843334  1.0000
  H   H66       1.0  0.05438839229620383  0.2597420785101859  0.18568196766181444  1.0000
  H   H67       1.0  0.9422323742558233  0.255661938123886  0.2897854033169837  1.0000
  H   H68       1.0  0.09114579349484589  0.17371027599702413  0.13353129436777783  1.0000
  H   H69       1.0  0.10102292576742394  0.10669961538378198  0.06425986885930264  1.0000
  H   H70       1.0  0.8979409684085836  0.15624264971444998  0.19322044982487804  1.0000
  H   H71       1.0  0.8570088297489064  0.27548606999086894  0.29034371490794103  1.0000
  H   H72       1.0  0.831063503539724  0.23536886538740015  0.27825698601448323  1.0000
  C   C1        1.0  0.027236812151968985  0.6220745391489543  0.7068313524554315  1.0000
  C   C2        1.0  0.028178712273472645  0.5897051510347566  0.6670597624973524  1.0000
  C   C3        1.0  0.004853427559233285  0.6153533300773117  0.6324763227922717  1.0000
  C   C4        1.0  0.9803799854431788  0.6744489122585617  0.6368536411263932  1.0000
  C   C5        1.0  0.9811528791228029  0.7062442981242185  0.6748930099780567  1.0000
  C   C6        1.0  0.004350261666090172  0.6815439169297761  0.7104378372668451  1.0000
  C   C7        1.0  0.006603134805033056  0.7146741746478256  0.7491397563371365  1.0000
  C   C8        1.0  0.9680273924716686  0.7739638393248354  0.7714302298993021  1.0000
  C   C9        1.0  0.9743550898892864  0.8068722140536547  0.8063761512373588  1.0000
  C   C10       1.0  0.03619629464296993  0.7838939802619008  0.8023091966173155  1.0000
  C   C11       1.0  0.04280326160061792  0.8152761726568795  0.8351142344976739  1.0000
  C   C12       1.0  0.9867838791499824  0.8723433559193976  0.872605991572392  1.0000
  C   C13       1.0  0.925056620984357  0.8963942294537613  0.8772151856839798  1.0000
  C   C14       1.0  0.9174469873570886  0.8642691388760255  0.845447139631723  1.0000
  C   C15       1.0  0.9926722086467376  0.9073855279377484  0.907795394456514  1.0000
  C   C16       1.0  0.005976439094084253  0.5796483294338869  0.5912137004690691  1.0000
  C   C17       1.0  0.37026461152386503  0.3487449607838542  0.3636114115237206  1.0000
  C   C18       1.0  0.29890548677754225  0.3803621355219775  0.3951204654803036  1.0000
  C   C19       1.0  0.2661162270062434  0.3786014902240637  0.36940402768008346  1.0000
  C   C20       1.0  0.3049493473132402  0.3444418627354508  0.3109708639515175  1.0000
  C   C21       1.0  0.37568967786442903  0.3115118749014343  0.28011288408978163  1.0000
  C   C22       1.0  0.4102181294228017  0.3122410804222611  0.30503959858823043  1.0000
  C   C23       1.0  0.4842891447505976  0.2761373491925453  0.27349114901831234  1.0000
  C   C24       1.0  0.5288045624945498  0.2547662375661658  0.2146246286827632  1.0000
  C   C25       1.0  0.6026688811978502  0.2148810019925307  0.18313571953589752  1.0000
  C   C26       1.0  0.6350355900422215  0.1774963199549688  0.20807044719662565  1.0000
  C   C27       1.0  0.7054403136185955  0.13813953606512536  0.177467119714322  1.0000
  C   C28       1.0  0.7460064936234118  0.1341784495734402  0.11922853723361031  1.0000
  C   C29       1.0  0.7153963903435566  0.17069152336935636  0.09348657301469404  1.0000
  C   C30       1.0  0.6445773616391222  0.21184115161841527  0.1247088182165825  1.0000
  C   C31       1.0  0.8216428837770522  0.0912807819442492  0.08391645619051515  1.0000
  C   C32       1.0  0.19006058777821977  0.4125222737512503  0.40475624726583004  1.0000
  C   C33       1.0  0.08907020849603949  0.2808885013602591  0.6435032430407689  1.0000
  C   C34       1.0  0.08111463094473952  0.3191448862513083  0.6104690280649763  1.0000
  C   C35       1.0  0.02000698322923009  0.35277215799212047  0.6135688834669821  1.0000
  C   C36       1.0  0.9649051631510942  0.34892555439260053  0.6508054452146157  1.0000
  C   C37       1.0  0.9717249295020524  0.3124553572216797  0.6850142709025278  1.0000
  C   C38       1.0  0.03295781325159205  0.27778039652128667  0.6825551628204565  1.0000
  C   C39       1.0  0.04000393717251432  0.23969299706948274  0.7184741390771735  1.0000
  C   C40       1.0  0.0032063162367066108  0.21633760420660042  0.7410466644098009  1.0000
  C   C41       1.0  0.007855356736825997  0.18034856421831338  0.779076705350498  1.0000
  C   C42       1.0  0.031359312100150284  0.1831036951218721  0.814117664479383  1.0000
  C   C43       1.0  0.03489202372171012  0.14936970670372318  0.8510724251170957  1.0000
  C   C44       1.0  0.012717020489183994  0.11234231725184428  0.854990619415581  1.0000
  C   C45       1.0  0.9892019125643259  0.10872194898670531  0.8208033046257625  1.0000
  C   C46       1.0  0.9875660834541833  0.1412268221115127  0.782029949100803  1.0000
  C   C47       1.0  0.01269404781503882  0.0770583195629371  0.895857004610818  1.0000
  C   C48       1.0  0.014689406917945316  0.39272181286003155  0.5772965974909354  1.0000
  C   C49       1.0  0.9205059739981181  0.7284766889099499  0.36836660114438063  1.0000
  C   C50       1.0  0.9291786559867955  0.68918200765885  0.40038359382545957  1.0000
  C   C51       1.0  0.9898508009506486  0.633400417642825  0.3752983080875297  1.0000
  C   C52       1.0  0.04377131208890016  0.616046939186887  0.317235555732502  1.0000
  C   C53       1.0  0.03631797814291104  0.6553635244872139  0.28590650599253553  1.0000
  C   C54       1.0  0.975522524303074  0.7118853182297539  0.30996555551192984  1.0000
  C   C55       1.0  0.9685410974717995  0.7530984785712389  0.2771008930689051  1.0000
  C   C56       1.0  0.004330675777851112  0.7386166938817806  0.21807427260959855  1.0000
  C   C57       1.0  0.001270098823859042  0.7797592216006777  0.1851024088736537  1.0000
  C   C58       1.0  0.982101069892174  0.8360725452367175  0.20842758444992865  1.0000
  C   C59       1.0  0.9797464147762014  0.8753804669133273  0.17701559474335238  1.0000
  C   C60       1.0  0.998865147401226  0.8581334984933945  0.11951160714794175  1.0000
  C   C61       1.0  0.018452715515529437  0.8024895859047587  0.09512444268273862  1.0000
  C   C62       1.0  0.018801937099752367  0.7632797904950832  0.12730724626761963  1.0000
  C   C63       1.0  0.998842243649534  0.8986682209152046  0.08393331327970087  1.0000
  C   C64       1.0  0.9966694774808788  0.5925116479160051  0.4104353380699807  1.0000
  C   C65       1.0  0.6459529816841181  0.7150102715689143  0.7024339328485286  1.0000
  C   C66       1.0  0.7168347663587367  0.6754009205649963  0.6646572649124636  1.0000
  C   C67       1.0  0.7459160771278307  0.620023324422284  0.6303147098792438  1.0000
  C   C68       1.0  0.7034686328542037  0.6035093171038495  0.6331738378633532  1.0000
  C   C69       1.0  0.6330226386494715  0.6432318738916007  0.6693104178253649  1.0000
  C   C70       1.0  0.6022980446465309  0.6994760244449765  0.7044797251825871  1.0000
  C   C71       1.0  0.5287159304979667  0.7419250786584398  0.7419216100609206  1.0000
  C   C72       1.0  0.4803574196691614  0.7302883393862271  0.7644731074265465  1.0000
  C   C73       1.0  0.40690391027577977  0.7738463148991599  0.8008999887908176  1.0000
  C   C74       1.0  0.376625721263693  0.8325328332385238  0.8005866481759442  1.0000
  C   C75       1.0  0.3065217153240668  0.8740657950747702  0.8352865869096319  1.0000
  C   C76       1.0  0.26378529858230604  0.8569886802460045  0.8709462302115228  1.0000
  C   C77       1.0  0.29230702078960036  0.7992024604490028  0.8719262364995615  1.0000
  C   C78       1.0  0.36309051594888325  0.7575593655064026  0.838494823047384  1.0000
  C   C79       1.0  0.18793213664725558  0.8990616747165273  0.9077232681765465  1.0000
  C   C80       1.0  0.82195697408288  0.5801045693521161  0.5908425902159495  1.0000
  C   C81       1.0  0.03334832754734412  0.3428873697466201  0.2587008789536966  1.0000
  C   C82       1.0  0.030917697290839045  0.37529998375755697  0.2997011240349963  1.0000
  C   C83       1.0  0.005993686073168196  0.3719857557379953  0.3564115643366109  1.0000
  C   C84       1.0  0.983387078509594  0.3351202492164375  0.3729637522147867  1.0000
  C   C85       1.0  0.9877931925188221  0.3014201281870753  0.33199555146233456  1.0000
  C   C86       1.0  0.01250049786852263  0.3040287373483679  0.2744466133024801  1.0000
  C   C87       1.0  0.017685683073167993  0.26813737730903137  0.2315063342784285  1.0000
  C   C88       1.0  0.9809602801165768  0.24469153921799597  0.24386982858281675  1.0000
  C   C89       1.0  0.987539395620132  0.20597257703872873  0.2023428513225484  1.0000
  C   C90       1.0  0.04774310789672849  0.17137841986175315  0.1461179048180483  1.0000
  C   C91       1.0  0.0541395441167012  0.13324644328844218  0.10743286186068701  1.0000
  C   C92       1.0  0.9998583134517035  0.12734195190027714  0.12518452612184933  1.0000
  C   C93       1.0  0.9396439445949127  0.16112072531117144  0.18052746694690572  1.0000
  C   C94       1.0  0.9318211080021044  0.20137867048993738  0.21890640768380357  1.0000
  C   C95       1.0  0.005004809689936013  0.08551188282476117  0.08596381808391132  1.0000
  C   C96       1.0  0.00431204059147216  0.4076736612475144  0.3983615602490147  1.0000
  N   N1        1.0  0.05033524561792291  0.5955869663396313  0.7411087229557296  1.0000
  N   N2        1.0  0.8553215463849143  0.8889807040590154  0.8510299477371606  1.0000
  N   N3        1.0  0.401477407783503  0.35171725738960885  0.3902888950726435  1.0000
  N   N4        1.0  0.6159228050021708  0.24786812005259407  0.09776789280802248  1.0000
  N   N5        1.0  0.15076792597893976  0.24754151808072317  0.6391526654586245  1.0000
  N   N6        1.0  0.9643527397755207  0.1364762539786781  0.7481605882559208  1.0000
  N   N7        1.0  0.8593992917671756  0.7836474915925533  0.3940244876194541  1.0000
  N   N8        1.0  0.037886413910854386  0.7081986015032766  0.10239744719419248  1.0000
  N   N9        1.0  0.6189703373310709  0.7696678076657973  0.7362050216967476  1.0000
  N   N10       1.0  0.38937995293363775  0.7005698942213597  0.8412703894484608  1.0000
  N   N11       1.0  0.05785269482313986  0.3476912001503933  0.20270802903682045  1.0000
  N   N12       1.0  0.8707164762150157  0.23510412336997888  0.2733987283877968  1.0000
  O   O1        1.0  0.005565870639593169  0.99361748763269  0.9952517587151846  1.0000
  O   O2        1.0  0.046752093304157256  0.8810111372815465  0.9082153624690719  1.0000
  O   O3        1.0  0.9430133067593972  0.9613915634514854  0.9352587846861056  1.0000
  O   O4        1.0  0.977730821739215  0.6063717781260465  0.5648534027536483  1.0000
  O   O5        1.0  0.03504531830459715  0.5248332851080375  0.585285413669574  1.0000
  O   O6        1.0  0.8494892788219914  0.06325171993853469  0.1100658470096364  1.0000
  O   O7        1.0  0.8530479447836895  0.08591714186432135  0.029499580095780763  1.0000
  O   O8        1.0  0.16127805950929291  0.4169244399271577  0.377920667155017  1.0000
  O   O9        1.0  0.1592266568417673  0.43468477376267567  0.45968766508642017  1.0000
  O   O10       1.0  0.043160409465919286  0.07412753968381479  0.9206231711097601  1.0000
  O   O11       1.0  0.9815379002534003  0.05228480102957179  0.9028747193901127  1.0000
  O   O12       1.0  0.9628577582776361  0.4165287955799142  0.5736895446442247  1.0000
  O   O13       1.0  0.06342832492244102  0.3998559870203379  0.5523181282988219  1.0000
  O   O14       1.0  0.9708691577125136  0.9519388600231974  0.11032072329496861  1.0000
  O   O15       1.0  0.026932810588746817  0.8768317796435025  0.02954155873678827  1.0000
  O   O16       1.0  0.049017119286894235  0.5394857322115952  0.38365942300222144  1.0000
  O   O17       1.0  0.9492701371644471  0.6137721204099904  0.4648818041567965  1.0000
  O   O18       1.0  0.1626186040107385  0.9534756731817353  0.9131869521148276  1.0000
  O   O19       1.0  0.15409210099563342  0.8766080728288088  0.9311462673860476  1.0000
  O   O20       1.0  0.848837183931593  0.5268040118658205  0.5656155229310188  1.0000
  O   O21       1.0  0.8545261929349549  0.6030497854035557  0.5855818591949175  1.0000
  O   O22       1.0  0.05308734202252911  0.06497117708086358  0.0318380274744143  1.0000
  O   O23       1.0  0.9601154166138525  0.07385186467320888  0.11024521341624931  1.0000
  O   O24       1.0  0.9716079280441929  0.4111115393235565  0.4520758392682895  1.0000
  O   O25       1.0  0.036070623493294866  0.432115434185313  0.3766946060426548  1.0000
  O   O26       1.0  0.004870041031573278  0.4922868052863975  0.49426116950654375  1.0000
