data_image0
_chemical_formula_structural       Mg6H32C52N4O20
_chemical_formula_sum              "Mg6 H32 C52 N4 O20"
_cell_length_a       11.011322070412552
_cell_length_b       15.060667170069863
_cell_length_c       15.060682002740684
_cell_angle_alpha    72.24749866888132
_cell_angle_beta     87.99082518766163
_cell_angle_gamma    87.99092668943692

_space_group_name_H-M_alt    "P 1"
_space_group_IT_number       1

loop_
  _space_group_symop_operation_xyz
  'x, y, z'

loop_
  _atom_site_type_symbol
  _atom_site_label
  _atom_site_symmetry_multiplicity
  _atom_site_fract_x
  _atom_site_fract_y
  _atom_site_fract_z
  _atom_site_occupancy
  Mg  Mg1       1.0  0.9818775095432953  0.5860069722311181  0.5394625154333712  1.0000
  Mg  Mg2       1.0  0.5181216293017883  0.4605367991899669  0.4139938375043641  1.0000
  Mg  Mg3       1.0  0.018122247123621094  0.41399367853315994  0.4605367992731928  1.0000
  Mg  Mg4       1.0  0.48187815352663677  0.5394631520453288  0.5860063517735128  1.0000
  Mg  Mg5       1.0  0.7499996044102274  0.5712735420683545  0.42872619176738175  1.0000
  Mg  Mg6       1.0  0.2499992435777116  0.4287271076875996  0.5712731476385073  1.0000
  H   H1        1.0  0.9643534534381074  0.5851062304673746  0.35963443832478253  1.0000
  H   H2        1.0  0.5356450085782639  0.6403645941186157  0.41489307429274197  1.0000
  H   H3        1.0  0.035646303228801884  0.4148944202969034  0.6403648763817814  1.0000
  H   H4        1.0  0.4643530044756545  0.3596339624176821  0.5851069197742549  1.0000
  H   H5        1.0  0.6854124087913435  0.5425094568716845  0.8204087630110879  1.0000
  H   H6        1.0  0.8145870538978599  0.1795914257043378  0.45749049195931957  1.0000
  H   H7        1.0  0.314588305717848  0.4574898000933699  0.17959094697067707  1.0000
  H   H8        1.0  0.1854118218314511  0.8204085223974217  0.5425103866019257  1.0000
  H   H9        1.0  0.04907176710886319  0.5958722940471546  0.8904166945345579  1.0000
  H   H10       1.0  0.450927057882943  0.10958291388670459  0.40412823499118394  1.0000
  H   H11       1.0  0.950927082458932  0.40412835358359434  0.10958330945538111  1.0000
  H   H12       1.0  0.5490727495271343  0.8904163399448137  0.5958721642739565  1.0000
  H   H13       1.0  0.1133039434583409  0.605531903586332  0.7283465749516297  1.0000
  H   H14       1.0  0.38669664553324173  0.2716535132383413  0.394468253286803  1.0000
  H   H15       1.0  0.8866967480490544  0.39446804865728785  0.2716535896269293  1.0000
  H   H16       1.0  0.6133031372951763  0.7283464379969544  0.6055319359910741  1.0000
  H   H17       1.0  0.6819386720101192  0.45996235806367736  0.9735129155985691  1.0000
  H   H18       1.0  0.8180605289438817  0.026487424843274703  0.5400378237409029  1.0000
  H   H19       1.0  0.3180610878165099  0.5400382884501838  0.026487728276094885  1.0000
  H   H20       1.0  0.18194016256351378  0.9735125274003448  0.459962340837649  1.0000
  H   H21       1.0  0.6067156351697777  0.45334986814888373  0.13354087766811773  1.0000
  H   H22       1.0  0.8932842517348546  0.8664592549398266  0.5466514949489893  1.0000
  H   H23       1.0  0.3932841000751992  0.5466514757687548  0.8664595562192831  1.0000
  H   H24       1.0  0.10671643977254769  0.1335406973037934  0.4533486696295698  1.0000
  H   H25       1.0  0.8616816696611378  0.6587584360682044  0.14172337994357784  1.0000
  H   H26       1.0  0.638319712102593  0.8582760027195278  0.3412421199236421  1.0000
  H   H27       1.0  0.13831808858562766  0.3412422125708617  0.8582765993470363  1.0000
  H   H28       1.0  0.3616791866285069  0.1417232501036594  0.6587583040408165  1.0000
  H   H29       1.0  0.9368141057457819  0.6688334917225873  0.9808943545310814  1.0000
  H   H30       1.0  0.5631867902718284  0.0191047678949516  0.33116719022743274  1.0000
  H   H31       1.0  0.0631865611799611  0.33116715792480983  0.019105600060207523  1.0000
  H   H32       1.0  0.43681208545747546  0.980895180206808  0.6688336883338127  1.0000
  C   C1        1.0  0.8272777323016244  0.5582895911202926  0.7170454387173282  1.0000
  C   C2        1.0  0.6727219649340556  0.2829540939423866  0.4417112473364142  1.0000
  C   C3        1.0  0.17272295762591477  0.44171036324853924  0.2829540612771809  1.0000
  C   C4        1.0  0.3272778424760218  0.7170451598891321  0.558289151928726  1.0000
  C   C5        1.0  0.7819024009606179  0.5547835148572773  0.8053079310238547  1.0000
  C   C6        1.0  0.7180975683291068  0.19469136655750668  0.4452169805481675  1.0000
  C   C7        1.0  0.21809828896692096  0.4452164395115473  0.1946915689706473  1.0000
  C   C8        1.0  0.2819022636626157  0.8053071898702344  0.5547836287042358  1.0000
  C   C9        1.0  0.8602293642184478  0.5688548060801324  0.8711805570895738  1.0000
  C   C10       1.0  0.6397701027031674  0.1288190368768127  0.4311458896816306  1.0000
  C   C11       1.0  0.13977132728894762  0.43114514616348737  0.12881960748897825  1.0000
  C   C12       1.0  0.36022970628676626  0.8711802148295007  0.5688551741675597  1.0000
  C   C13       1.0  0.9820686142490731  0.5870415148094922  0.8424171956845543  1.0000
  C   C14       1.0  0.5179319340623536  0.15758164866736726  0.41296012177168967  1.0000
  C   C15       1.0  0.017932052676670193  0.41295913483790514  0.15758275890674162  1.0000
  C   C16       1.0  0.48206784718621515  0.8424183046931405  0.5870394029221373  1.0000
  C   C17       1.0  0.01930406067907599  0.5908981809490614  0.7520026649207664  1.0000
  C   C18       1.0  0.48069640455188534  0.247997051926049  0.40910223225988324  1.0000
  C   C19       1.0  0.9806966292484632  0.40910177341977066  0.2479968350737423  1.0000
  C   C20       1.0  0.5193042623738576  0.7520035977213554  0.5908977223314055  1.0000
  C   C21       1.0  0.7463872277866983  0.5435164046988206  0.6441212568903583  1.0000
  C   C22       1.0  0.7536126340347805  0.3558786749187845  0.45648437802327646  1.0000
  C   C23       1.0  0.253612528880211  0.4564842460654648  0.35587805781620563  1.0000
  C   C24       1.0  0.2463889875735319  0.6441205851797988  0.5435146426751275  1.0000
  C   C25       1.0  0.815476084285308  0.5645424162181099  0.9657898380214508  1.0000
  C   C26       1.0  0.6845226521037872  0.0342098173733802  0.4354578288836991  1.0000
  C   C27       1.0  0.1845236739614577  0.4354582324209559  0.034210141269163295  1.0000
  C   C28       1.0  0.3154771307246307  0.9657901338619156  0.564542360394178  1.0000
  C   C29       1.0  0.721097385443386  0.504621320536792  0.009446838088727786  1.0000
  C   C30       1.0  0.7789012262652903  0.9905534783589405  0.4953790279715022  1.0000
  C   C31       1.0  0.27890234980159073  0.4953800233808466  0.9905535957986732  1.0000
  C   C32       1.0  0.22109855656313468  0.0094464728763555  0.5046211613063748  1.0000
  C   C33       1.0  0.6790338875672575  0.5001609138272868  0.09891460673435405  1.0000
  C   C34       1.0  0.8209654632844164  0.9010858849547463  0.4998402192957628  1.0000
  C   C35       1.0  0.32096587225936446  0.49983973268658133  0.9010860371403099  1.0000
  C   C36       1.0  0.17903522822297893  0.09891406728887378  0.5001599452827963  1.0000
  C   C37       1.0  0.7303238847490051  0.5552988655322011  0.14706286311106007  1.0000
  C   C38       1.0  0.7696761563601482  0.85293647648561  0.4447027966615594  1.0000
  C   C39       1.0  0.26967584891610835  0.4447024805106494  0.8529369061922909  1.0000
  C   C40       1.0  0.2303227685324601  0.1470620768085951  0.5552985018742123  1.0000
  C   C41       1.0  0.823414035523662  0.6157794814809775  0.10364868607378955  1.0000
  C   C42       1.0  0.6765862226418022  0.8963508110405556  0.3842222842263042  1.0000
  C   C43       1.0  0.17658569814145855  0.3842218645618729  0.8963510832295614  1.0000
  C   C44       1.0  0.3234126792490102  0.10364843753221459  0.6157794689062543  1.0000
  C   C45       1.0  0.8655367381056605  0.6203727697311905  0.014262028957510614  1.0000
  C   C46       1.0  0.6344645096982758  0.9857372517033343  0.37962779139535735  1.0000
  C   C47       1.0  0.1344639288200824  0.3796278799162137  0.9857379256337854  1.0000
  C   C48       1.0  0.3655362063907717  0.0142620031365084  0.6203725831704577  1.0000
  C   C49       1.0  0.6892970163837617  0.5474504604816701  0.24568517149153024  1.0000
  C   C50       1.0  0.8107049578944726  0.754314839728593  0.4525503191770428  1.0000
  C   C51       1.0  0.3107027172813588  0.4525508855611804  0.7543145978118206  1.0000
  C   C52       1.0  0.18929482493394542  0.24568511150670252  0.5474498701008346  1.0000
  N   N1        1.0  0.9442989159468381  0.5763943004604998  0.6899401175707001  1.0000
  N   N2        1.0  0.5557014181831831  0.3100589106483867  0.4236067107557773  1.0000
  N   N3        1.0  0.055701749399048595  0.4236063513121096  0.31005917243654585  1.0000
  N   N4        1.0  0.44429836464524186  0.6899410405869091  0.5763934785220999  1.0000
  O   O1        1.0  0.8000499755932747  0.541061631008624  0.5685518224741913  1.0000
  O   O2        1.0  0.6999496642680966  0.43144750899370615  0.4589388990964169  1.0000
  O   O3        1.0  0.19994882007164702  0.4589404178053015  0.4314457677890715  1.0000
  O   O4        1.0  0.3000528414375339  0.5685524495169858  0.5410598869153989  1.0000
  O   O5        1.0  0.6341654750558874  0.5358318309206851  0.6618317650543377  1.0000
  O   O6        1.0  0.8658346341425229  0.3381674004052684  0.4641709430082843  1.0000
  O   O7        1.0  0.36583521487165166  0.4641681234481397  0.3381677349401643  1.0000
  O   O8        1.0  0.1341661049483278  0.6618311591560089  0.5358289769607512  1.0000
  O   O9        1.0  0.5987917219167114  0.49702300912368713  0.2793635624805618  1.0000
  O   O10       1.0  0.9012100004929523  0.7206365561835496  0.5029771820522484  1.0000
  O   O11       1.0  0.40120896801082756  0.5029769452451447  0.7206359375139473  1.0000
  O   O12       1.0  0.0987906894345869  0.27936339818528205  0.49702231794226054  1.0000
  O   O13       1.0  0.7508358548295957  0.5907836123433582  0.2885073343078589  1.0000
  O   O14       1.0  0.7491664071377002  0.7114919571612717  0.4092168007555871  1.0000
  O   O15       1.0  0.2491620614775769  0.40921773168283704  0.7114924843941426  1.0000
  O   O16       1.0  0.25083246859160363  0.2885079909404879  0.5907840778056652  1.0000
  O   O17       1.0  0.9403922660780706  0.549393681611612  0.42260430907225544  1.0000
  O   O18       1.0  0.5596075446622778  0.577395284381332  0.450606620228399  1.0000
  O   O19       1.0  0.05960749058883861  0.4506069691526661  0.5773950056343085  1.0000
  O   O20       1.0  0.4403922643276558  0.4226039673249745  0.5493944436207842  1.0000
