data_image0
_chemical_formula_structural       Ni2H34C44N10O12
_chemical_formula_sum              "Ni2 H34 C44 N10 O12"
_cell_length_a       8.283624995645184
_cell_length_b       10.230376874279944
_cell_length_c       13.359163343082843
_cell_angle_alpha    94.80545784630098
_cell_angle_beta     108.19562165440263
_cell_angle_gamma    104.77215476694946

_space_group_name_H-M_alt    "P 1"
_space_group_IT_number       1

loop_
  _space_group_symop_operation_xyz
  'x, y, z'

loop_
  _atom_site_type_symbol
  _atom_site_label
  _atom_site_symmetry_multiplicity
  _atom_site_fract_x
  _atom_site_fract_y
  _atom_site_fract_z
  _atom_site_occupancy
  Ni  Ni1       1.0  0.13574902435026098  0.189982664200933  0.4347909740835191  1.0000
  Ni  Ni2       1.0  0.8643414682859216  0.8100380309061991  0.565073987506004  1.0000
  H   H1        1.0  0.7087321299071903  0.18547379335523567  0.8642716652132163  1.0000
  H   H2        1.0  0.29130529619615686  0.8143015509149123  0.13560949694593205  1.0000
  H   H3        1.0  0.7043424963915824  0.2305212178200335  0.32989145304508577  1.0000
  H   H4        1.0  0.2958384389126537  0.7696353613833085  0.670086327092882  1.0000
  H   H5        1.0  0.20490013528745266  0.30801850891425175  0.22438938307006848  1.0000
  H   H6        1.0  0.7952436913050036  0.6922084045897847  0.7757967984247145  1.0000
  H   H7        1.0  0.986537994407385  0.8435566680885884  0.1939523387109148  1.0000
  H   H8        1.0  0.0127932130195845  0.1563020510379403  0.8058461705636546  1.0000
  H   H9        1.0  0.09333446962109107  0.9222174297114382  0.9301815040897665  1.0000
  H   H10       1.0  0.9067577371254173  0.0779077728944202  0.06999056423994429  1.0000
  H   H11       1.0  0.5275236807099757  0.16164283296179593  0.47345194168523347  1.0000
  H   H12       1.0  0.47269098130683307  0.8384091095960783  0.5265429266158321  1.0000
  H   H13       1.0  0.6465685070505388  0.3041261797843759  0.006454384580706678  1.0000
  H   H14       1.0  0.3536272612415203  0.6958270416401079  0.9934827009402196  1.0000
  H   H15       1.0  0.6421929751629136  0.37573359143202373  0.1787658439221076  1.0000
  H   H16       1.0  0.3580219778178062  0.6244079148909805  0.8213230720851001  1.0000
  H   H17       1.0  0.4313013398894584  0.4413444777166474  0.5985777317874222  1.0000
  H   H18       1.0  0.568288395724842  0.5583022983586119  0.4013491742225739  1.0000
  H   H19       1.0  0.08236499587193441  0.6314190378954194  0.4614365068841551  1.0000
  H   H20       1.0  0.9165311478971175  0.3688968736869499  0.5386335980279071  1.0000
  H   H21       1.0  0.9328350205101615  0.4084324263741835  0.14231767189694722  1.0000
  H   H22       1.0  0.06787171387467333  0.5916342511737297  0.858044496139321  1.0000
  H   H23       1.0  0.20226147523277402  0.09833260429115141  0.09464785505473118  1.0000
  H   H24       1.0  0.7979955925600847  0.9019055165906806  0.9054717375767751  1.0000
  H   H25       1.0  0.5614800429010457  0.0249909470790399  0.7880989399318422  1.0000
  H   H26       1.0  0.4384769585495432  0.9747487583336393  0.21191570818221087  1.0000
  H   H27       1.0  0.43525106771696903  0.4101672106532562  0.13762294637250963  1.0000
  H   H28       1.0  0.5649320246872803  0.5899452154030057  0.8623502115061895  1.0000
  H   H29       1.0  0.6594347654650077  0.4058402188499102  0.7926886584866749  1.0000
  H   H30       1.0  0.340596612298576  0.5938364956862473  0.2071648937690398  1.0000
  H   H31       1.0  0.2863904267665873  0.0224743874307762  0.6223609021032246  1.0000
  H   H32       1.0  0.713474923960966  0.9772157349623073  0.3775671107977842  1.0000
  H   H33       1.0  0.25673438955629974  0.9352077345570106  0.8043555716971084  1.0000
  H   H34       1.0  0.743297007972714  0.0646955776071181  0.19577879541368048  1.0000
  C   C1        1.0  0.4362122949523197  0.34988102104068736  0.6334459549378123  1.0000
  C   C2        1.0  0.5635580381138893  0.6497864337371908  0.36648031478134857  1.0000
  C   C3        1.0  0.06859499363561378  0.8801404324318796  0.4122797085090538  1.0000
  C   C4        1.0  0.9311679829031191  0.12010758661270422  0.5874715078014744  1.0000
  C   C5        1.0  0.9599532395130906  0.5031392748991692  0.19665350596048373  1.0000
  C   C6        1.0  0.040215279340003525  0.49693978035939784  0.803513105667875  1.0000
  C   C7        1.0  0.3581707275459466  0.1314522675710634  0.6421045934532259  1.0000
  C   C8        1.0  0.6417035373387563  0.8682245411423894  0.357832526318731  1.0000
  C   C9        1.0  0.5490705708356742  0.3338040653559561  0.7286943996089974  1.0000
  C   C10       1.0  0.45081455528770675  0.6658880909172994  0.2712203286848477  1.0000
  C   C11       1.0  0.01055018132433361  0.5068031552661694  0.30705906256542187  1.0000
  C   C12       1.0  0.9892010657554875  0.4933371238570388  0.6930977845318438  1.0000
  C   C13       1.0  0.9924882308915954  0.7496880146295483  0.2258389955831318  1.0000
  C   C14       1.0  0.00700388769898549  0.2502552636011615  0.7740519502988263  1.0000
  C   C15       1.0  0.03291023589843437  0.7501176835114407  0.3357373688041605  1.0000
  C   C16       1.0  0.9664974068662531  0.24994668950496654  0.664164447650954  1.0000
  C   C17       1.0  0.3068158816038035  0.014597258907969006  0.8754952819129044  1.0000
  C   C18       1.0  0.6932862914611276  0.9853553075551886  0.12460940160809741  1.0000
  C   C19       1.0  0.0454832451635809  0.6296756270639251  0.375704124900082  1.0000
  C   C20       1.0  0.9538476589675824  0.3704589048363757  0.62435279781063  1.0000
  C   C21       1.0  0.4640165252599004  0.12109203773356822  0.8973562773052349  1.0000
  C   C22       1.0  0.5360949932776435  0.8788224013291102  0.1026916516836209  1.0000
  C   C23       1.0  0.5681783561137265  0.12843793416301713  0.8222428678865937  1.0000
  C   C24       1.0  0.43182106103581924  0.8713232955052063  0.17774611713537777  1.0000
  C   C25       1.0  0.2750910570869323  0.10646540668496132  0.038976484976871  1.0000
  C   C26       1.0  0.725132802757436  0.893676115585599  0.9611156422578802  1.0000
  C   C27       1.0  0.955554058848328  0.6257513079374989  0.1586962356671862  1.0000
  C   C28       1.0  0.04432717454103846  0.37418546098722055  0.8413275267159077  1.0000
  C   C29       1.0  0.4305731491804822  0.21491484760562682  0.06062677711575762  1.0000
  C   C30       1.0  0.5696888591090428  0.7851741994125022  0.9394087370128189  1.0000
  C   C31       1.0  0.5239939701611575  0.2209470279978092  0.9894452341912583  1.0000
  C   C32       1.0  0.47620618673651194  0.7790402603249547  0.010561470450184608  1.0000
  C   C33       1.0  0.21328010607709297  0.007431691749062001  0.946438900793069  1.0000
  C   C34       1.0  0.7868684100172487  0.9926452010080096  0.05369303618247304  1.0000
  C   C35       1.0  0.03556386063404912  0.3813907315612184  0.3521180448667137  1.0000
  C   C36       1.0  0.9644302948464015  0.6187515236214266  0.6479351880913455  1.0000
  C   C37       1.0  0.5750503122669884  0.23510359591165303  0.3301498282208826  1.0000
  C   C38       1.0  0.42510125042984737  0.765032467173171  0.6698427134506204  1.0000
  C   C39       1.0  0.4984342631944898  0.3287232095675634  0.1568860470224251  1.0000
  C   C40       1.0  0.5017724688588244  0.6714108819897504  0.8431199752851839  1.0000
  C   C41       1.0  0.3158377284362288  0.27884900652123434  0.2747386356523407  1.0000
  C   C42       1.0  0.6843600621606001  0.7213273781004333  0.7253461902993124  1.0000
  C   C43       1.0  0.4860652058725066  0.20189431471526123  0.4002203444016246  1.0000
  C   C44       1.0  0.5141343407635119  0.7982110223690952  0.5997839750554164  1.0000
  N   N1        1.0  0.49847671586997677  0.19516883622647188  0.7324304753441666  1.0000
  N   N2        1.0  0.5014401810836162  0.8045100209618284  0.2674917684862876  1.0000
  N   N3        1.0  0.31804002977481366  0.22277646089231248  0.5806498103670633  1.0000
  N   N4        1.0  0.6817654952072516  0.7768766726410875  0.4192845682637554  1.0000
  N   N5        1.0  0.9150040157286411  0.6238545252796897  0.04403938796922802  1.0000
  N   N6        1.0  0.0851595807222836  0.3760034885623185  0.9560060074908632  1.0000
  N   N7        1.0  0.46548117287387913  0.28445545418410484  0.2513849162103554  1.0000
  N   N8        1.0  0.5346725749985097  0.7157258708003552  0.7486415980136768  1.0000
  N   N9        1.0  0.3251476385205194  0.2297600463136078  0.3648749587729938  1.0000
  N   N10       1.0  0.6750619557881662  0.7703710971623394  0.6351793350620553  1.0000
  O   O1        1.0  0.08231112111539565  0.8704278806532243  0.508810836001281  1.0000
  O   O2        1.0  0.9180176589286049  0.13011971753436313  0.49108236761775004  1.0000
  O   O3        1.0  0.9831043649143253  0.7292833999234886  0.014260085773678146  1.0000
  O   O4        1.0  0.017076258882290998  0.2705859249170359  0.9857870541174022  1.0000
  O   O5        1.0  0.08670493999349571  0.989650822204432  0.3729346364768631  1.0000
  O   O6        1.0  0.912898211749443  0.0104466708961439  0.6266243667653767  1.0000
  O   O7        1.0  0.8146832917434919  0.5157075298684431  0.9812286684185735  1.0000
  O   O8        1.0  0.1856635235952808  0.4841147433482718  0.018830993230473304  1.0000
  O   O9        1.0  0.9615529181014183  0.2629885187942449  0.2928013119051442  1.0000
  O   O10       1.0  0.03842471373273782  0.737231391965949  0.7071211586667516  1.0000
  O   O11       1.0  0.13757218311755537  0.39723954495462266  0.4489568820972848  1.0000
  O   O12       1.0  0.8626019325026418  0.6027928230803568  0.5510244587842408  1.0000
