data_image0
_chemical_formula_structural       Ba4H56C32O48
_chemical_formula_sum              "Ba4 H56 C32 O48"
_cell_length_a       6.44079659541772
_cell_length_b       11.503785915492031
_cell_length_c       18.958516382031338
_cell_angle_alpha    89.99994036478196
_cell_angle_beta     90.00020297995526
_cell_angle_gamma    93.13219365021696

_space_group_name_H-M_alt    "P 1"
_space_group_IT_number       1

loop_
  _space_group_symop_operation_xyz
  'x, y, z'

loop_
  _atom_site_type_symbol
  _atom_site_label
  _atom_site_symmetry_multiplicity
  _atom_site_fract_x
  _atom_site_fract_y
  _atom_site_fract_z
  _atom_site_occupancy
  Ba  Ba1       1.0  0.5116978383501234  0.29943080492986235  0.4885526840397247  1.0000
  Ba  Ba2       1.0  0.4883017654524267  0.20056970073662936  0.9885522689923789  1.0000
  Ba  Ba3       1.0  0.4883043630275878  0.7005671222144938  0.5114477951664185  1.0000
  Ba  Ba4       1.0  0.5116960710642786  0.7994316896437039  0.0114482102100482  1.0000
  H   H1        1.0  0.713731716224906  0.372732785757762  0.28132612430763965  1.0000
  H   H2        1.0  0.286268718715128  0.12726628304891818  0.7813270941234336  1.0000
  H   H3        1.0  0.28626900563450863  0.6272660056141813  0.71867277249504  1.0000
  H   H4        1.0  0.71372911779887  0.8727351073317846  0.2186728576115513  1.0000
  H   H5        1.0  0.034351015511497  0.18829252192004728  0.517851664738032  1.0000
  H   H6        1.0  0.9656515208339583  0.31170867773284516  0.0178515646383204  1.0000
  H   H7        1.0  0.9656530337212955  0.8117088937810305  0.4821482870006903  1.0000
  H   H8        1.0  0.034350827880089696  0.6882909905250114  0.982148387099933  1.0000
  H   H9        1.0  0.14535019360215531  0.15070160131872967  0.5878276832507794  1.0000
  H   H10       1.0  0.8546515817756841  0.3493003640955976  0.0878274256147193  1.0000
  H   H11       1.0  0.8546507492712436  0.8492998017221679  0.4121722684860742  1.0000
  H   H12       1.0  0.14535239378759  0.6507001810489255  0.9121725261242374  1.0000
  H   H13       1.0  0.24953204697811063  0.4655805177502827  0.2441124601733335  1.0000
  H   H14       1.0  0.7504712595297676  0.034420357194754586  0.7441124658984464  1.0000
  H   H15       1.0  0.7504734817729927  0.534420033723215  0.7558890739688593  1.0000
  H   H16       1.0  0.24952946233776882  0.9655784341760805  0.2558880133065387  1.0000
  H   H17       1.0  0.978746725755272  0.35264803597505784  0.562449026667359  1.0000
  H   H18       1.0  0.021253162172762092  0.14735308826384136  0.062448418432303796  1.0000
  H   H19       1.0  0.021252590271608102  0.6473524901788039  0.4375514525362263  1.0000
  H   H20       1.0  0.9787477806979296  0.8526483147774182  0.9375510058371147  1.0000
  H   H21       1.0  0.8939928550236901  0.48055315746942967  0.5651838539546006  1.0000
  H   H22       1.0  0.10600706099035051  0.019447962920729395  0.06518395590941138  1.0000
  H   H23       1.0  0.10600660833952702  0.5194491097979321  0.43481609778109487  1.0000
  H   H24       1.0  0.8939922550419511  0.9805525632323931  0.9348175782290439  1.0000
  H   H25       1.0  0.371291249093666  0.03386036228871349  0.3989164495035311  1.0000
  H   H26       1.0  0.6286998157347838  0.4661419789688919  0.8989176190549628  1.0000
  H   H27       1.0  0.6286988215191229  0.9661409964418861  0.6010829747593505  1.0000
  H   H28       1.0  0.3712936559236156  0.5338628746470417  0.101083387611169  1.0000
  H   H29       1.0  0.34897855539934847  0.019805233544460094  0.4801938974695971  1.0000
  H   H30       1.0  0.6510455924383935  0.48019277349570877  0.9801935027056031  1.0000
  H   H31       1.0  0.6510466489957878  0.9801893063250583  0.5198065817514816  1.0000
  H   H32       1.0  0.3489769476117672  0.5198069770533776  0.0198064490447933  1.0000
  H   H33       1.0  0.9723202997553386  0.2398732801936204  0.41932920937853163  1.0000
  H   H34       1.0  0.027677040048544696  0.2601273165494148  0.919328201285829  1.0000
  H   H35       1.0  0.02768056945395608  0.7601272522899617  0.5806717972934264  1.0000
  H   H36       1.0  0.9723221286311698  0.7398714684924314  0.08067069551591288  1.0000
  H   H37       1.0  0.8600026589013512  0.11289679191490616  0.4136562693436261  1.0000
  H   H38       1.0  0.13999928218976979  0.3871038318009282  0.9136553168050695  1.0000
  H   H39       1.0  0.140001242997819  0.8871028826723019  0.586344737330428  1.0000
  H   H40       1.0  0.8600015133418708  0.6128958301272077  0.0863441074648108  1.0000
  H   H41       1.0  0.6970255284779512  0.6741301546014921  0.329900495440171  1.0000
  H   H42       1.0  0.30297203657941907  0.8258690543884196  0.8299024153431487  1.0000
  H   H43       1.0  0.3029751197146453  0.32586776621351987  0.6700989288301712  1.0000
  H   H44       1.0  0.697030385806869  0.1741314844256294  0.17009806386230508  1.0000
  H   H45       1.0  0.7810875580016656  0.6573348839785635  0.2108279428610231  1.0000
  H   H46       1.0  0.2189134439068781  0.8426645115519162  0.7108297508077115  1.0000
  H   H47       1.0  0.2189164175616085  0.3426656611659523  0.7891720088779266  1.0000
  H   H48       1.0  0.7810858721227094  0.1573360146015687  0.2891712558633088  1.0000
  H   H49       1.0  0.2662372857402104  0.16738308110235062  0.19059624563840313  1.0000
  H   H50       1.0  0.7337608853834254  0.33261872071136606  0.6905986808712328  1.0000
  H   H51       1.0  0.7337559648933691  0.8326191608461141  0.8094015962238075  1.0000
  H   H52       1.0  0.2662445696954379  0.6673809602059392  0.3094023258037524  1.0000
  H   H53       1.0  0.1825559588604833  0.17838399511655467  0.3111984558309046  1.0000
  H   H54       1.0  0.8174385701105605  0.3216150063344755  0.8112009989147493  1.0000
  H   H55       1.0  0.8174415829700051  0.8216139130386324  0.6888004409701267  1.0000
  H   H56       1.0  0.18255749222599596  0.678383766044959  0.188801062689727  1.0000
  C   C1        1.0  0.6542675783187876  0.4938476203827945  0.362293356481608  1.0000
  C   C2        1.0  0.3457306553406241  0.006152192388597699  0.8622950017099386  1.0000
  C   C3        1.0  0.3457329962015834  0.5061494298760177  0.6377055403215266  1.0000
  C   C4        1.0  0.6542702138659564  0.9938483400953542  0.1377054774945847  1.0000
  C   C5        1.0  0.7053552395118459  0.586133340178904  0.3089959387864809  1.0000
  C   C6        1.0  0.29464366406264014  0.913865904557255  0.8089967383259448  1.0000
  C   C7        1.0  0.29464074913894217  0.4138645616461927  0.6910029580136197  1.0000
  C   C8        1.0  0.7053603114979268  0.08613464058763037  0.1910026859455769  1.0000
  C   C9        1.0  0.7552742192722377  0.5764307106306745  0.24030388793450186  1.0000
  C   C10       1.0  0.2447255321279798  0.9235686370933249  0.7403056760950973  1.0000
  C   C11       1.0  0.24472346989187338  0.42356893863838235  0.7596939539312045  1.0000
  C   C12       1.0  0.7552754844122306  0.07643363650449687  0.2596937481740937  1.0000
  C   C13       1.0  0.7843357916266669  0.47132823378284144  0.19668501902960858  1.0000
  C   C14       1.0  0.21566532735955246  0.028670960455109192  0.6966854382757006  1.0000
  C   C15       1.0  0.21566352438667016  0.5286722923728744  0.8033128228368014  1.0000
  C   C16       1.0  0.7843370950213142  0.9713295783596857  0.3033139859948831  1.0000
  C   C17       1.0  0.3242919917471809  0.3479968643260705  0.1626420321797255  1.0000
  C   C18       1.0  0.6757075191720859  0.15200585371051994  0.6626429286642264  1.0000
  C   C19       1.0  0.6757059921085613  0.6520062671673938  0.8373584470222397  1.0000
  C   C20       1.0  0.3242947558859798  0.8479929439889203  0.3373596604114297  1.0000
  C   C21       1.0  0.2633655336327934  0.25386178424814426  0.2141144071997516  1.0000
  C   C22       1.0  0.7366299199598032  0.24614171292617462  0.7141158453866436  1.0000
  C   C23       1.0  0.7366294175222452  0.7461422051431722  0.78588396213037  1.0000
  C   C24       1.0  0.2633693223975513  0.7538579426711249  0.2858846338171759  1.0000
  C   C25       1.0  0.193277076552306  0.36411774891124066  0.3285752910140545  1.0000
  C   C26       1.0  0.806716003994616  0.13588035120275777  0.8285763556602106  1.0000
  C   C27       1.0  0.8067188384452066  0.6358792823550629  0.6714267705908838  1.0000
  C   C28       1.0  0.19327991100289668  0.8641166800635457  0.1714257059447348  1.0000
  C   C29       1.0  0.2128765895522449  0.2603151644271833  0.28296469896088877  1.0000
  C   C30       1.0  0.7871160963230108  0.23968387042222614  0.7829672570390471  1.0000
  C   C31       1.0  0.7871210996172878  0.7396844848411347  0.7170341978396877  1.0000
  C   C32       1.0  0.21287989234132  0.7603140314010088  0.2170342770982288  1.0000
  O   O1        1.0  0.6598149632699517  0.38445726517721096  0.3461771542536738  1.0000
  O   O2        1.0  0.3401845844085615  0.11554170604568266  0.8461781964774245  1.0000
  O   O3        1.0  0.3401856112504121  0.6155397850816013  0.6538217425494608  1.0000
  O   O4        1.0  0.659814805285137  0.8844596906651102  0.1538217552584911  1.0000
  O   O5        1.0  0.20623615398479703  0.46819580277907846  0.3017313933949453  1.0000
  O   O6        1.0  0.7937629372953766  0.03180323098608539  0.8017303980486972  1.0000
  O   O7        1.0  0.7937677479170802  0.531803871807767  0.6982701407465441  1.0000
  O   O8        1.0  0.2062362313843309  0.9681955540557609  0.1982684987530448  1.0000
  O   O9        1.0  0.761228702449472  0.3675995655522966  0.22422569490009178  1.0000
  O   O10       1.0  0.2387726256717642  0.13239871937514638  0.7242271316669429  1.0000
  O   O11       1.0  0.23877209307133998  0.6324000963773172  0.7757716195000484  1.0000
  O   O12       1.0  0.7612251371699941  0.867601800449364  0.2757722926008341  1.0000
  O   O13       1.0  0.1319093836752003  0.21762264243867685  0.5552945176542751  1.0000
  O   O14       1.0  0.8680903571144682  0.2823776213114185  0.05529326341208219  1.0000
  O   O15       1.0  0.868089932354394  0.7823778837148153  0.4447064890167525  1.0000
  O   O16       1.0  0.13191058575621636  0.7176237817298411  0.9447061608573435  1.0000
  O   O17       1.0  0.30849515272502964  0.4567580235787786  0.17952780341177998  1.0000
  O   O18       1.0  0.6915077116057374  0.04324555391519168  0.6795272049998715  1.0000
  O   O19       1.0  0.6915076380142863  0.5432468680173483  0.8204737307274002  1.0000
  O   O20       1.0  0.3084931575981358  0.9567549785691366  0.3204727467372166  1.0000
  O   O21       1.0  0.6029004224788892  0.5251328019156601  0.42320578247546337  1.0000
  O   O22       1.0  0.3970981743435614  0.9748671463387732  0.9232071946612733  1.0000
  O   O23       1.0  0.39711072963212507  0.47486081042607237  0.5767952242048721  1.0000
  O   O24       1.0  0.6028967031527869  0.025135972494496193  0.076793284538816  1.0000
  O   O25       1.0  0.8697817976741008  0.4024586456516985  0.54536111026934  1.0000
  O   O26       1.0  0.13021784111116122  0.09754163207650628  0.04535908240497119  1.0000
  O   O27       1.0  0.1302173710164425  0.5975401393886627  0.45463989640214203  1.0000
  O   O28       1.0  0.8697814012353645  0.9024580235222711  0.9546392869291012  1.0000
  O   O29       1.0  0.1611552206924785  0.3496101524385507  0.3936953507501214  1.0000
  O   O30       1.0  0.838833795329009  0.15038696649600772  0.893696972473265  1.0000
  O   O31       1.0  0.8388375879320975  0.6503868661694198  0.6063040735157728  1.0000
  O   O32       1.0  0.16115901330098129  0.8496100521112235  0.1063035067275067  1.0000
  O   O33       1.0  0.8342003370514136  0.4842285460992883  0.1330239454232469  1.0000
  O   O34       1.0  0.16580330827274992  0.01577162093356319  0.6330258950500038  1.0000
  O   O35       1.0  0.16580356483962788  0.5157711284890351  0.8669754788485021  1.0000
  O   O36       1.0  0.8342006672905243  0.9842289242109526  0.366974056688953  1.0000
  O   O37       1.0  0.391384177703415  0.318214303398868  0.1038959239499846  1.0000
  O   O38       1.0  0.6086008987153164  0.18179018144219578  0.6038983031627936  1.0000
  O   O39       1.0  0.6085984216808313  0.6817905059086299  0.8961019179049997  1.0000
  O   O40       1.0  0.3913984909756678  0.8182112152689738  0.3961011211056942  1.0000
  O   O41       1.0  0.3919491049826362  0.07646002424669969  0.4441757917823565  1.0000
  O   O42       1.0  0.6080379860600758  0.42354484600429015  0.9441774906935689  1.0000
  O   O43       1.0  0.6080363797605699  0.9235421860501843  0.555823632477491  1.0000
  O   O44       1.0  0.3919508997287481  0.5764608591779207  0.05582351596952859  1.0000
  O   O45       1.0  0.870382766766177  0.18499107723206978  0.4428995749583891  1.0000
  O   O46       1.0  0.1296177740862916  0.3150077578918412  0.9428981278068703  1.0000
  O   O47       1.0  0.12961788143725525  0.8150068435814569  0.5571019591816934  1.0000
  O   O48       1.0  0.8703814682656484  0.6849918977061974  0.05710129646207209  1.0000
