data_image0
_chemical_formula_structural       Li4H20C28O12
_chemical_formula_sum              "Li4 H20 C28 O12"
_cell_length_a       5.105339156060792
_cell_length_b       8.150441826288642
_cell_length_c       14.635438920450524
_cell_angle_alpha    95.39601287676304
_cell_angle_beta     89.9994704686017
_cell_angle_gamma    90.00021715376009

_space_group_name_H-M_alt    "P 1"
_space_group_IT_number       1

loop_
  _space_group_symop_operation_xyz
  'x, y, z'

loop_
  _atom_site_type_symbol
  _atom_site_label
  _atom_site_symmetry_multiplicity
  _atom_site_fract_x
  _atom_site_fract_y
  _atom_site_fract_z
  _atom_site_occupancy
  Li  Li1       1.0  0.009826730256485  0.4936407802476524  0.40819237375689704  1.0000
  Li  Li2       1.0  0.5098447930830262  0.5063651659992204  0.0918108038878316  1.0000
  Li  Li3       1.0  0.9901548671808484  0.5063576522503722  0.591812052584558  1.0000
  Li  Li4       1.0  0.49019360767277936  0.4936443453968027  0.9081928048064967  1.0000
  H   H1        1.0  0.7373884137701411  0.421011005817256  0.25989282989793583  1.0000
  H   H2        1.0  0.23739293265191463  0.5789917253788986  0.24010878062051685  1.0000
  H   H3        1.0  0.2626166885822272  0.5789922873485197  0.7401043211732911  1.0000
  H   H4        1.0  0.7626219632795213  0.4210079270097113  0.7598943395551458  1.0000
  H   H5        1.0  0.5585258287031394  0.5105936398246983  0.3385073399636127  1.0000
  H   H6        1.0  0.058522183272174295  0.48940003084741335  0.1614889248163678  1.0000
  H   H7        1.0  0.44147339737115493  0.48939859953357273  0.6614933630441869  1.0000
  H   H8        1.0  0.9415123001012587  0.5105970817091292  0.8385058700870189  1.0000
  H   H9        1.0  0.6522800620567395  0.7724271117622692  0.28566709268564944  1.0000
  H   H10       1.0  0.1523088695471557  0.22759263370795688  0.214329482369493  1.0000
  H   H11       1.0  0.34768390682761213  0.22757375416758666  0.7143340378618817  1.0000
  H   H12       1.0  0.8477177788530527  0.7724082072533137  0.7856689137137707  1.0000
  H   H13       1.0  0.7277616970756783  0.07442264364779312  0.30317604582934615  1.0000
  H   H14       1.0  0.22777117301300365  0.9255837577543746  0.19682509392490743  1.0000
  H   H15       1.0  0.27220227189443597  0.9255707591968517  0.696817198790576  1.0000
  H   H16       1.0  0.7722182593683726  0.07441466849309822  0.8031786488125405  1.0000
  H   H17       1.0  0.4384558805716097  0.2574942672589345  0.4025762935558888  1.0000
  H   H18       1.0  0.9384652527649637  0.7425310718786381  0.09742511380338209  1.0000
  H   H19       1.0  0.5615433455374516  0.7425016504407722  0.597422541884107  1.0000
  H   H20       1.0  0.0615496432729614  0.2574623372796125  0.9025688143301238  1.0000
  C   C1        1.0  0.9627875908877783  0.8228952575622159  0.49693333116072574  1.0000
  C   C2        1.0  0.4627884884030067  0.17710782589229984  0.003053230240539099  1.0000
  C   C3        1.0  0.0371979243095666  0.1771214852807219  0.5030528706403388  1.0000
  C   C4        1.0  0.5372577473102141  0.8228992019896993  0.9969482055271682  1.0000
  C   C5        1.0  0.1543133845664002  0.886179863645417  0.4366422760539805  1.0000
  C   C6        1.0  0.6543418781085606  0.11383381820846951  0.063364241276382  1.0000
  C   C7        1.0  0.8456388320013488  0.11381353918661573  0.5633509685840252  1.0000
  C   C8        1.0  0.3456906464144254  0.8861781829626311  0.9366422239335108  1.0000
  C   C9        1.0  0.3154883247489196  0.7795427040259355  0.3755123867121455  1.0000
  C   C10       1.0  0.8155255412654443  0.22047627824122884  0.1244966132157117  1.0000
  C   C11       1.0  0.6844540980327879  0.22046065166219367  0.6244916003750588  1.0000
  C   C12       1.0  0.18451481824057941  0.7795369240162561  0.875506495091713  1.0000
  C   C13       1.0  0.5247974658230278  0.853542028123677  0.3294053749096548  1.0000
  C   C14       1.0  0.0247976328722714  0.14650207867924084  0.1705914467350027  1.0000
  C   C15       1.0  0.4752076365696852  0.14647234387913952  0.6705909586018491  1.0000
  C   C16       1.0  0.9752211806041872  0.8535135632648335  0.8294090493764726  1.0000
  C   C17       1.0  0.5657914270811659  0.021543082559851705  0.33895291518572174  1.0000
  C   C18       1.0  0.06577276056892602  0.9784617013018391  0.16104456047280277  1.0000
  C   C19       1.0  0.43419996402700883  0.9784380716940008  0.6610479218019023  1.0000
  C   C20       1.0  0.9342088368975896  0.0215330090420167  0.8389569482927826  1.0000
  C   C21       1.0  0.4010536148084043  0.1256407436566391  0.3947565094227556  1.0000
  C   C22       1.0  0.9010458488108597  0.874368488093296  0.10524353557909187  1.0000
  C   C23       1.0  0.5989319001097542  0.8743552115821203  0.6052464275900603  1.0000
  C   C24       1.0  0.09893574873296268  0.12562370117437643  0.8947516987202135  1.0000
  C   C25       1.0  0.1976187111060739  0.0599945125646428  0.4428988711395121  1.0000
  C   C26       1.0  0.6976497982222655  0.9400032789317693  0.05711082055987759  1.0000
  C   C27       1.0  0.8023315466530934  0.9400026437142588  0.5571007090371438  1.0000
  C   C28       1.0  0.30234355152965264  0.05998780941391152  0.9428987080829927  1.0000
  O   O1        1.0  0.9303543958430254  0.669807944420292  0.5025899346155285  1.0000
  O   O2        1.0  0.43035462286643184  0.33018529198701435  0.9974139958001514  1.0000
  O   O3        1.0  0.06959782056520682  0.3301880358185799  0.4974157368163361  1.0000
  O   O4        1.0  0.5696661492848847  0.6698007730125825  0.002585034643814802  1.0000
  O   O5        1.0  0.2779431107391943  0.6204982554846482  0.35936545237922957  1.0000
  O   O6        1.0  0.7779611519002999  0.3795180562661855  0.1406298691500609  1.0000
  O   O7        1.0  0.7220482802631736  0.3794940777496265  0.6406455045199166  1.0000
  O   O8        1.0  0.2220772490589127  0.6204925498054693  0.8593587615906557  1.0000
  O   O9        1.0  0.7225912990573776  0.44487447863372154  0.3273824227411025  1.0000
  O   O10       1.0  0.22261708566118438  0.555138004705718  0.1726115187358346  1.0000
  O   O11       1.0  0.2774059683277699  0.5551263685549802  0.6726166569793294  1.0000
  O   O12       1.0  0.7774252325687598  0.444870268062772  0.8273913452911614  1.0000
