data_image0
_chemical_formula_structural       Zn8H16C80O26F24
_chemical_formula_sum              "Zn8 H16 C80 O26 F24"
_cell_length_a       23.816767300593444
_cell_length_b       23.818120846171517
_cell_length_c       23.816629063488193
_cell_angle_alpha    66.55501670948973
_cell_angle_beta     72.48330092284517
_cell_angle_gamma    107.52445935561988

_space_group_name_H-M_alt    "P 1"
_space_group_IT_number       1

loop_
  _space_group_symop_operation_xyz
  'x, y, z'

loop_
  _atom_site_type_symbol
  _atom_site_label
  _atom_site_symmetry_multiplicity
  _atom_site_fract_x
  _atom_site_fract_y
  _atom_site_fract_z
  _atom_site_occupancy
  Zn  Zn1       1.0  0.057632932408303396  0.9575457481514107  0.48483104653151804  1.0000
  Zn  Zn2       1.0  0.057631740423104795  0.10008639303156029  0.45754855690302076  1.0000
  Zn  Zn3       1.0  0.9423616536857933  0.9848272138294972  0.4575404816019316  1.0000
  Zn  Zn4       1.0  0.9423778698812981  0.9575422653698953  0.6000896723247279  1.0000
  Zn  Zn5       1.0  0.9423664067020499  0.54245320797358  0.015170730785008687  1.0000
  Zn  Zn6       1.0  0.05763988580307002  0.515173945551922  0.04245933828696738  1.0000
  Zn  Zn7       1.0  0.9423675776927781  0.39991254851747043  0.04245642093227507  1.0000
  Zn  Zn8       1.0  0.057619352202650076  0.5424512079804772  0.8999112399500718  1.0000
  H   H1        1.0  0.923128666928257  0.6522823145243208  0.11235626984308998  1.0000
  H   H2        1.0  0.076865673814396  0.6123461200936546  0.15232161590310506  1.0000
  H   H3        1.0  0.9231295065076498  0.8876481488799545  0.3476845344877471  1.0000
  H   H4        1.0  0.0768182351656036  0.8476500151087121  0.38771168284238655  1.0000
  H   H5        1.0  0.07688207195516136  0.46448925327823093  0.7708574871824041  1.0000
  H   H6        1.0  0.923140778729426  0.2708175274207888  0.9645264461845572  1.0000
  H   H7        1.0  0.07682042798376909  0.22916915484275793  0.5354849118940237  1.0000
  H   H8        1.0  0.9231288549752464  0.03548449241777263  0.7291704595055536  1.0000
  H   H9        1.0  0.7353475037045953  0.4645064543615901  0.11232871935181521  1.0000
  H   H10       1.0  0.7353417528948968  0.2708210305793415  0.1523240809941696  1.0000
  H   H11       1.0  0.26465736731531564  0.22917720403134473  0.3476719996904905  1.0000
  H   H12       1.0  0.26465080531833246  0.03550515610505302  0.3876022581502312  1.0000
  H   H13       1.0  0.26466108812309136  0.6123097997830912  0.9645078565834738  1.0000
  H   H14       1.0  0.2646475554802026  0.6523137350478408  0.7708146367493711  1.0000
  H   H15       1.0  0.7353552107936494  0.8476790224659823  0.7291840476657043  1.0000
  H   H16       1.0  0.7353381727548296  0.8876214945815518  0.5355057682127011  1.0000
  C   C1        1.0  0.18228575494597984  0.09115218441918672  0.40884812812348775  1.0000
  C   C2        1.0  0.9999978204494229  0.1370686994816737  0.3629288684125881  1.0000
  C   C3        1.0  0.9999885716163276  0.9088532867395854  0.4088654073404285  1.0000
  C   C4        1.0  0.817715881486542  0.9088458230431299  0.5911551870694112  1.0000
  C   C5        1.0  3.903831512550737e-06  0.8629273130317828  0.6370710128553938  1.0000
  C   C6        1.0  0.9999921771597259  0.09113870884957742  0.5911476596741635  1.0000
  C   C7        1.0  3.021573114423934e-06  0.5911337295777628  0.09114890048400068  1.0000
  C   C8        1.0  3.983972611380983e-06  0.3629311696852184  0.13707121275940176  1.0000
  C   C9        1.0  0.8177142242868384  0.40885266762180805  0.09113625123351447  1.0000
  C   C10       1.0  0.9999956858784101  0.4088420123867564  0.908871267797359  1.0000
  C   C11       1.0  0.9999977189313684  0.6370705612640677  0.8629297656717723  1.0000
  C   C12       1.0  0.18228250538989244  0.5911368082848155  0.9088471552838655  1.0000
  C   C13       1.0  8.028279801203447e-10  0.8053568750813794  0.6946410837313762  1.0000
  C   C14       1.0  1.5641035063104854e-06  0.6946427546611815  0.805358787975912  1.0000
  C   C15       1.0  0.9576621502714461  0.7767184319209691  0.7656125654294356  1.0000
  C   C16       1.0  0.04233991256540298  0.7232798829024389  0.7343879056368293  1.0000
  C   C17       1.0  0.9576626263240015  0.7232744254111052  0.819059277750931  1.0000
  C   C18       1.0  0.04233987658680857  0.7767243299398671  0.6809408858544189  1.0000
  C   C19       1.0  7.351717100423861e-08  0.1946400970041537  0.3053589145175692  1.0000
  C   C20       1.0  2.8091320131867707e-06  0.3053613725281608  0.194641046421836  1.0000
  C   C21       1.0  0.9576640467264781  0.18094394404680975  0.2767158577127232  1.0000
  C   C22       1.0  0.042339319877498914  0.3190569654456469  0.22328417941866258  1.0000
  C   C23       1.0  0.9576656832213644  0.2343921499991667  0.22326978164237227  1.0000
  C   C24       1.0  0.04233744139653343  0.2656090388946241  0.2767306375160956  1.0000
  C   C25       1.0  2.439916329440866e-06  0.6285879028403514  0.1286013171540644  1.0000
  C   C26       1.0  0.9566127377046884  0.6571908203637805  0.1347116848044009  1.0000
  C   C27       1.0  0.9573720702427481  0.6916803760154621  0.16960449484221846  1.0000
  C   C28       1.0  0.9999905973970938  0.6994502639135689  0.19947934316294194  1.0000
  C   C29       1.0  0.04261566030664446  0.6695892525080396  0.19171120858819526  1.0000
  C   C30       1.0  0.043381596139362044  0.634698427134971  0.1572195971969776  1.0000
  C   C31       1.0  0.9999863998151001  0.7346831514855624  0.23472030971282729  1.0000
  C   C32       1.0  0.9999831809048911  0.7652763483850575  0.2653201769540632  1.0000
  C   C33       1.0  0.9999761673905144  0.800510597535741  0.3005597731655667  1.0000
  C   C34       1.0  0.9573672417297062  0.8303916743217387  0.3083085557148523  1.0000
  C   C35       1.0  0.9566050685008278  0.8652857463697927  0.34279606502248317  1.0000
  C   C36       1.0  0.9999795154572481  0.8713884163543427  0.37142349944788583  1.0000
  C   C37       1.0  0.04334846760818322  0.8427610625065967  0.3653353808220387  1.0000
  C   C38       1.0  0.04258884921191001  0.8082727874422629  0.3304421490353421  1.0000
  C   C39       1.0  4.415515775273991e-06  0.37138579109193165  0.8714211769804194  1.0000
  C   C40       1.0  0.04339608548693271  0.4086558734751621  0.7994298948147858  1.0000
  C   C41       1.0  0.04263318770509986  0.37300495382699245  0.7657000200005228  1.0000
  C   C42       1.0  7.009115165581852e-06  0.30051914497075677  0.8005495474885933  1.0000
  C   C43       1.0  0.9573852740806359  0.2656705282645079  0.8730345710255208  1.0000
  C   C44       1.0  0.9566242208533708  0.2993959086166101  0.9086907079170036  1.0000
  C   C45       1.0  0.9999978881465523  0.26528573954535517  0.7653096719999798  1.0000
  C   C46       1.0  0.9999892489767531  0.2346958229879589  0.7347083009374276  1.0000
  C   C47       1.0  0.999980114032418  0.19946317244184533  0.6994679022818318  1.0000
  C   C48       1.0  0.04259194941408856  0.23431755462234352  0.6269781190307526  1.0000
  C   C49       1.0  0.04334992211491341  0.2005890899586831  0.5913245544887218  1.0000
  C   C50       1.0  0.9999798690914402  0.12859316260778533  0.6285984631123753  1.0000
  C   C51       1.0  0.9566045895303573  0.09132119974425734  0.7005918461873009  1.0000
  C   C52       1.0  0.9573678396505444  0.12697456291063255  0.7343193858656605  1.0000
  C   C53       1.0  0.7428081488016717  0.37139593522623937  0.12859172397337196  1.0000
  C   C54       1.0  0.7080872369952191  0.4086706547042384  0.13469306060758865  1.0000
  C   C55       1.0  0.6387052703653994  0.3730182827368013  0.16958374881261307  1.0000
  C   C56       1.0  0.6010685120012697  0.300529996092088  0.19946092781673744  1.0000
  C   C57       1.0  0.6387037496962763  0.2656762024117115  0.19170596520687164  1.0000
  C   C58       1.0  0.7080854683637411  0.2994022855185179  0.157216244844804  1.0000
  C   C59       1.0  0.5305961555400956  0.2652967158725304  0.2346893134711294  1.0000
  C   C60       1.0  0.4694030981770326  0.234709005920955  0.26527478569053636  1.0000
  C   C61       1.0  0.3989300597252381  0.1994755695239476  0.3005004998483614  1.0000
  C   C62       1.0  0.36129504103520566  0.23432433191169366  0.3082767063839143  1.0000
  C   C63       1.0  0.2919135643538127  0.2005979694035602  0.3427660447188999  1.0000
  C   C64       1.0  0.2571913906955814  0.12860850041251132  0.3713765780448099  1.0000
  C   C65       1.0  0.2919121273605327  0.09133781042251599  0.36525522138394007  1.0000
  C   C66       1.0  0.3612927737858058  0.1269888620444561  0.33036461531551004  1.0000
  C   C67       1.0  0.25718842544563364  0.6285813770752567  0.8713940350052172  1.0000
  C   C68       1.0  0.2919156175439996  0.6346795269238329  0.9086685441130414  1.0000
  C   C69       1.0  0.36129795384567853  0.669571334833691  0.8730150477226458  1.0000
  C   C70       1.0  0.39892975607045866  0.6994453548327044  0.8005259380799288  1.0000
  C   C71       1.0  0.3612885729061689  0.6916917172899416  0.7656720154457802  1.0000
  C   C72       1.0  0.2919056178564716  0.6572050309859918  0.7993981678871195  1.0000
  C   C73       1.0  0.4694039392902735  0.7346841200308842  0.7652944059432373  1.0000
  C   C74       1.0  0.5305959408172427  0.765274939443664  0.7347159963724085  1.0000
  C   C75       1.0  0.6010696840064753  0.8005132672072718  0.6994826710812845  1.0000
  C   C76       1.0  0.6387122337181879  0.8082881119829253  0.7343319682366101  1.0000
  C   C77       1.0  0.7080934949347935  0.8427767590449662  0.7006051290002658  1.0000
  C   C78       1.0  0.7428095640066277  0.8713893694302969  0.6286114619594159  1.0000
  C   C79       1.0  0.7080823255740685  0.8652713333129256  0.5913410760707547  1.0000
  C   C80       1.0  0.6387013094769356  0.8303808457485712  0.6269944903245489  1.0000
  O   O1        1.0  5.2914970199960654e-08  7.182472074997463e-07  0.4999999593579717  1.0000
  O   O2        1.0  0.15336359977297323  0.025731235276175816  0.4334339940078422  1.0000
  O   O3        1.0  0.04035063993026  0.1556522985804705  0.3846963504603238  1.0000
  O   O4        1.0  0.9591467569036423  0.9334372232893812  0.41320018748256626  1.0000
  O   O5        1.0  0.15336435855456193  0.12764939747953727  0.41320398514460516  1.0000
  O   O6        1.0  0.040836681023250755  0.9132050567761354  0.43343943803714075  1.0000
  O   O7        1.0  0.959642078667528  0.07495625930071262  0.38469438893635305  1.0000
  O   O8        1.0  0.8466325623358628  0.9334245415681081  0.5257373693522568  1.0000
  O   O9        1.0  0.9596570409298834  0.8846944040719436  0.6556572527263995  1.0000
  O   O10       1.0  0.84664275162028  0.9131907991547549  0.6276594301267906  1.0000
  O   O11       1.0  0.040352347331207745  0.8846934525037395  0.5749588314356658  1.0000
  O   O12       1.0  0.04083658975204679  0.12763725198060877  0.5257286729974098  1.0000
  O   O13       1.0  0.9591588016199281  0.025713422574341414  0.6276494368815976  1.0000
  O   O14       1.0  4.173007611224914e-07  0.499998583597673  9.41152840977199e-07  1.0000
  O   O15       1.0  0.9591557045958654  0.5867848448241801  0.0665713869443322  1.0000
  O   O16       1.0  0.040358559739672686  0.4250440087797998  0.11530630553164657  1.0000
  O   O17       1.0  0.8466364780012798  0.37235159486005653  0.08679384302807575  1.0000
  O   O18       1.0  0.0408495016455604  0.5665586460496571  0.08680584267569452  1.0000
  O   O19       1.0  0.8466346629927417  0.4742708503755396  0.06655451958411612  1.0000
  O   O20       1.0  0.959650042331738  0.34434696707682366  0.11530598802978187  1.0000
  O   O21       1.0  0.9591492131302529  0.37234374075631393  0.9742917997710946  1.0000
  O   O22       1.0  0.04034150135861144  0.6153003896239398  0.8443435774118129  1.0000
  O   O23       1.0  0.04083067483882985  0.47426237177061364  0.8723703104873763  1.0000
  O   O24       1.0  0.9596505517467123  0.6153067420864318  0.9250419014250895  1.0000
  O   O25       1.0  0.15336672721839048  0.5665636905391693  0.9742645785260751  1.0000
  O   O26       1.0  0.15335468986778267  0.5867976713585037  0.8723434004124685  1.0000
  F   F1        1.0  0.9147654513429304  0.7993208532914906  0.7858983751914226  1.0000
  F   F2        1.0  0.08523573135465774  0.7006765810953866  0.7141022906735941  1.0000
  F   F3        1.0  0.9147678106777735  0.7006647625685646  0.8845581252478849  1.0000
  F   F4        1.0  0.08523401019035518  0.7993338328933747  0.6154418875993172  1.0000
  F   F5        1.0  0.9147709603669941  0.11544787818803581  0.2993140218344763  1.0000
  F   F6        1.0  0.08523192229087323  0.3845535919628772  0.2006855189818638  1.0000
  F   F7        1.0  0.9147722757268328  0.21410920620463264  0.20065654448082879  1.0000
  F   F8        1.0  0.08523040881710396  0.28589154216159335  0.29934418213854735  1.0000
  F   F9        1.0  0.08421432691351063  0.6759506440401282  0.21962950979146706  1.0000
  F   F10       1.0  0.91577037122768  0.7195904065226699  0.17596038633184446  1.0000
  F   F11       1.0  0.08417527718515332  0.7803443299634054  0.32410279099008216  1.0000
  F   F12       1.0  0.915780809545069  0.8240446267381002  0.2803754167003518  1.0000
  F   F13       1.0  0.9157826635006074  0.19616034362308427  0.9082702498674922  1.0000
  F   F14       1.0  0.08423080037950831  0.4082435176383683  0.6961884504042218  1.0000
  F   F15       1.0  0.9157815133136751  0.09173527807607218  0.8038328761547223  1.0000
  F   F16       1.0  0.0841815798495348  0.30383042290084467  0.5917385723318133  1.0000
  F   F17       1.0  0.6044272339787328  0.1961621967967844  0.21963180406179109  1.0000
  F   F18       1.0  0.6044343282354915  0.4082618153947878  0.1759293212065175  1.0000
  F   F19       1.0  0.39556622494264815  0.09175099033767965  0.3240051239976368  1.0000
  F   F20       1.0  0.3955707640887952  0.30383543554150794  0.28036569369484704  1.0000
  F   F21       1.0  0.39555796142252586  0.7196175990231666  0.6961575438320364  1.0000
  F   F22       1.0  0.39557384534550283  0.6759184437623702  0.9082594457159273  1.0000
  F   F23       1.0  0.6044243823737289  0.8240206903038397  0.59175432008351  1.0000
  F   F24       1.0  0.6044434845773595  0.7803738331963714  0.8038445837041905  1.0000
