data_image0
_chemical_formula_structural       Rb4H20C16O24
_chemical_formula_sum              "Rb4 H20 C16 O24"
_cell_length_a       7.652277745376981
_cell_length_b       7.886407570027925
_cell_length_c       11.552481128125022
_cell_angle_alpha    90.0001290432203
_cell_angle_beta     102.90366268215205
_cell_angle_gamma    90.00023811411818

_space_group_name_H-M_alt    "P 1"
_space_group_IT_number       1

loop_
  _space_group_symop_operation_xyz
  'x, y, z'

loop_
  _atom_site_type_symbol
  _atom_site_label
  _atom_site_symmetry_multiplicity
  _atom_site_fract_x
  _atom_site_fract_y
  _atom_site_fract_z
  _atom_site_occupancy
  Rb  Rb1       1.0  0.7722692590165112  0.07673822984140338  0.5286112328369867  1.0000
  Rb  Rb2       1.0  0.7722692604542446  0.4232589604448478  0.028610672143088253  1.0000
  Rb  Rb3       1.0  0.22773106684360298  0.9232606218541833  0.47138862100477746  1.0000
  Rb  Rb4       1.0  0.22773106540908125  0.5767411592551995  0.9713891817001608  1.0000
  H   H1        1.0  0.1326799899517965  0.6406168042286923  0.24649429895383426  1.0000
  H   H2        1.0  0.132689462040112  0.8593826075288007  0.7464984427579608  1.0000
  H   H3        1.0  0.867318995627592  0.3593833154669498  0.7535044907787735  1.0000
  H   H4        1.0  0.8673095227917428  0.14061624416513757  0.25350207809283626  1.0000
  H   H5        1.0  0.12224574018141962  0.20987677396873045  0.1455699916895483  1.0000
  H   H6        1.0  0.12224949951823313  0.29012069764019094  0.6455723138314368  1.0000
  H   H7        1.0  0.8777545860540673  0.7901233457299384  0.8544289965938673  1.0000
  H   H8        1.0  0.8777521666290228  0.7098794220642619  0.35442860412245375  1.0000
  H   H9        1.0  0.7176465624626047  0.4218873895577104  0.35497130970910723  1.0000
  H   H10       1.0  0.7176492500307957  0.07811315662558371  0.8549705395949586  1.0000
  H   H11       1.0  0.28235510442897305  0.5781127301439851  0.6450278771251092  1.0000
  H   H12       1.0  0.28235107545394567  0.9218844270669139  0.1450301798051612  1.0000
  H   H13       1.0  0.30094907515260877  0.4378255092591489  0.4464316996369746  1.0000
  H   H14       1.0  0.3009543622731741  0.062179984146091306  0.94643388605396  1.0000
  H   H15       1.0  0.699052591738969  0.562174610442547  0.5535674871972488  1.0000
  H   H16       1.0  0.6990432815336334  0.937820135550659  0.053567301807340977  1.0000
  H   H17       1.0  0.30218443086150876  0.2047965055205339  0.3097365094845586  1.0000
  H   H18       1.0  0.3021908979766437  0.2952060209795063  0.8097375094895439  1.0000
  H   H19       1.0  0.6978158953707663  0.7952023461736674  0.6902624787973721  1.0000
  H   H20       1.0  0.6978080868584231  0.7047940987188924  0.190263011362731  1.0000
  C   C1        1.0  0.0255279276727975  0.3848197027274055  0.3666104163592223  1.0000
  C   C2        1.0  0.025530801716882906  0.1151844227782419  0.8666123295754032  1.0000
  C   C3        1.0  0.9744737392187873  0.6151804169742904  0.6333887704749941  1.0000
  C   C4        1.0  0.9744668428342467  0.8848156969157516  0.13338712716623036  1.0000
  C   C5        1.0  0.2120358010834806  0.44957832131045466  0.3576141241069379  1.0000
  C   C6        1.0  0.21204102834801122  0.0504239934447099  0.8576171486075523  1.0000
  C   C7        1.0  0.7879645251519991  0.5504217983882144  0.6423848641764779  1.0000
  C   C8        1.0  0.7879579564870556  0.9495761262536889  0.14238337224472283  1.0000
  C   C9        1.0  0.2845932068397161  0.33300560842959476  0.2715727591964523  1.0000
  C   C10       1.0  0.2845976837438116  0.1669967252619458  0.7715749920780935  1.0000
  C   C11       1.0  0.7154071193957634  0.666994511269074  0.7284262290869563  1.0000
  C   C12       1.0  0.715401301091255  0.8330033944364531  0.2284255287741814  1.0000
  C   C13       1.0  0.47020051900160104  0.3938473578214571  0.26158353531041467  1.0000
  C   C14       1.0  0.4702060294016449  0.10615062229690152  0.7615840933989871  1.0000
  C   C15       1.0  0.5297998072338856  0.6061527618772119  0.738415452972994  1.0000
  C   C16       1.0  0.529792955058049  0.8938482293984152  0.23841729301163633  1.0000
  O   O1        1.0  0.8969125785127048  0.49234188145176466  0.35343746828002043  1.0000
  O   O2        1.0  0.8969175912245291  0.007658116504302401  0.8534360650178668  1.0000
  O   O3        1.0  0.1030904282842258  0.5076557022467867  0.6465636482217008  1.0000
  O   O4        1.0  0.1030813936105375  0.9923420031940963  0.1465644558344081  1.0000
  O   O5        1.0  0.008901354872982404  0.22824143444813666  0.38448638998573165  1.0000
  O   O6        1.0  0.008906363054059301  0.2717588768364649  0.8844862710743868  1.0000
  O   O7        1.0  0.9911003112742734  0.771758685256316  0.615514527968152  1.0000
  O   O8        1.0  0.9910912811249163  0.7282412428589069  0.1155140512270876  1.0000
  O   O9        1.0  0.21475448026521352  0.622441519516663  0.3251321850292612  1.0000
  O   O10       1.0  0.21476136450861827  0.8775584747660119  0.8251325119783033  1.0000
  O   O11       1.0  0.7852458452259512  0.3775586001847628  0.6748685343738217  1.0000
  O   O12       1.0  0.7852376203264485  0.12244164493238692  0.1748680088739718  1.0000
  O   O13       1.0  0.16359824032477385  0.32955621180498446  0.15872144297506446  1.0000
  O   O14       1.0  0.1636013940200982  0.17044273690705583  0.6587234853649875  1.0000
  O   O15       1.0  0.8364034273143376  0.6704451758984151  0.8412760127409699  1.0000
  O   O16       1.0  0.8364002721239532  0.8295561147929364  0.3412774325874182  1.0000
  O   O17       1.0  0.5024796957658424  0.45252925494069274  0.16957884596927633  1.0000
  O   O18       1.0  0.5024835670701792  0.04747363429998332  0.6695825305817067  1.0000
  O   O19       1.0  0.49752063084500975  0.5474721327610583  0.8304192767557835  1.0000
  O   O20       1.0  0.49751407710878953  0.9525264853953886  0.3304177917197606  1.0000
  O   O21       1.0  0.590751208370236  0.3774676814979046  0.3629887987013731  1.0000
  O   O22       1.0  0.5907541196061885  0.1225311092901222  0.8629907290968503  1.0000
  O   O23       1.0  0.4092491182374118  0.6225324381993859  0.637009324022209  1.0000
  O   O24       1.0  0.4092462054999757  0.8774639383948327  0.13701085586013306  1.0000
