data_image0
_chemical_formula_structural       Ag2P4H56C66S4N2O4
_chemical_formula_sum              "Ag2 P4 H56 C66 S4 N2 O4"
_cell_length_a       11.222102787009584
_cell_length_b       12.941639718048352
_cell_length_c       13.129184172762285
_cell_angle_alpha    114.01549656804403
_cell_angle_beta     100.2520482027704
_cell_angle_gamma    105.35766570309545

_space_group_name_H-M_alt    "P 1"
_space_group_IT_number       1

loop_
  _space_group_symop_operation_xyz
  'x, y, z'

loop_
  _atom_site_type_symbol
  _atom_site_label
  _atom_site_symmetry_multiplicity
  _atom_site_fract_x
  _atom_site_fract_y
  _atom_site_fract_z
  _atom_site_occupancy
  Ag  Ag1       1.0  0.6289126993389189  0.8108879816644076  0.07281343853284031  1.0000
  Ag  Ag2       1.0  0.3710773278189876  0.18910986696259607  0.9271817108658097  1.0000
  P   P1        1.0  0.6958522406780004  0.009459493016216004  0.08266838654492398  1.0000
  P   P2        1.0  0.3041405965521731  0.9905429045819643  0.9173297677624955  1.0000
  P   P3        1.0  0.6694650021658006  0.6256625802832545  0.990158017392396  1.0000
  P   P4        1.0  0.3305281487682166  0.3743361477964484  0.00984480274452436  1.0000
  H   H1        1.0  0.28301529243438484  0.8466324739076185  0.3196757717795293  1.0000
  H   H2        1.0  0.7169722371281894  0.15336359524034998  0.6803281948293716  1.0000
  H   H3        1.0  0.6003556995825504  0.8614090631981667  0.6518499871961865  1.0000
  H   H4        1.0  0.3996585948897007  0.13858838305267804  0.3481455463310539  1.0000
  H   H5        1.0  0.3863346756613807  0.878268463669805  0.6666817499504417  1.0000
  H   H6        1.0  0.6136805575250505  0.12172897774654248  0.33332001397183564  1.0000
  H   H7        1.0  0.23093600827815663  0.8722817191764777  0.5044631589786874  1.0000
  H   H8        1.0  0.769069957647389  0.127708545120278  0.4955465368721547  1.0000
  H   H9        1.0  0.8324321524698064  0.7941133713036734  0.23261597078500537  1.0000
  H   H10       1.0  0.16758039441639738  0.20589699600014907  0.7674020126516935  1.0000
  H   H11       1.0  0.7902950215144173  0.4413320443187558  0.9645770589849505  1.0000
  H   H12       1.0  0.20970575817469944  0.5586784958070865  0.03542782682458778  1.0000
  H   H13       1.0  0.020339082545682112  0.7971768576783375  0.3671557892716208  1.0000
  H   H14       1.0  0.9796797425752787  0.2028269626339139  0.6328528770397099  1.0000
  H   H15       1.0  0.09231069455218933  0.6201742237719969  0.3010634508694636  1.0000
  H   H16       1.0  0.9077007592217401  0.3798251051043451  0.6989316566784183  1.0000
  H   H17       1.0  0.976628850472345  0.44341834729200963  0.10104747780557942  1.0000
  H   H18       1.0  0.02337700893193064  0.5565893337874783  0.8989455864809199  1.0000
  H   H19       1.0  0.8358177241418474  0.5314453045926371  0.5861395221713933  1.0000
  H   H20       1.0  0.16417470985496854  0.4685451706152577  0.41386216180929836  1.0000
  H   H21       1.0  0.8887865673542732  0.7582631435617202  0.9504363073451854  1.0000
  H   H22       1.0  0.11119776860726918  0.24173846784496084  0.04955646430803988  1.0000
  H   H23       1.0  0.5568005146459923  0.4170714850070566  0.7417830667605613  1.0000
  H   H24       1.0  0.443198271083439  0.5829124617441437  0.25822074349503765  1.0000
  H   H25       1.0  0.6333291837312558  0.379525101237661  0.5701457222896735  1.0000
  H   H26       1.0  0.366670333634957  0.620467102092313  0.4298615128022121  1.0000
  H   H27       1.0  0.9636441100407823  0.7205466832221319  0.7769477286221614  1.0000
  H   H28       1.0  0.03633474180181648  0.2794504295509483  0.22304547084439008  1.0000
  H   H29       1.0  0.741850092169159  0.27600332823109847  0.23005209103202864  1.0000
  H   H30       1.0  0.2581558113338429  0.7240043639693139  0.7699478392946302  1.0000
  H   H31       1.0  0.8938578216379228  0.4287453968732962  0.4289804747580773  1.0000
  H   H32       1.0  0.10614513944017284  0.5712595872934685  0.5710179322118236  1.0000
  H   H33       1.0  0.04687338129146205  0.3726335971066348  0.5412347905157872  1.0000
  H   H34       1.0  0.9531283187393242  0.6273704942314636  0.4587661178258599  1.0000
  H   H35       1.0  0.044548101587842795  0.16211236251928093  0.4517112675147529  1.0000
  H   H36       1.0  0.955451271228668  0.8378926829978469  0.5482881562489722  1.0000
  H   H37       1.0  0.8876967660048224  0.0065093075681374995  0.2534241276961281  1.0000
  H   H38       1.0  0.11230083228032571  0.9934957735667923  0.7465788560379066  1.0000
  H   H39       1.0  0.7366138070292294  0.8400475797014337  0.8824562218661711  1.0000
  H   H40       1.0  0.2633745424240317  0.1599548939668622  0.11754282198683799  1.0000
  H   H41       1.0  0.9101982992164678  0.243799670306025  0.8983507295735292  1.0000
  H   H42       1.0  0.08980508831867691  0.7561997984620987  0.10164781010045938  1.0000
  H   H43       1.0  0.8180545341646449  0.22683096355160612  0.05145899874848677  1.0000
  H   H44       1.0  0.18195438158817007  0.7731730149710432  0.9485459791523425  1.0000
  H   H45       1.0  0.9145058523432681  0.05950609182007581  0.7362854653583568  1.0000
  H   H46       1.0  0.08549694448053899  0.9404897209136748  0.26371685000356127  1.0000
  H   H47       1.0  0.8312817025311502  0.8581358043224157  0.7301192776268052  1.0000
  H   H48       1.0  0.16871106237159234  0.1418620100305716  0.2698823566633237  1.0000
  H   H49       1.0  0.514689237032961  0.0579177651618181  0.13229444967363688  1.0000
  H   H50       1.0  0.48530753896415746  0.9420919151737265  0.8677056897228181  1.0000
  H   H51       1.0  0.5786637134048364  0.13848746279909108  0.05899799389349167  1.0000
  H   H52       1.0  0.42133321454434747  0.8615203815415527  0.941003715524353  1.0000
  H   H53       1.0  0.4507478339610813  0.4802526958483853  0.8734256773179466  1.0000
  H   H54       1.0  0.5492486834575345  0.519754228587253  0.12657103178635506  1.0000
  H   H55       1.0  0.5491285792003139  0.4086172083289981  0.91710492985338  1.0000
  H   H56       1.0  0.4508500140637821  0.5913771485441828  0.08288483932101093  1.0000
  C   C1        1.0  0.5570898075670243  0.8432113253165453  0.4763730411345505  1.0000
  C   C2        1.0  0.4429231167776564  0.1567935142320565  0.5236374460727191  1.0000
  C   C3        1.0  0.5241026122369019  0.8261575174799489  0.28490480803359464  1.0000
  C   C4        1.0  0.4758927396855269  0.17383565958330388  0.7150945848371035  1.0000
  C   C5        1.0  0.46958846243687435  0.8387587349185137  0.38291313420462786  1.0000
  C   C6        1.0  0.5304100757893763  0.16123990237130667  0.6170889236349238  1.0000
  C   C7        1.0  0.3505178090138088  0.8481051432510683  0.3915655672508933  1.0000
  C   C8        1.0  0.6494830845989412  0.1518989862842943  0.6084497088162166  1.0000
  C   C9        1.0  0.5304207371667146  0.8563103920867119  0.5791596681407325  1.0000
  C   C10       1.0  0.4695902227225872  0.1436898701787257  0.4208395495791207  1.0000
  C   C11       1.0  0.41058142212094134  0.8657874581925356  0.5869662725891444  1.0000
  C   C12       1.0  0.5894329250228267  0.13421644066115587  0.41304480905448315  1.0000
  C   C13       1.0  0.32181706908622926  0.8615833955567563  0.49449165773953735  1.0000
  C   C14       1.0  0.6781974300096039  0.1384186673020338  0.5055209939254866  1.0000
  C   C15       1.0  0.8000392565389162  0.618953882635175  0.08974411301847598  1.0000
  C   C16       1.0  0.1999597547456133  0.3810502553335198  0.9102579393652092  1.0000
  C   C17       1.0  0.8652883663071548  0.7180253738677322  0.20338932431651816  1.0000
  C   C18       1.0  0.13471429203724478  0.2819787175784967  0.7966208659935744  1.0000
  C   C19       1.0  0.8399309458494528  0.519160382345099  0.05298667871122828  1.0000
  C   C20       1.0  0.16006880809847232  0.4808455756630819  0.9470131680059308  1.0000
  C   C21       1.0  0.970109633087084  0.7187302126561403  0.2794083186924609  1.0000
  C   C22       1.0  0.029902460396755284  0.2812727846111471  0.7205906421010084  1.0000
  C   C23       1.0  0.009919315627179402  0.6198586815591368  0.2424804237843431  1.0000
  C   C24       1.0  0.9900874113907675  0.3801379724300488  0.7575151945903896  1.0000
  C   C25       1.0  0.9442898273169932  0.51993707991506  0.1294870711494553  1.0000
  C   C26       1.0  0.05571875513255257  0.480070563183439  0.8705101893484652  1.0000
  C   C27       1.0  0.718129648141506  0.589999561583447  0.8585820583824102  1.0000
  C   C28       1.0  0.28186789374269955  0.4099945010026574  0.1414195377248717  1.0000
  C   C29       1.0  0.8030182060955156  0.5475346986011544  0.6624500723175969  1.0000
  C   C30       1.0  0.1969822782135892  0.4524620720185907  0.3375530471464429  1.0000
  C   C31       1.0  0.8325825714150739  0.6750702762576495  0.8670461388345242  1.0000
  C   C32       1.0  0.16741065797314994  0.32492659729228984  0.13294680792352404  1.0000
  C   C33       1.0  0.6463777475959063  0.48383747636543717  0.7508769474300578  1.0000
  C   C34       1.0  0.3536229045917452  0.5161510229557749  0.2491228744459235  1.0000
  C   C35       1.0  0.6892217963372146  0.46282182085944606  0.6532618787186592  1.0000
  C   C36       1.0  0.3107680665664033  0.5371668563345438  0.346737179072008  1.0000
  C   C37       1.0  0.8748671206622447  0.6539172129010636  0.7695436394740653  1.0000
  C   C38       1.0  0.12512308294701305  0.346078805909336  0.2304568944127466  1.0000
  C   C39       1.0  0.8057122472875022  0.1306021475095207  0.22731601045974503  1.0000
  C   C40       1.0  0.1942910851223018  0.8694037466769869  0.7726812936768964  1.0000
  C   C41       1.0  0.8077388451727571  0.2500201191543496  0.2776924991390075  1.0000
  C   C42       1.0  0.1922639737529933  0.7499867034786262  0.7223058635961975  1.0000
  C   C43       1.0  0.8938939350407225  0.3365956149636773  0.39045585320940296  1.0000
  C   C44       1.0  0.10611376259306825  0.6634120465615536  0.6095435687203546  1.0000
  C   C45       1.0  0.9793785813583114  0.30551117213021683  0.45306186114378727  1.0000
  C   C46       1.0  0.020627225317966135  0.6944919306467128  0.5469377346988294  1.0000
  C   C47       1.0  0.9782335976916486  0.18701446502330296  0.4034327212888512  1.0000
  C   C48       1.0  0.021771914880218818  0.8129923122147389  0.5965652602976732  1.0000
  C   C49       1.0  0.8908823596103802  0.09989589525612529  0.2916459209480138  1.0000
  C   C50       1.0  0.1091183183521663  0.9001100542105784  0.7083578674841174  1.0000
  C   C51       1.0  0.7705477578144837  0.03159451350338571  0.9766758842667329  1.0000
  C   C52       1.0  0.22944536372038718  0.9684042071623651  0.02332235851007869  1.0000
  C   C53       1.0  0.774873476300435  0.9284844656370765  0.8856819211799517  1.0000
  C   C54       1.0  0.22512259745904833  0.0715169655336325  0.11431937074031849  1.0000
  C   C55       1.0  0.8727937402612653  0.1554152120475862  0.8954303429472572  1.0000
  C   C56       1.0  0.1272088997106167  0.8445824354454106  0.10456963949990698  1.0000
  C   C57       1.0  0.8204248834171752  0.1455079648818867  0.9813186883569072  1.0000
  C   C58       1.0  0.17957313152530927  0.854491598383092  0.018682902294507565  1.0000
  C   C59       1.0  0.876379874827677  0.05226377360133939  0.8048051141459212  1.0000
  C   C60       1.0  0.12361915728319403  0.9477339302993784  0.1951928335216522  1.0000
  C   C61       1.0  0.8280012802366626  0.9388087879588837  0.8003331895142619  1.0000
  C   C62       1.0  0.17199470649582344  0.0611880562596596  0.1996692937086735  1.0000
  C   C63       1.0  0.5519369137582046  0.0499720025603025  0.0584557072967016  1.0000
  C   C64       1.0  0.44806655957702873  0.9500384921705985  0.9415487973641488  1.0000
  C   C65       1.0  0.5252624114384332  0.4911139563641669  0.9480065409744467  1.0000
  C   C66       1.0  0.4747259331149749  0.5088885160684667  0.05199173998521184  1.0000
  S   S1        1.0  0.4382868037836045  0.8148541261449294  0.15819845669437874  1.0000
  S   S2        1.0  0.5616997012646934  0.18513092187476593  0.841793314532623  1.0000
  S   S3        1.0  0.6969770369459098  0.8298302537966505  0.43419036509668263  1.0000
  S   S4        1.0  0.30301182594271836  0.170147408447356  0.5658003117788438  1.0000
  N   N1        1.0  0.6434527705837638  0.8236150859654432  0.30447119702979114  1.0000
  N   N2        1.0  0.3565398791197438  0.17637169501082184  0.6955198949133674  1.0000
  O   O1        1.0  0.8134454525981736  0.9393690085170545  0.5099073433566585  1.0000
  O   O2        1.0  0.1865593332367723  0.0606295133778687  0.4900879762869294  1.0000
  O   O3        1.0  0.7074268331213601  0.7148252376955567  0.41697944972102613  1.0000
  O   O4        1.0  0.2925655200239063  0.28517809576304387  0.5830243405450729  1.0000
