data_image0
_chemical_formula_structural       Al2C24S6Br6O12
_chemical_formula_sum              "Al2 C24 S6 Br6 O12"
_cell_length_a       3.991909889007941
_cell_length_b       20.140349009709983
_cell_length_c       20.14025658071146
_cell_angle_alpha    120.00011665531758
_cell_angle_beta     89.9997818692148
_cell_angle_gamma    90.00009537945387

_space_group_name_H-M_alt    "P 1"
_space_group_IT_number       1

loop_
  _space_group_symop_operation_xyz
  'x, y, z'

loop_
  _atom_site_type_symbol
  _atom_site_label
  _atom_site_symmetry_multiplicity
  _atom_site_fract_x
  _atom_site_fract_y
  _atom_site_fract_z
  _atom_site_occupancy
  Al  Al1       1.0  0.9999724163458839  0.5000001658477019  0.49999902567954996  1.0000
  Al  Al2       1.0  0.9999730176537938  0.16666683699936863  0.8333314418906852  1.0000
  C   C1        1.0  0.5002826139199996  0.440752509110503  0.38272763150681044  1.0000
  C   C2        1.0  0.5002885146785871  0.44197619156173557  0.5592471811620499  1.0000
  C   C3        1.0  0.5002917413354099  0.6172732622661738  0.5580254410006658  1.0000
  C   C4        1.0  0.5002906734046421  0.22468376210331067  0.7740748935991277  1.0000
  C   C5        1.0  0.5002949617954471  0.04939379077853063  0.7753163463933461  1.0000
  C   C6        1.0  0.5002940690507103  0.22592463336534496  0.9506070454880486  1.0000
  C   C7        1.0  0.4901794107333687  0.42888452976885083  0.6799457791802083  1.0000
  C   C8        1.0  0.4901613446060368  0.23777217941320558  0.6533696187372584  1.0000
  C   C9        1.0  0.49874733829422274  0.39938861117616403  0.6015253246375778  1.0000
  C   C10       1.0  0.4987506179677866  0.2672686707285834  0.7317894928849356  1.0000
  C   C11       1.0  0.5032357008872952  0.2965452487843264  0.6342183015824645  1.0000
  C   C12       1.0  0.5032479291239653  0.37011287222208705  0.6990996449754192  1.0000
  C   C13       1.0  0.49017670461306295  0.7510644454572529  0.5711175584814896  1.0000
  C   C14       1.0  0.49017311303926914  0.915601061994728  0.762230763062618  1.0000
  C   C15       1.0  0.49874356341377535  0.7021383087134366  0.6006123330077031  1.0000
  C   C16       1.0  0.4987609500959351  0.9645244288884314  0.7327337855458677  1.0000
  C   C17       1.0  0.5032397636538023  0.8376768404914258  0.7034577745048409  1.0000
  C   C18       1.0  0.5032479185701818  0.8289898126931304  0.6298893896160037  1.0000
  C   C19       1.0  0.49017540861496667  0.3200528557316814  0.24893507546369154  1.0000
  C   C20       1.0  0.4901745207270737  0.3466307292352511  0.08439787771062161  1.0000
  C   C21       1.0  0.49874260523486674  0.39847548349074907  0.29786017156689576  1.0000
  C   C22       1.0  0.4987620199391216  0.2682102967958926  0.0354755438018657  1.0000
  C   C23       1.0  0.5032378056019342  0.36578344634970256  0.16232258698749288  1.0000
  C   C24       1.0  0.5032474832477335  0.3009007878329228  0.1710087122460777  1.0000
  S   S1        1.0  0.5173825924658574  0.2996747584790284  0.5505045508073252  1.0000
  S   S2        1.0  0.5174007745602935  0.3669842215213704  0.7828125241024466  1.0000
  S   S3        1.0  0.5173830462813599  0.7508337304257892  0.7003272827133884  1.0000
  S   S4        1.0  0.5173993628295079  0.9158307258427029  0.6330171004994795  1.0000
  S   S5        1.0  0.5173884691592646  0.44949568872498696  0.24916717555670687  1.0000
  S   S6        1.0  0.517399061723765  0.21718852389284393  0.08416810475463882  1.0000
  Br  Br1       1.0  0.488969208652236  0.5337182872553966  0.7540419792365823  1.0000
  Br  Br2       1.0  0.4889266017268952  0.13294184139377294  0.5792739724351178  1.0000
  Br  Br3       1.0  0.4889625845269876  0.7203254604134556  0.4662820350356895  1.0000
  Br  Br4       1.0  0.48894980338636174  0.9463402775491616  0.8670630779647656  1.0000
  Br  Br5       1.0  0.488962374134971  0.2459586567420188  0.27967382702018984  1.0000
  Br  Br6       1.0  0.48894511529445595  0.42072485150236366  0.05366019700885971  1.0000
  O   O1        1.0  0.7351088901590616  0.5842004200863186  0.5734938680180406  1.0000
  O   O2        1.0  0.7351099522566857  0.4892950472156769  0.41579952450727825  1.0000
  O   O3        1.0  0.7351113322200717  0.42650641465510825  0.5107036482022309  1.0000
  O   O4        1.0  0.26614097132465275  0.5836435944557649  0.5097019138713533  1.0000
  O   O5        1.0  0.26614000371910157  0.4902986594217251  0.573940709128415  1.0000
  O   O6        1.0  0.26614118907632905  0.42605902736209345  0.4163566401930439  1.0000
  O   O7        1.0  0.7351090954309857  0.17738001588821078  0.9175340428903525  1.0000
  O   O8        1.0  0.7351052104620664  0.24015673204132768  0.8226180027524349  1.0000
  O   O9        1.0  0.7351101574617543  0.08246407764051589  0.7598423205333305  1.0000
  O   O10       1.0  0.26614085500563084  0.24061308958395203  0.9169743342832958  1.0000
  O   O11       1.0  0.26613856760977234  0.08302584514736107  0.82363670317379  1.0000
  O   O12       1.0  0.26613703022236734  0.17636256981784706  0.7593862575560023  1.0000
