data_image0
_chemical_formula_structural       Cu12H16C24I8N20
_chemical_formula_sum              "Cu12 H16 C24 I8 N20"
_cell_length_a       8.581944150783125
_cell_length_b       10.413223556364
_cell_length_c       12.562488007007312
_cell_angle_alpha    89.99991676349916
_cell_angle_beta     89.99992682943609
_cell_angle_gamma    100.33943303764931

_space_group_name_H-M_alt    "P 1"
_space_group_IT_number       1

loop_
  _space_group_symop_operation_xyz
  'x, y, z'

loop_
  _atom_site_type_symbol
  _atom_site_label
  _atom_site_symmetry_multiplicity
  _atom_site_fract_x
  _atom_site_fract_y
  _atom_site_fract_z
  _atom_site_occupancy
  Cu  Cu1       1.0  0.6952061307037525  0.9980068450599258  0.4332134558991924  1.0000
  Cu  Cu2       1.0  0.804793276456124  0.5019934536300069  0.9332133751104124  1.0000
  Cu  Cu3       1.0  0.30479436737074656  0.0019942301762298996  0.566786473333728  1.0000
  Cu  Cu4       1.0  0.19520539932310751  0.4980046988967643  0.0667865541250166  1.0000
  Cu  Cu5       1.0  0.006859022046398874  0.958496503513366  0.4006254966563744  1.0000
  Cu  Cu6       1.0  0.4931400538610833  0.5415044045893538  0.9006259977840397  1.0000
  Cu  Cu7       1.0  0.993141256583961  0.0415035955701413  0.5993752285978644  1.0000
  Cu  Cu8       1.0  0.5068581162803909  0.4584966821370314  0.09937552349123278  1.0000
  Cu  Cu9       1.0  0.1269799918243208  0.43832040960310065  0.3303633881864556  1.0000
  Cu  Cu10      1.0  0.3730209926361709  0.061680872621728576  0.8303639733728189  1.0000
  Cu  Cu11      1.0  0.873020725693401  0.5616816417848298  0.6696365410457972  1.0000
  Cu  Cu12      1.0  0.6269779025862832  0.9383182560568313  0.16963595586194194  1.0000
  H   H1        1.0  0.5901031624147636  0.9186391067105004  0.9383563195905467  1.0000
  H   H2        1.0  0.9098999442891724  0.5813621397797063  0.4383566903909537  1.0000
  H   H3        1.0  0.40989573280860014  0.08136002196891919  0.0616428136235569  1.0000
  H   H4        1.0  0.09010193719414868  0.4186399058622498  0.5616432388407802  1.0000
  H   H5        1.0  0.9212341293353036  0.12242427440887128  0.14700781690579837  1.0000
  H   H6        1.0  0.5787651342818023  0.3775759003708358  0.647007503741257  1.0000
  H   H7        1.0  0.07876316303327972  0.8775729077103662  0.8529937043721244  1.0000
  H   H8        1.0  0.4212398002127884  0.6224241757304866  0.3529916294695994  1.0000
  H   H9        1.0  0.9678843618489593  0.20733291351670857  0.8111445003730535  1.0000
  H   H10       1.0  0.5321175115698509  0.2926698235448484  0.31114655655082396  1.0000
  H   H11       1.0  0.03211431392936252  0.792665239009203  0.18885622488303255  1.0000
  H   H12       1.0  0.46788436991347027  0.7073322220971079  0.6888533726809101  1.0000
  H   H13       1.0  0.07091394266547012  0.2452573378851142  0.9980051573160864  1.0000
  H   H14       1.0  0.4290876018205195  0.25474260018764733  0.49800690243829127  1.0000
  H   H15       1.0  0.9290833497040296  0.7547398442349902  0.0019955679411794  1.0000
  H   H16       1.0  0.5709173326731545  0.7452574759128154  0.5019930267932152  1.0000
  C   C1        1.0  0.7718275293019445  0.059076908183719495  0.8604557656206779  1.0000
  C   C2        1.0  0.7281740115768757  0.4409247461717668  0.3604566789868642  1.0000
  C   C3        1.0  0.228171146477294  0.9409212443430516  0.1395441636147439  1.0000
  C   C4        1.0  0.271829033872045  0.559077293724222  0.6395432502443583  1.0000
  C   C5        1.0  0.6959674428187412  0.9929775843313703  0.9485452937214233  1.0000
  C   C6        1.0  0.8040328736983824  0.5070216993299185  0.44854584516951224  1.0000
  C   C7        1.0  0.30403028843902996  0.0070215500940236  0.0514538394931918  1.0000
  C   C8        1.0  0.19596834945618719  0.4929774178575455  0.5514532880435538  1.0000
  C   C9        1.0  0.9084045249163709  0.15201885906122928  0.8775159656023988  1.0000
  C   C10       1.0  0.5915971962787269  0.34798373458253445  0.37751551655195204  1.0000
  C   C11       1.0  0.0915941508628607  0.8479792934655423  0.12248396363302308  1.0000
  C   C12       1.0  0.4084056297269711  0.6520173291616657  0.622484412679931  1.0000
  C   C13       1.0  0.6992361107411326  0.03393442388890829  0.7556795931850999  1.0000
  C   C14       1.0  0.8007654510053541  0.46606648072405216  0.2556796165435102  1.0000
  C   C15       1.0  0.3007639484469209  0.9660646990436701  0.24432033604914236  1.0000
  C   C16       1.0  0.1992352665123676  0.5339355706638783  0.7443203126887494  1.0000
  C   C17       1.0  0.8817217184977865  0.10624779954509482  0.0647399046909456  1.0000
  C   C18       1.0  0.618276569839736  0.39375255875140164  0.5647395374864814  1.0000
  C   C19       1.0  0.11827484879346886  0.8937513406254141  0.9352600245448528  1.0000
  C   C20       1.0  0.3817272006883385  0.6062475230950354  0.4352603917455439  1.0000
  C   C21       1.0  0.9644201167857815  0.17409256609335697  0.9811793103397831  1.0000
  C   C22       1.0  0.535581872285789  0.32590686934365465  0.4811805289497285  1.0000
  C   C23       1.0  0.03557833954931771  0.8259046102807658  0.018821414916963895  1.0000
  C   C24       1.0  0.4644218982413689  0.6740932125019227  0.5188201963029612  1.0000
  I   I1        1.0  0.9442490371194482  0.1935312507742779  0.42492007060423725  1.0000
  I   I2        1.0  0.5557498085329158  0.306469299622364  0.9249206562926631  1.0000
  I   I3        1.0  0.05575124151182815  0.8064688483100891  0.5750798586293441  1.0000
  I   I4        1.0  0.444246978199736  0.6935308166982066  0.07508086498378928  1.0000
  I   I5        1.0  0.7670063421679103  0.8100214430099653  0.3109256545916779  1.0000
  I   I6        1.0  0.7329945094314924  0.689979114182911  0.810925420540748  1.0000
  I   I7        1.0  0.23299531987127148  0.18997962647934938  0.6890750706613814  1.0000
  I   I8        1.0  0.2670030023821468  0.31001904408983444  0.1890745086951924  1.0000
  N   N1        1.0  0.5409569578080636  0.016523584916590995  0.740884037997823  1.0000
  N   N2        1.0  0.959042529385961  0.48347833931250495  0.24088310367957175  1.0000
  N   N3        1.0  0.4590407734487911  0.9834755495079434  0.2591158912374567  1.0000
  N   N4        1.0  0.04095796869036408  0.5165227359253632  0.7591152335120268  1.0000
  N   N5        1.0  0.7719623019855177  0.023785568391282694  0.6616806708354304  1.0000
  N   N6        1.0  0.7280371474213752  0.4762155508335794  0.1616807474784778  1.0000
  N   N7        1.0  0.22803681268015907  0.9762145364390589  0.33831925839866966  1.0000
  N   N8        1.0  0.2719619672452183  0.5237845539976219  0.8383183857349579  1.0000
  N   N9        1.0  0.6547539347279213  0.9961971746350571  0.5892287483505356  1.0000
  N   N10       1.0  0.8452462613798916  0.5038038673633451  0.0892284706527491  1.0000
  N   N11       1.0  0.3452465633465778  0.0038039006010919  0.4107711808823851  1.0000
  N   N12       1.0  0.1547526338434722  0.4961952613160746  0.9107706625613543  1.0000
  N   N13       1.0  0.5160203781371563  0.9924326372585524  0.6365498527487645  1.0000
  N   N14       1.0  0.9839813122893092  0.5075702490425443  0.1365494466541719  1.0000
  N   N15       1.0  0.4839801199382521  0.007568437978456199  0.3634492804634916  1.0000
  N   N16       1.0  0.0160189663428767  0.49242985004268275  0.8634496865587521  1.0000
  N   N17       1.0  0.7479909267888729  0.016506900207915  0.04900029986104929  1.0000
  N   N18       1.0  0.7520097255779205  0.48349348060647673  0.549001301319194  1.0000
  N   N19       1.0  0.2520077489903585  0.9834912523188561  0.9509996293743725  1.0000
  N   N20       1.0  0.24799310042868677  0.5165075831385835  0.45099783189203174  1.0000
