data_image0
_chemical_formula_structural       Co2H16C16N8O8
_chemical_formula_sum              "Co2 H16 C16 N8 O8"
_cell_length_a       8.218405958365507
_cell_length_b       8.213272548990673
_cell_length_c       9.142617371381167
_cell_angle_alpha    84.07116722096522
_cell_angle_beta     84.44655815252821
_cell_angle_gamma    76.12974416738534

_space_group_name_H-M_alt    "P 1"
_space_group_IT_number       1

loop_
  _space_group_symop_operation_xyz
  'x, y, z'

loop_
  _atom_site_type_symbol
  _atom_site_label
  _atom_site_symmetry_multiplicity
  _atom_site_fract_x
  _atom_site_fract_y
  _atom_site_fract_z
  _atom_site_occupancy
  Co  Co1       1.0  0.6490807986904982  0.3433180065313549  0.7549131848792143  1.0000
  Co  Co2       1.0  0.35038019729411474  0.6492900394565169  0.2503995229187623  1.0000
  H   H1        1.0  0.20457124613613334  0.21487805186168876  0.02936339682453591  1.0000
  H   H2        1.0  0.7926441298036339  0.7960421131958311  0.46940112481171786  1.0000
  H   H3        1.0  0.8099320893957084  0.79746389791093  0.974233869458871  1.0000
  H   H4        1.0  0.2013726843774676  0.18882842978496228  0.5252792078736945  1.0000
  H   H5        1.0  0.8736272573323021  0.18150486246385358  0.03329616876883531  1.0000
  H   H6        1.0  0.8187189553704283  0.12955517087841883  0.4667320464904989  1.0000
  H   H7        1.0  0.14060945089812554  0.8299146622338398  0.974647989297907  1.0000
  H   H8        1.0  0.17045054920980363  0.8575360137610841  0.525917480058638  1.0000
  H   H9        1.0  0.25446659737159655  0.3781323708102278  0.775170166413389  1.0000
  H   H10       1.0  0.6308356632873355  0.7407006298641151  0.7236754448112208  1.0000
  H   H11       1.0  0.7556838843081765  0.6334247413912734  0.2246621744824395  1.0000
  H   H12       1.0  0.3647573616227504  0.24450914215218233  0.27550475722637213  1.0000
  H   H13       1.0  0.9943332530480758  0.4498831134105856  0.6352048592316353  1.0000
  H   H14       1.0  0.547474145601285  0.0007926648504223976  0.859774301372056  1.0000
  H   H15       1.0  0.017285188394055233  0.5533206792659584  0.36763454084233166  1.0000
  H   H16       1.0  0.4450453941240868  0.983284735509123  0.1335289165109899  1.0000
  C   C1        1.0  0.1110631558541684  0.2575575088741076  0.9497069528576675  1.0000
  C   C2        1.0  0.7467676376583442  0.8890178537477097  0.5484305171239257  1.0000
  C   C3        1.0  0.9023686512650925  0.7532903242475228  0.05480271805726739  1.0000
  C   C4        1.0  0.24610520485893525  0.09655398748211037  0.44535134899976475  1.0000
  C   C5        1.0  0.9477351502655297  0.24227970452830766  0.9502318974016576  1.0000
  C   C6        1.0  0.7581712411159813  0.0535605180335068  0.5483072483489908  1.0000
  C   C7        1.0  0.06574564881825043  0.7680394942719744  0.05598849504554692  1.0000
  C   C8        1.0  0.2319588139285571  0.9328354605632468  0.4445855491380327  1.0000
  C   C9        1.0  0.00414872321572798  0.3805122143611542  0.7426528346075117  1.0000
  C   C10       1.0  0.6177318912136229  0.9932209082320893  0.7530566878084245  1.0000
  C   C11       1.0  0.007494307066920669  0.6246042068400117  0.2611989922663227  1.0000
  C   C12       1.0  0.37447243228949395  0.9924178992704  0.23980216327890252  1.0000
  C   C13       1.0  0.4104611203480886  0.49072123566822506  0.5372341124015492  1.0000
  C   C14       1.0  0.5145312178997443  0.589926519602912  0.9658282777302816  1.0000
  C   C15       1.0  0.5793577801785759  0.516495350230734  0.46052965259173123  1.0000
  C   C16       1.0  0.48143741378691374  0.42238193682345576  0.04010823702237331  1.0000
  N   N1        1.0  0.8826916145558884  0.31927682033470006  0.8198677821989122  1.0000
  N   N2        1.0  0.6770501651029195  0.1172456462414857  0.6771348924298125  1.0000
  N   N3        1.0  0.1298161162618499  0.6871135173578721  0.18566836272630383  1.0000
  N   N4        1.0  0.3126753297181892  0.8693897152339572  0.3154181017942932  1.0000
  N   N5        1.0  0.1433533618515241  0.34556770623637323  0.8181585936904412  1.0000
  N   N6        1.0  0.6576596837414215  0.8540602355859334  0.6784467129631582  1.0000
  N   N7        1.0  0.868588824787622  0.6627878268862942  0.18468271079115087  1.0000
  N   N8        1.0  0.33604106056885286  0.131140961469761  0.3157478382879475  1.0000
  O   O1        1.0  0.4147963388821408  0.4310852819547222  0.6714059115059643  1.0000
  O   O2        1.0  0.5878890947132832  0.5825165925417153  0.836844232421001  1.0000
  O   O3        1.0  0.5729437384188641  0.590709365158382  0.32958124832561714  1.0000
  O   O4        1.0  0.40754058625881845  0.4271905866630945  0.170367395253777  1.0000
  O   O5        1.0  0.2820578160623342  0.529368190264492  0.4646559207936675  1.0000
  O   O6        1.0  0.46841877318627206  0.7196554317727363  0.03589651021143682  1.0000
  O   O7        1.0  0.7103739799559746  0.4649762305515992  0.5286274924488481  1.0000
  O   O8        1.0  0.5272941791547795  0.29212429915081367  0.9703394972350383  1.0000
