data_image0
_chemical_formula_structural       Cs4Li4H24C16O28
_chemical_formula_sum              "Cs4 Li4 H24 C16 O28"
_cell_length_a       9.825840335976494
_cell_length_b       9.848947459458264
_cell_length_c       10.581769046257023
_cell_angle_alpha    117.73460043491225
_cell_angle_beta     112.27759461736107
_cell_angle_gamma    89.99923184986118

_space_group_name_H-M_alt    "P 1"
_space_group_IT_number       1

loop_
  _space_group_symop_operation_xyz
  'x, y, z'

loop_
  _atom_site_type_symbol
  _atom_site_label
  _atom_site_symmetry_multiplicity
  _atom_site_fract_x
  _atom_site_fract_y
  _atom_site_fract_z
  _atom_site_occupancy
  Cs  Cs1       1.0  0.7499982467165012  0.9715051602595821  2.224100747173247e-06  1.0000
  Cs  Cs2       1.0  0.2500027437224404  0.0284951312194437  0.9999984717826746  1.0000
  Cs  Cs3       1.0  0.7499934128429402  0.4937919115794925  0.9999967481456338  1.0000
  Cs  Cs4       1.0  0.2500062358505559  0.5062072043174837  2.9670393147607065e-06  1.0000
  Li  Li1       1.0  0.9367890570856331  0.42753546282224153  0.3380889659833172  1.0000
  Li  Li2       1.0  0.5632046433861149  0.08943462252756261  0.661903588876477  1.0000
  Li  Li3       1.0  0.06321083092714022  0.5724648297967789  0.6619103997548094  1.0000
  Li  Li4       1.0  0.4367952446266514  0.910565670091458  0.3380957768616497  1.0000
  H   H1        1.0  0.9020754963070345  0.744079988334107  0.7411034980163649  1.0000
  H   H2        1.0  0.5979186820008167  0.0029699849218119  0.25888892503630967  1.0000
  H   H3        1.0  0.0979252523827014  0.25591912844934933  0.2588966023192754  1.0000
  H   H4        1.0  0.4020825501873162  0.9970314812527904  0.7411123663948871  1.0000
  H   H5        1.0  0.0959095467477482  0.11848951008249027  0.6660980825620938  1.0000
  H   H6        1.0  0.4040882426280986  0.45239772074673823  0.33390595646002197  1.0000
  H   H7        1.0  0.9040901019457549  0.8815096058144789  0.33390163262284744  1.0000
  H   H8        1.0  0.5959116453846675  0.5476025718722822  0.6660934092781048  1.0000
  H   H9        1.0  0.03630046508276052  0.35619859145107574  0.11363954666898486  1.0000
  H   H10       1.0  0.4636929626813355  0.24255972026286093  0.886363956896055  1.0000
  H   H11       1.0  0.9636980811845746  0.6438005255858883  0.8863588383706684  1.0000
  H   H12       1.0  0.5363058277651332  0.7574405694431972  0.113635968685969  1.0000
  H   H13       1.0  0.1566726537805323  0.4977452701441081  0.2835967249991001  1.0000
  H   H14       1.0  0.3433287151840432  0.21414912100856037  0.7164043527296613  1.0000
  H   H15       1.0  0.8433269924830425  0.5022538477793432  0.7164020451912521  1.0000
  H   H16       1.0  0.6566711752586513  0.7858511695839779  0.2835959580030618  1.0000
  H   H17       1.0  0.7275348325501058  0.8490308439388131  0.5841971776751649  1.0000
  H   H18       1.0  0.7724629715368038  0.26482816486117855  0.4157965680473411  1.0000
  H   H19       1.0  0.2724650578925889  0.15096944665372553  0.4158031330575582  1.0000
  H   H20       1.0  0.22753691890589078  0.7351721257313673  0.5842037426853893  1.0000
  H   H21       1.0  0.8454401470747754  0.045682317401258395  0.5667632541922388  1.0000
  H   H22       1.0  0.6545565149735282  0.47891270196682717  0.4332301042913401  1.0000
  H   H23       1.0  0.15456059918503234  0.9543168014086733  0.43323590114880534  1.0000
  H   H24       1.0  0.3454436147884365  0.5210887653477557  0.5667698569945685  1.0000
  C   C1        1.0  0.878996891946784  0.7376391418877475  0.4878611299906837  1.0000
  C   C2        1.0  0.6210085250317262  0.24977837845352724  0.5121400336499419  1.0000
  C   C3        1.0  0.12100275431679108  0.26235997603570377  0.5121376401996613  1.0000
  C   C4        1.0  0.3789913629810471  0.7502219141654933  0.48785933208818477  1.0000
  C   C5        1.0  0.851094133504354  0.8637164104731383  0.6256596632397374  1.0000
  C   C6        1.0  0.6489049407749975  0.23805274140296  0.3743364579611353  1.0000
  C   C7        1.0  0.1489052734399507  0.1362815307282617  0.37433945639742205  1.0000
  C   C8        1.0  0.3510960472340087  0.7619475521025475  0.6256632929276904  1.0000
  C   C9        1.0  0.915438109468617  0.0281203061776409  0.6655637881411776  1.0000
  C   C10       1.0  0.5845551321897345  0.3625517112328041  0.33443148670949807  1.0000
  C   C11       1.0  0.08456288097031725  0.971879985301385  0.33443690774223717  1.0000
  C   C12       1.0  0.4154436558267988  0.6374485804997293  0.6655674938779299  1.0000
  C   C13       1.0  0.898056262909364  0.1520152511488533  0.8139207575866648  1.0000
  C   C14       1.0  0.6019333636337976  0.33809122470722736  0.18607386027100148  1.0000
  C   C15       1.0  0.10194228578789934  0.8479838638616356  0.18607857244758458  1.0000
  C   C16       1.0  0.3980665243789758  0.661909067911793  0.8139255054671253  1.0000
  O   O1        1.0  0.8226130940838347  0.7376335243262987  0.3576561595636677  1.0000
  O   O2        1.0  0.6773973450799176  0.37997682355189255  0.6423445950587023  1.0000
  O   O3        1.0  0.1773865546096616  0.2623655915706706  0.6423435556212738  1.0000
  O   O4        1.0  0.3226036429290886  0.6200234699536084  0.35765515583011626  1.0000
  O   O5        1.0  0.9522711323044887  0.6379574284664927  0.5083464014676196  1.0000
  O   O6        1.0  0.547733742416966  0.1296149572648204  0.49165775660625827  1.0000
  O   O7        1.0  0.047728755708277504  0.362042864152528  0.4916529642705072  1.0000
  O   O8        1.0  0.4522661455958  0.8703853353542  0.5083416091318682  1.0000
  O   O9        1.0  0.916867619952427  0.8548878792220762  0.7657374171394834  1.0000
  O   O10       1.0  0.5831318677965739  0.08914536318449957  0.23425716815734177  1.0000
  O   O11       1.0  0.0831333680565791  0.14511241428342458  0.23426233374933497  1.0000
  O   O12       1.0  0.41686911778250396  0.9108549323474833  0.7657416377368873  1.0000
  O   O13       1.0  0.0666752207534032  0.0352096517817273  0.6839644202043899  1.0000
  O   O14       1.0  0.43332051361704776  0.3512473619021748  0.3160340257300902  1.0000
  O   O15       1.0  0.9333246672593701  0.9647906408372933  0.3160349455337368  1.0000
  O   O16       1.0  0.5666804743919585  0.648752931603333  0.6839657251587353  1.0000
  O   O17       1.0  0.015305621969389402  0.2514682388955833  0.9316954991962234  1.0000
  O   O18       1.0  0.484683367714851  0.31977402484371703  0.06830113501132463  1.0000
  O   O19       1.0  0.9846940267241066  0.7485308770013931  0.068304215988725  1.0000
  O   O20       1.0  0.5153165227278508  0.6802262657488284  0.9316991757213985  1.0000
  O   O21       1.0  0.7666789971254174  0.1457963545255723  0.8078225673098132  1.0000
  O   O22       1.0  0.7333112368340906  0.3379665968327998  0.1921704467881185  1.0000
  O   O23       1.0  0.2333206515680857  0.854202761371404  0.19217714787513543  1.0000
  O   O24       1.0  0.26668731186317274  0.6620325181776892  0.8078288832461311  1.0000
  O   O25       1.0  0.06093667376130441  0.41857951148450206  0.22993413005583108  1.0000
  O   O26       1.0  0.43906538372293363  0.18864899796858478  0.7700703401928237  1.0000
  O   O27       1.0  0.9390632166813971  0.5814207791080436  0.7700661806768918  1.0000
  O   O28       1.0  0.560934746039031  0.8113524693460049  0.22992962109308485  1.0000
