data_image0
_chemical_formula_structural       Nd2H20C22N2O14
_chemical_formula_sum              "Nd2 H20 C22 N2 O14"
_cell_length_a       7.751976143520548
_cell_length_b       8.122998032070488
_cell_length_c       10.162123191578797
_cell_angle_alpha    82.16962480778362
_cell_angle_beta     83.6935128610816
_cell_angle_gamma    70.44200924374451

_space_group_name_H-M_alt    "P 1"
_space_group_IT_number       1

loop_
  _space_group_symop_operation_xyz
  'x, y, z'

loop_
  _atom_site_type_symbol
  _atom_site_label
  _atom_site_symmetry_multiplicity
  _atom_site_fract_x
  _atom_site_fract_y
  _atom_site_fract_z
  _atom_site_occupancy
  Nd  Nd1       1.0  0.23214437755598993  0.0901251360924746  0.5343969935553474  1.0000
  Nd  Nd2       1.0  0.7678549897620498  0.9098744532265925  0.4656030480225797  1.0000
  H   H1        1.0  0.8658765389894468  0.0812729629665228  0.8418686835462738  1.0000
  H   H2        1.0  0.1341232413643211  0.9187292512677131  0.15813104751953944  1.0000
  H   H3        1.0  0.9130548723083507  0.18185106406379958  0.04587519563988003  1.0000
  H   H4        1.0  0.08694448444789762  0.8181485241632773  0.9541258309530606  1.0000
  H   H5        1.0  0.3260156164905937  0.3408991884216731  0.14742368878795278  1.0000
  H   H6        1.0  0.6739832974026143  0.6591017136830075  0.8525772326652685  1.0000
  H   H7        1.0  0.28473620321213383  0.23896159167055228  0.9403917039258262  1.0000
  H   H8        1.0  0.715263164105899  0.7610379976485149  0.05960833765210086  1.0000
  H   H9        1.0  0.37380120033206765  0.5352566575260199  0.24207320181480443  1.0000
  H   H10       1.0  0.6261981458623823  0.46474292960906627  0.7579288097931567  1.0000
  H   H11       1.0  0.5298866807779278  0.5429091776166004  0.35241057611602866  1.0000
  H   H12       1.0  0.4701126865401122  0.4570904117024739  0.6475894654618914  1.0000
  H   H13       1.0  0.7904590556211913  0.5147309452329124  0.2708557153976017  1.0000
  H   H14       1.0  0.20954117629933935  0.48526601414696546  0.729146506489798  1.0000
  H   H15       1.0  0.8876750414194562  0.4106144072412192  0.12751138459383782  1.0000
  H   H16       1.0  0.11232517123556117  0.5893864920234292  0.8724894366267153  1.0000
  H   H17       1.0  0.8625002956573128  0.3930608851115024  0.5830555820224746  1.0000
  H   H18       1.0  0.13749863935947096  0.6069400191771591  0.41694336940071264  1.0000
  H   H19       1.0  0.8397994768368092  0.2079014626384819  0.640017623099965  1.0000
  H   H20       1.0  0.16019861284300416  0.7920981317045985  0.35998054868059637  1.0000
  C   C1        1.0  0.5702052206922519  0.16293587329860063  0.8717185201859723  1.0000
  C   C2        1.0  0.4297937143245391  0.8370650309900611  0.12828043123722216  1.0000
  C   C3        1.0  0.7470185875893024  0.14251356519874755  0.9071386197169887  1.0000
  C   C4        1.0  0.252979904564448  0.8574886529675183  0.09286022656648643  1.0000
  C   C5        1.0  0.773426544465039  0.20138616368733153  0.022529484353576403  1.0000
  C   C6        1.0  0.22657108122815828  0.7986147423493719  0.9774705523172998  1.0000
  C   C7        1.0  0.6215686122192493  0.28665922028794455  0.10776578710322585  1.0000
  C   C8        1.0  0.3784298693727096  0.7133429967863306  0.892234044195263  1.0000
  C   C9        1.0  0.44522842863736395  0.2902233731482795  0.07933227420434721  1.0000
  C   C10       1.0  0.554770485255844  0.7097775289564012  0.9206686472488741  1.0000
  C   C11       1.0  0.4216181457933316  0.2309907256395718  0.9632739659953844  1.0000
  C   C12       1.0  0.5783816345604363  0.7690114885946713  0.03672576507043602  1.0000
  C   C13       1.0  0.5400852940621803  0.1262409743527968  0.7394501335908076  1.0000
  C   C14       1.0  0.45991452668069127  0.8737573021806639  0.26054902811181796  1.0000
  C   C15       1.0  0.49105880269620866  0.4530606152441834  0.29934948470356915  1.0000
  C   C16       1.0  0.5089418633836331  0.5469389712348588  0.7006504566416893  1.0000
  C   C17       1.0  0.41957132647462453  0.3353651497744181  0.4041033301724114  1.0000
  C   C18       1.0  0.5804293184816415  0.6646344345206358  0.5958985812028816  1.0000
  C   C19       1.0  0.8174237004024788  0.3920388602275152  0.22575319411766517  1.0000
  C   C20       1.0  0.18257739797861205  0.6079594112819251  0.774247837382326  1.0000
  C   C21       1.0  0.9521903001270076  0.2501165744043092  0.31276650462832123  1.0000
  C   C22       1.0  0.047810808815874926  0.7498816981971287  0.6872335418566566  1.0000
  N   N1        1.0  0.6450496783159919  0.3664404112715614  0.2123826613726437  1.0000
  N   N2        1.0  0.3549505449008166  0.6335604890850777  0.7876171748328961  1.0000
  O   O1        1.0  0.6775807908663792  0.09463121789400467  0.6511840508623126  1.0000
  O   O2        1.0  0.32241902987649235  0.9053670586394559  0.34881511084031314  1.0000
  O   O3        1.0  0.3786326613169281  0.1362115818431846  0.7145338646334738  1.0000
  O   O4        1.0  0.6213653966775041  0.8637880092239243  0.2854672621921353  1.0000
  O   O5        1.0  0.281331570575496  0.4062973610957812  0.4808521032989861  1.0000
  O   O6        1.0  0.7186690743807702  0.5937022231992728  0.5191498080763  1.0000
  O   O7        1.0  0.494011613250393  0.16837715920033247  0.4106247674305692  1.0000
  O   O8        1.0  0.5059877435058484  0.8316224290267441  0.5893762591623785  1.0000
  O   O9        1.0  0.9128970439915705  0.11492840525283299  0.36821968962618007  1.0000
  O   O10       1.0  0.08710536371312126  0.8850698645085656  0.6317802566261224  1.0000
  O   O11       1.0  0.09778235946070175  0.27847807114443407  0.3307518502383573  1.0000
  O   O12       1.0  0.9022183171809315  0.7215215164265912  0.6692471060918878  1.0000
  O   O13       1.0  0.9312111238578281  0.2717748323867397  0.6220985730362757  1.0000
  O   O14       1.0  0.06878826458379445  0.7282247591163084  0.3778994985116172  1.0000
