data_image0
_chemical_formula_structural       Zn2H24C40N16O20
_chemical_formula_sum              "Zn2 H24 C40 N16 O20"
_cell_length_a       16.1870786596007
_cell_length_b       17.19035714554987
_cell_length_c       16.996308913640316
_cell_angle_alpha    91.52615209444438
_cell_angle_beta     93.70096236539446
_cell_angle_gamma    92.20130518111034

_space_group_name_H-M_alt    "P 1"
_space_group_IT_number       1

loop_
  _space_group_symop_operation_xyz
  'x, y, z'

loop_
  _atom_site_type_symbol
  _atom_site_label
  _atom_site_symmetry_multiplicity
  _atom_site_fract_x
  _atom_site_fract_y
  _atom_site_fract_z
  _atom_site_occupancy
  Zn  Zn1       1.0  0.40564685309095677  0.5046919600695003  0.4930563572105839  1.0000
  Zn  Zn2       1.0  0.5943565635563743  0.4952874292003884  0.5069412721400965  1.0000
  H   H1        1.0  0.3720237941857575  0.5257680972806182  0.7470498751861001  1.0000
  H   H2        1.0  0.6279037453934111  0.47418422064014726  0.2529794133635335  1.0000
  H   H3        1.0  0.5293825304790473  0.2461250268694072  0.39126400882378215  1.0000
  H   H4        1.0  0.4707258607622933  0.7538643593804151  0.6088161454285057  1.0000
  H   H5        1.0  0.3871762822131685  0.5286082064487801  0.8954914404255021  1.0000
  H   H6        1.0  0.6127911773287378  0.4713242025559694  0.1045337124366768  1.0000
  H   H7        1.0  0.5361541303686223  0.1012354153245099  0.40000546937939424  1.0000
  H   H8        1.0  0.46394751761497594  0.8987457229871793  0.6000476445734364  1.0000
  H   H9        1.0  0.37700949972393966  0.5775081883365657  0.1154491001110429  1.0000
  H   H10       1.0  0.6229915164636919  0.42250373209979836  0.8845267886149841  1.0000
  H   H11       1.0  0.6084627590284626  0.8904999074540427  0.396318867710562  1.0000
  H   H12       1.0  0.3914914643378394  0.10944919985737299  0.6036518075010875  1.0000
  H   H13       1.0  0.10195383850552989  0.4133281296783621  0.4311344112925823  1.0000
  H   H14       1.0  0.8980439941689012  0.5867341715424743  0.5687689162459932  1.0000
  H   H15       1.0  0.8673077140743927  0.37061668364485467  0.43353184744076145  1.0000
  H   H16       1.0  0.13272403862066537  0.6294993047019516  0.5662733930372923  1.0000
  H   H17       1.0  0.6417630131952734  0.3578604904922145  0.4619604142063878  1.0000
  H   H18       1.0  0.6757735397495849  0.2562176587012246  0.3844146050595326  1.0000
  H   H19       1.0  0.7767576954540019  0.2603171535117284  0.43209662682498606  1.0000
  H   H20       1.0  0.7550559617115483  0.31585371119731315  0.3461137737417843  1.0000
  H   H21       1.0  0.35828416832057286  0.6421528867549356  0.5379698137515874  1.0000
  H   H22       1.0  0.324254654962317  0.7438021142140058  0.6155023645565478  1.0000
  H   H23       1.0  0.2449718895162434  0.684147920564328  0.6537815766284965  1.0000
  H   H24       1.0  0.2232707633155968  0.7397090114443684  0.5678169745894763  1.0000
  C   C1        1.0  0.46904408902064165  0.34739245815780617  0.4898408449157614  1.0000
  C   C2        1.0  0.5310019793133945  0.6525800024352006  0.5101954626760232  1.0000
  C   C3        1.0  0.4809039066538006  0.4835036591229169  0.6453121076224946  1.0000
  C   C4        1.0  0.5190502664119447  0.516495068561433  0.3546873635419843  1.0000
  C   C5        1.0  0.5117206567779887  0.5259459902087755  0.2672021130258031  1.0000
  C   C6        1.0  0.48822687469029086  0.47404398094059275  0.7327885515183183  1.0000
  C   C7        1.0  0.5372981489711037  0.7397213781972737  0.5046245722785869  1.0000
  C   C8        1.0  0.46271855297271697  0.26024587907024704  0.4954046959588183  1.0000
  C   C9        1.0  0.5734085500573514  0.4964917032249688  0.2214758686292058  1.0000
  C   C10       1.0  0.4265374041870088  0.5034610542796258  0.7785285596043394  1.0000
  C   C11       1.0  0.4986199782534015  0.7844216046332875  0.5611060232716554  1.0000
  C   C12       1.0  0.5014518193796036  0.2155555440184571  0.4389518201749993  1.0000
  C   C13       1.0  0.565102542571509  0.49455998848250726  0.1398102215812926  1.0000
  C   C14       1.0  0.434855483334367  0.5053851915786185  0.8601994063950258  1.0000
  C   C15       1.0  0.4952392554172604  0.8646014407366777  0.5569499298694183  1.0000
  C   C16       1.0  0.5048302159750832  0.13536806681524635  0.4430893688529309  1.0000
  C   C17       1.0  0.4929164868637981  0.5222284334243523  0.10141944796572488  1.0000
  C   C18       1.0  0.5070600959230447  0.477759752333398  0.898578077264446  1.0000
  C   C19       1.0  0.5319247147612245  0.9028681259920505  0.49501897142523893  1.0000
  C   C20       1.0  0.4680947457111769  0.0970949601000726  0.504988583037985  1.0000
  C   C21       1.0  0.43210981267446863  0.5549078936795337  0.14560254017754906  1.0000
  C   C22       1.0  0.5678683539318286  0.4450895649805133  0.8543846957335077  1.0000
  C   C23       1.0  0.5771310178921353  0.8605742421793181  0.442312502778698  1.0000
  C   C24       1.0  0.4228653839498121  0.1393876665618379  0.557679039933653  1.0000
  C   C25       1.0  0.4423798820165743  0.5568831590259863  0.2273324938055481  1.0000
  C   C26       1.0  0.5575892910498651  0.44312015926175263  0.7726584986460168  1.0000
  C   C27       1.0  0.578567323030235  0.7799963390889529  0.4471720933321848  1.0000
  C   C28       1.0  0.42143132113200465  0.21995975730946069  0.5528235579327472  1.0000
  C   C29       1.0  0.7759584308206796  0.5330811157514078  0.5509799673580956  1.0000
  C   C30       1.0  0.2240492542958207  0.4669514891483075  0.44893028039492583  1.0000
  C   C31       1.0  0.8597190936923979  0.5385888297844943  0.5423913612569393  1.0000
  C   C32       1.0  0.14028096703026452  0.4614716215800811  0.4574879232100031  1.0000
  C   C33       1.0  0.8923593023084775  0.47780553901223743  0.4982334617718108  1.0000
  C   C34       1.0  0.10765339283144469  0.5222943232256511  0.5016056556343855  1.0000
  C   C35       1.0  0.840782441847061  0.4173334064574589  0.4667588739261816  1.0000
  C   C36       1.0  0.15923663842679048  0.5827588231021466  0.5330686528486268  1.0000
  C   C37       1.0  0.7545082886288907  0.416863170987348  0.4787638007099916  1.0000
  C   C38       1.0  0.24552166906858727  0.5831873246614305  0.5211186724149002  1.0000
  C   C39       1.0  0.7298481536961673  0.2948456807047961  0.4007126066214752  1.0000
  C   C40       1.0  0.2701793492408413  0.7051746187398252  0.5991902157603164  1.0000
  N   N1        1.0  0.47550960607360787  0.5200922413366058  0.018945168260728503  1.0000
  N   N2        1.0  0.5244809304971553  0.4798900794035176  0.9810500513527883  1.0000
  N   N3        1.0  0.526877729484738  0.9831247674172232  0.48087477559823105  1.0000
  N   N4        1.0  0.4731495788069253  0.0168330820664337  0.5191383874300755  1.0000
  N   N5        1.0  0.7223556571160756  0.47673016271586005  0.520421020245756  1.0000
  N   N6        1.0  0.2776731524684166  0.5232896065499728  0.4794953949064507  1.0000
  N   N7        1.0  0.9771994163533292  0.4729651710726657  0.4833307499178119  1.0000
  N   N8        1.0  0.022804754095538695  0.5271527334373615  0.5165006634287225  1.0000
  N   N9        1.0  0.37662226615539385  0.5958405947486796  0.2686895245808145  1.0000
  N   N10       1.0  0.6233271559513369  0.4041656332590335  0.7312898519855509  1.0000
  N   N11       1.0  0.6226319500499853  0.7390567010301153  0.3858380896861462  1.0000
  N   N12       1.0  0.3773268823778579  0.2608970946323054  0.61414236265081  1.0000
  N   N13       1.0  0.2571017402891512  0.40575586123058827  0.3965389255810337  1.0000
  N   N14       1.0  0.7428920319116583  0.5942344757396255  0.6034242969851037  1.0000
  N   N15       1.0  0.7034442988971321  0.3582673977330728  0.4497014422714329  1.0000
  N   N16       1.0  0.2965938795641491  0.6417720456295442  0.5501888793818354  1.0000
  O   O1        1.0  0.4038363803036162  0.38497610939721477  0.49379795333749144  1.0000
  O   O2        1.0  0.5962091552618884  0.6150071798810046  0.5061797365974314  1.0000
  O   O3        1.0  0.5473322658221916  0.4758973923976272  0.6104557496317113  1.0000
  O   O4        1.0  0.4526368351816857  0.5241566681997868  0.3895534726079646  1.0000
  O   O5        1.0  0.5409917753754526  0.3759046876661428  0.4790863366094342  1.0000
  O   O6        1.0  0.4590751825440406  0.624056861899909  0.5209997099470911  1.0000
  O   O7        1.0  0.4109917921790042  0.5009016786234071  0.613805368650425  1.0000
  O   O8        1.0  0.588943626808863  0.4990382555883316  0.3861905322053829  1.0000
  O   O9        1.0  0.3055805351901881  0.5666286129967802  0.2582168593993615  1.0000
  O   O10       1.0  0.396632132103612  0.6569163581351702  0.3062179235012437  1.0000
  O   O11       1.0  0.6943787667449399  0.4333473672435345  0.741777075117767  1.0000
  O   O12       1.0  0.603301836660286  0.3431078570670891  0.6937363015685918  1.0000
  O   O13       1.0  0.6900796972532603  0.7689919317660098  0.36946036362193985  1.0000
  O   O14       1.0  0.5885977081768345  0.6797860982661845  0.3540185969648917  1.0000
  O   O15       1.0  0.3098914155943717  0.23093270204345367  0.63051656467416  1.0000
  O   O16       1.0  0.4113214038226758  0.3201945283746852  0.6459496871501996  1.0000
  O   O17       1.0  0.3148215615554051  0.4256935411440849  0.3567305472286506  1.0000
  O   O18       1.0  0.22150838649325516  0.34071295300338267  0.3952087873084338  1.0000
  O   O19       1.0  0.6852046795969712  0.5742455408318038  0.6432497628589573  1.0000
  O   O20       1.0  0.7784313698000316  0.6593008069034028  0.6047555190343132  1.0000
