data_image0
_chemical_formula_structural       Zn2H16C20N28
_chemical_formula_sum              "Zn2 H16 C20 N28"
_cell_length_a       8.22065809724795
_cell_length_b       8.195021205438511
_cell_length_c       11.847465089514609
_cell_angle_alpha    109.9848490019907
_cell_angle_beta     90.97543203057522
_cell_angle_gamma    98.82975999594734

_space_group_name_H-M_alt    "P 1"
_space_group_IT_number       1

loop_
  _space_group_symop_operation_xyz
  'x, y, z'

loop_
  _atom_site_type_symbol
  _atom_site_label
  _atom_site_symmetry_multiplicity
  _atom_site_fract_x
  _atom_site_fract_y
  _atom_site_fract_z
  _atom_site_occupancy
  Zn  Zn1       1.0  0.2998434453988565  0.9840177427125809  0.5198767355135346  1.0000
  Zn  Zn2       1.0  0.70015547894684  0.015981810272265303  0.4801231822409378  1.0000
  H   H1        1.0  0.3381816603053807  0.13947419438590467  0.7955781804934432  1.0000
  H   H2        1.0  0.6618136121645009  0.8605253600422316  0.20442253386450204  1.0000
  H   H3        1.0  0.35620982675028046  0.03788910580804131  0.9699493580525739  1.0000
  H   H4        1.0  0.643786662230873  0.9621104479249993  0.030051372064697452  1.0000
  H   H5        1.0  0.2959959374965635  0.5039040727948532  0.7149702679073826  1.0000
  H   H6        1.0  0.7040064287749246  0.496094161230161  0.2850285388811287  1.0000
  H   H7        1.0  0.28404569458406564  0.6313028328203741  0.5510625657160801  1.0000
  H   H8        1.0  0.7159558750762188  0.368698036932841  0.4489368540380667  1.0000
  H   H9        1.0  0.2833416812930452  0.3370008973077602  0.49568968832912214  1.0000
  H   H10       1.0  0.7166572430526513  0.662998655677093  0.504310229425343  1.0000
  H   H11       1.0  0.17267156889468546  0.46016909280652385  0.3494234364113281  1.0000
  H   H12       1.0  0.827328781912314  0.5398317769998044  0.6505768114649442  1.0000
  H   H13       1.0  0.10085395438655813  0.9321292828715785  0.08531914594883014  1.0000
  H   H14       1.0  0.8991524836608136  0.0678715847432727  0.914679492961163  1.0000
  H   H15       1.0  0.20867969073757556  0.8325915529288819  0.24449233236301637  1.0000
  H   H16       1.0  0.7913230954339738  0.16740931612925178  0.7555071031504497  1.0000
  C   C1        1.0  0.3322151471342138  0.0003262689348560002  0.7812051415248006  1.0000
  C   C2        1.0  0.6677825583582121  0.9996732841030963  0.21879560435179715  1.0000
  C   C3        1.0  0.3414898381208573  0.9434454999237118  0.8784013705785865  1.0000
  C   C4        1.0  0.6585076597635364  0.056552736239673614  0.1215982170540784  1.0000
  C   C5        1.0  0.32981698206180704  0.7625708695751073  0.8563601828940933  1.0000
  C   C6        1.0  0.6701831587951689  0.23742868271465062  0.14363975061969822  1.0000
  C   C7        1.0  0.3075869441346911  0.6458004069402038  0.7364607577950083  1.0000
  C   C8        1.0  0.6924144155755628  0.35419914529645535  0.2635383475966577  1.0000
  C   C9        1.0  0.30070979021844824  0.715802697440708  0.6454299775305685  1.0000
  C   C10       1.0  0.6992903529805332  0.2841968554910395  0.35456911210177816  1.0000
  C   C11       1.0  0.2411529324551864  0.25284839752497135  0.4035620016302843  1.0000
  C   C12       1.0  0.7588459895485045  0.7471511548178925  0.5964387600056327  1.0000
  C   C13       1.0  0.18163559447993552  0.3207947436268911  0.3219953404528724  1.0000
  C   C14       1.0  0.8183647586690768  0.6792061268214201  0.6780040635419483  1.0000
  C   C15       1.0  0.1315304207454062  0.20428451098544542  0.20454170412305928  1.0000
  C   C16       1.0  0.8684711465728725  0.7957163581257946  0.7954585595125395  1.0000
  C   C17       1.0  0.14154094063052008  0.02582028906261511  0.175150988237263  1.0000
  C   C18       1.0  0.8584632720023394  0.9741818968169866  0.8248487773980103  1.0000
  C   C19       1.0  0.2012080054440304  0.9707561566719461  0.2638234566614912  1.0000
  C   C20       1.0  0.7987937718242788  0.02924602995584991  0.7361771213365884  1.0000
  N   N1        1.0  0.5256992099644576  0.1762092784524967  0.5787935211750367  1.0000
  N   N2        1.0  0.4742992921391648  0.8237876388572474  0.42120661173591867  1.0000
  N   N3        1.0  0.5552577620107185  0.29453599606826236  0.6744807444565666  1.0000
  N   N4        1.0  0.4447395212396259  0.7054609212945877  0.3255202165765141  1.0000
  N   N5        1.0  0.5841062220697992  0.410667693582198  0.7665012848163427  1.0000
  N   N6        1.0  0.41589106352255817  0.5893292244226347  0.23349883233529312  1.0000
  N   N7        1.0  0.15602667238449192  0.18012835193752613  0.6353612709298204  1.0000
  N   N8        1.0  0.8439734708144895  0.8198712009942286  0.3646378187025264  1.0000
  N   N9        1.0  0.031410127592614905  0.2064178185623718  0.5985466362415863  1.0000
  N   N10       1.0  0.9685887990950873  0.7935817350644713  0.4014524376314341  1.0000
  N   N11       1.0  0.9074363764999447  0.2365735172004619  0.5634085126368831  1.0000
  N   N12       1.0  0.09256255018775762  0.7634260364263739  0.4365905612361374  1.0000
  N   N13       1.0  0.3129976299773602  0.8894257749459556  0.6660890684220746  1.0000
  N   N14       1.0  0.6870000778570642  0.11057377873398623  0.3339108335730643  1.0000
  N   N15       1.0  0.33942736980501553  0.711545985217356  0.9574539561133619  1.0000
  N   N16       1.0  0.660572771051953  0.28845356707240205  0.0425459774004295  1.0000
  N   N17       1.0  0.3267072646539119  0.5536419854035516  0.9447163739475428  1.0000
  N   N18       1.0  0.673294300322361  0.4463588830656988  0.05528473356950771  1.0000
  N   N19       1.0  0.3159424759199183  0.41557051762227093  0.949758683456821  1.0000
  N   N20       1.0  0.6840590890563545  0.5844303508469721  0.050242424060222404  1.0000
  N   N21       1.0  0.2498154703890876  0.08111992849877228  0.3767638543523972  1.0000
  N   N22       1.0  0.7501848780759132  0.9188809406655665  0.623237237405327  1.0000
  N   N23       1.0  0.07068960412308911  0.2546184033033327  0.1123527206322166  1.0000
  N   N24       1.0  0.9293146085097702  0.7453837825762691  0.8876470450030567  1.0000
  N   N25       1.0  0.06034441941762482  0.4103622910780943  0.1318597103518115  1.0000
  N   N26       1.0  0.939655929047376  0.5896385780862377  0.8681413814059127  1.0000
  N   N27       1.0  0.0413893647030719  0.5471729234082402  0.1343927117463721  1.0000
  N   N28       1.0  0.9586099748586817  0.4528292633257536  0.8656095224959514  1.0000
