data_image0
_chemical_formula_structural       Al4H34C40O26
_chemical_formula_sum              "Al4 H34 C40 O26"
_cell_length_a       6.653643863779419
_cell_length_b       13.998384443374654
_cell_length_c       16.026678808293134
_cell_angle_alpha    90.23042307374736
_cell_angle_beta     90.54976717856442
_cell_angle_gamma    89.26376200153214

_space_group_name_H-M_alt    "P 1"
_space_group_IT_number       1

loop_
  _space_group_symop_operation_xyz
  'x, y, z'

loop_
  _atom_site_type_symbol
  _atom_site_label
  _atom_site_symmetry_multiplicity
  _atom_site_fract_x
  _atom_site_fract_y
  _atom_site_fract_z
  _atom_site_occupancy
  Al  Al1       1.0  0.11509661517757762  0.5009570896411688  0.5011903946650804  1.0000
  Al  Al2       1.0  0.6146315567876072  0.5038091059188332  0.5011765541366131  1.0000
  Al  Al3       1.0  0.6201457894698525  0.9959483545666359  0.0022992066543210013  1.0000
  Al  Al4       1.0  0.11966196335516338  0.0017101971729829  0.0019984901412683997  1.0000
  H   H1        1.0  0.0972436967044104  0.34068605773374844  0.9269652248503845  1.0000
  H   H2        1.0  0.2996513355523618  0.38549263675609063  0.7597122886538656  1.0000
  H   H3        1.0  0.11026311218310521  0.45685766126209165  0.8084923706344683  1.0000
  H   H4        1.0  0.16772623783301552  0.1702778854174198  0.2097501646037614  1.0000
  H   H5        1.0  0.17301283864912884  0.2875087176770351  0.32768828774572967  1.0000
  H   H6        1.0  0.5423961688639168  0.3441324516048424  0.28821583309050425  1.0000
  H   H7        1.0  0.11105109140519429  0.7637056221234176  0.6367918333836258  1.0000
  H   H8        1.0  0.6291337213906941  0.6231459609024341  0.7452211131613922  1.0000
  H   H9        1.0  0.1068301900201405  0.8825741678520417  0.2401488631550421  1.0000
  H   H10       1.0  0.6201396440542198  0.7320237007767644  0.1421586088117976  1.0000
  H   H11       1.0  0.3995693102167905  0.2309508977053056  0.5311353944009909  1.0000
  H   H12       1.0  0.38782529246966396  0.29577077653897993  0.6284178796674806  1.0000
  H   H13       1.0  0.3509228707806145  0.16890565880250827  0.6255540492952676  1.0000
  H   H14       1.0  0.305528918346333  0.27042576945811453  0.07074962732808392  1.0000
  H   H15       1.0  0.5652683918414212  0.26478625698505454  0.0416605544978808  1.0000
  H   H16       1.0  0.473776823220554  0.3615354867417153  0.1060864622756483  1.0000
  H   H17       1.0  0.8379279008624964  0.8316772231834763  0.718350679107303  1.0000
  H   H18       1.0  0.8124854104990077  0.956559144970875  0.742144169696104  1.0000
  H   H19       1.0  0.866048347859916  0.8734273839248418  0.824353241664255  1.0000
  H   H20       1.0  0.6263887595910232  0.7422252256907528  0.8627451480304629  1.0000
  H   H21       1.0  0.8316431792638568  0.8334551406791776  0.3151174697926891  1.0000
  H   H22       1.0  0.9927076950232208  0.9137328784613173  0.3720727432701025  1.0000
  H   H23       1.0  0.8322391813307418  0.8337880376439627  0.4269204604861869  1.0000
  H   H24       1.0  0.8851320751720098  0.5298087638563017  0.2407383675029848  1.0000
  H   H25       1.0  0.8721215637885037  0.619552010420172  0.320330370962111  1.0000
  H   H26       1.0  0.8746932187867886  0.6532165423253178  0.2119053662729442  1.0000
  H   H27       1.0  0.3320132971018879  0.1669923595643183  0.7545823104032151  1.0000
  H   H28       1.0  0.419881261350504  0.10074126554474111  0.8434148118283389  1.0000
  H   H29       1.0  0.32517717468400786  0.03942048264345741  0.7528123807233413  1.0000
  H   H30       1.0  0.28811466215042  0.2689440311251232  0.8788902709472026  1.0000
  H   H31       1.0  0.37324042224346954  0.3790161182595285  0.5225285041518433  1.0000
  H   H32       1.0  0.8673207728534749  0.6299083465769755  0.5067721024703643  1.0000
  H   H33       1.0  0.3751339974922204  0.10741259322733042  0.0496227757888974  1.0000
  H   H34       1.0  0.8813161511567601  0.8828022748227868  0.0386110330331348  1.0000
  C   C1        1.0  0.3706041326841074  0.61627815316249  0.6144220140450471  1.0000
  C   C2        1.0  0.35064863771807353  0.6153823826522639  0.3891722844785832  1.0000
  C   C3        1.0  0.8555148701662958  0.3894317004754057  0.3880217854366634  1.0000
  C   C4        1.0  0.8767995729817957  0.38503287921908225  0.6115643292591599  1.0000
  C   C5        1.0  0.9947217748779807  0.32292698190765634  0.7512622456080748  1.0000
  C   C6        1.0  0.872428061105623  0.3141949124720896  0.6805837611921888  1.0000
  C   C7        1.0  0.7419561196047368  0.23485905010986843  0.6788513113363024  1.0000
  C   C8        1.0  0.7292050220917689  0.17119194058831513  0.747445759236186  1.0000
  C   C9        1.0  0.8577681766083104  0.18129784831466372  0.8180693408766189  1.0000
  C   C10       1.0  0.9887059932539799  0.258287377354904  0.8169550587091834  1.0000
  C   C11       1.0  0.1487493271209459  0.30989240784723643  0.8675249952299211  1.0000
  C   C12       1.0  0.15577717503383331  0.38326581333001297  0.7927187747275397  1.0000
  C   C13       1.0  0.031030722603240708  0.20855226625254625  0.22746012449623979  1.0000
  C   C14       1.0  0.034644280852965906  0.27350322417735384  0.2931874617505841  1.0000
  C   C15       1.0  0.857423491334835  0.32166795406670456  0.315792093612842  1.0000
  C   C16       1.0  0.6795032024010935  0.3057857197016888  0.2709533982982606  1.0000
  C   C17       1.0  0.6755569996362922  0.24120212927321918  0.20453777808334914  1.0000
  C   C18       1.0  0.8530600002578269  0.1906056282162893  0.1823273655643618  1.0000
  C   C19       1.0  0.22186711207039883  0.7583314450745036  0.6871165729185549  1.0000
  C   C20       1.0  0.22556601915923843  0.8273102387967697  0.7503537984989634  1.0000
  C   C21       1.0  0.36940501385861074  0.8198287904609884  0.8151435437272523  1.0000
  C   C22       1.0  0.514036422897334  0.7459787641873775  0.8128745471205931  1.0000
  C   C23       1.0  0.5149486037438252  0.6794995813108501  0.7483579021671929  1.0000
  C   C24       1.0  0.36683683364301345  0.6853114569842306  0.6855867528040207  1.0000
  C   C25       1.0  0.21021341003065433  0.7607925632739737  0.3135225416984325  1.0000
  C   C26       1.0  0.21577560742180418  0.8245137942109793  0.2467226209139781  1.0000
  C   C27       1.0  0.3670204478277981  0.8146590893544572  0.186901193628529  1.0000
  C   C28       1.0  0.5086200967562249  0.7404298205603511  0.1910061811509678  1.0000
  C   C29       1.0  0.49509209286792816  0.673324750902886  0.2551037668272613  1.0000
  C   C30       1.0  0.35120542158921353  0.6843216537691105  0.31820921410811553  1.0000
  C   C31       1.0  0.36901265758982055  0.8827338811157048  0.11546045496814367  1.0000
  C   C32       1.0  0.3714469189134065  0.8879462007643683  0.886922652987664  1.0000
  C   C33       1.0  0.8645895065458122  0.1123696476803957  0.8889006645960507  1.0000
  C   C34       1.0  0.859954097172249  0.1174710988018504  0.1142979356403799  1.0000
  C   C35       1.0  0.43400390240268655  0.2282220893675913  0.5983006757319558  1.0000
  C   C36       1.0  0.45973383317596017  0.2848994335807619  0.09156238313799037  1.0000
  C   C37       1.0  0.891991935017039  0.8901628756717628  0.7584438727095489  1.0000
  C   C38       1.0  0.925447524886927  0.8422512119659019  0.3715679428281291  1.0000
  C   C39       1.0  0.8225388097235821  0.6001151318054952  0.2570438927885661  1.0000
  C   C40       1.0  0.4093340055150989  0.1012731479838251  0.7752443842371547  1.0000
  O   O1        1.0  0.5162845853833035  0.6026072199873769  0.4283130236356527  1.0000
  O   O2        1.0  0.205084312346699  0.6006997260342858  0.5762948905504928  1.0000
  O   O3        1.0  0.0471854134857139  0.4209497730815742  0.5948274690911077  1.0000
  O   O4        1.0  0.1854245733083886  0.5758368382180593  0.4058762726201621  1.0000
  O   O5        1.0  0.0218607192190916  0.40368252927920173  0.4257545335791589  1.0000
  O   O6        1.0  0.5412919724962961  0.5796318858496787  0.59675809856045  1.0000
  O   O7        1.0  0.3671487160354943  0.44360857236779344  0.5011238892123089  1.0000
  O   O8        1.0  0.6868641071028847  0.42693973426692383  0.4067955382460653  1.0000
  O   O9        1.0  0.7107934733338866  0.40606757457264553  0.5758305441661236  1.0000
  O   O10       1.0  0.8647567969721591  0.56108273970667  0.5013437692719691  1.0000
  O   O11       1.0  0.20442113575440146  0.9118220670805854  0.9190182983385995  1.0000
  O   O12       1.0  0.5382685430023884  0.9001174952905445  0.08233335922641771  1.0000
  O   O13       1.0  0.6945108038943387  0.08017344405169523  0.0920220405135268  1.0000
  O   O14       1.0  0.5434959964556825  0.914657122264039  0.9127656276871505  1.0000
  O   O15       1.0  0.6998928751659577  0.08768842479909722  0.9212898289988017  1.0000
  O   O16       1.0  0.19897014857466644  0.9174822649485322  0.09286457785599819  1.0000
  O   O17       1.0  0.37031292003114663  0.058208368365228615  0.0066798188169557  1.0000
  O   O18       1.0  0.03859439769580321  0.08556511485417671  0.9136170157436112  1.0000
  O   O19       1.0  0.031993711792033294  0.09690056269298712  0.0837037574909232  1.0000
  O   O20       1.0  0.8739819439421269  0.9395117742170881  0.0040839748231249005  1.0000
  O   O21       1.0  0.6472639192872264  0.2134893362992401  0.6047461239468888  1.0000
  O   O22       1.0  0.49272881211899744  0.22790511933290963  0.16483150406019584  1.0000
  O   O23       1.0  0.10314781790273742  0.9066257881748501  0.7457360303742959  1.0000
  O   O24       1.0  0.076661228006067  0.7687112149349178  0.37723576870546793  1.0000
  O   O25       1.0  0.6074364744323686  0.5906007829109114  0.2544519202567415  1.0000
  O   O26       1.0  0.6069575049784534  0.09350057387332102  0.7382055280893809  1.0000
