data_image0
_chemical_formula_structural       Zn2H48C56N12O8
_chemical_formula_sum              "Zn2 H48 C56 N12 O8"
_cell_length_a       7.874534919588934
_cell_length_b       8.012962506201207
_cell_length_c       20.311
_cell_angle_alpha    81.53131293323605
_cell_angle_beta     85.8932750997209
_cell_angle_gamma    86.62387489992429

_space_group_name_H-M_alt    "P 1"
_space_group_IT_number       1

loop_
  _space_group_symop_operation_xyz
  'x, y, z'

loop_
  _atom_site_type_symbol
  _atom_site_label
  _atom_site_symmetry_multiplicity
  _atom_site_fract_x
  _atom_site_fract_y
  _atom_site_fract_z
  _atom_site_occupancy
  Zn  Zn1       1.0  0.765144372843622  0.7756283922835578  0.7541122213618152  1.0000
  Zn  Zn2       1.0  0.23485557069866303  0.2243713874051494  0.24588823611535562  1.0000
  H   H1        1.0  0.3600390237190041  0.7223949182035128  0.43534702802126196  1.0000
  H   H2        1.0  0.6399634661939188  0.2776048614851945  0.5646533587564164  1.0000
  H   H3        1.0  0.8516587058035298  0.3501345224796353  0.1025436221643545  1.0000
  H   H4        1.0  0.1483411128099803  0.6498677837147184  0.897456199648545  1.0000
  H   H5        1.0  0.4702225112133576  0.9932780114025235  0.7841632267684134  1.0000
  H   H6        1.0  0.5297747610295147  0.0067242947918373  0.2158361733999214  1.0000
  H   H7        1.0  0.1912032104268775  0.0970443453323  0.7361364005803708  1.0000
  H   H8        1.0  0.8087955848588635  0.9029529078507537  0.2638632508786642  1.0000
  H   H9        1.0  0.12975553588753996  0.0277283995267439  0.6254401878659763  1.0000
  H   H10       1.0  0.870245805768839  0.9722688536563098  0.3745593928935734  1.0000
  H   H11       1.0  0.6201215226894092  0.7549918941209626  0.6205675995771642  1.0000
  H   H12       1.0  0.37988230287322017  0.2450066223149179  0.3794338081989821  1.0000
  H   H13       1.0  0.1675406299552264  0.0141433786378755  0.4933345777959417  1.0000
  H   H14       1.0  0.832456954609583  0.9858526112923514  0.5066666577051038  1.0000
  H   H15       1.0  0.074328812898635  0.8609939652411498  0.5555708305642639  1.0000
  H   H16       1.0  0.9256713805011998  0.1390007614362503  0.4444304058973998  1.0000
  H   H17       1.0  0.15512748925071662  0.802420721466369  0.4786442914325093  1.0000
  H   H18       1.0  0.8448726416847308  0.197575268463865  0.5213568733690437  1.0000
  H   H19       1.0  0.47423846902200484  0.5760192867701193  0.3503552216227632  1.0000
  H   H20       1.0  0.5257624978480493  0.423985545929888  0.649644913864215  1.0000
  H   H21       1.0  0.7321341268717704  0.4459282475143738  0.2938247640164064  1.0000
  H   H22       1.0  0.2678632078354894  0.5540727954271532  0.7061742154679891  1.0000
  H   H23       1.0  0.04225861005470929  0.5692381456011191  0.44276618057580214  1.0000
  H   H24       1.0  0.9577413959519632  0.4307603708347614  0.5572338562174296  1.0000
  H   H25       1.0  0.784743630080385  0.6927476376343478  0.5019125086248053  1.0000
  H   H26       1.0  0.21525637592628746  0.3072508788015327  0.4980865434803263  1.0000
  H   H27       1.0  0.5365746526301791  0.5152580891010174  0.7409100221034421  1.0000
  H   H28       1.0  0.46342529091211293  0.4847416905876898  0.2590894506856288  1.0000
  H   H29       1.0  0.4192956194507004  0.2555257285955221  0.8084324016907658  1.0000
  H   H30       1.0  0.5807030509062656  0.7444740510931851  0.19156710644804784  1.0000
  H   H31       1.0  0.49129187496686905  0.1808005341897996  0.9270449413264785  1.0000
  H   H32       1.0  0.5087093417607349  0.8191992454989077  0.0729549884568996  1.0000
  H   H33       1.0  0.7813237778416563  0.6304124269442681  0.9006820349612567  1.0000
  H   H34       1.0  0.21867743888594757  0.3695873527444391  0.09931740247806431  1.0000
  H   H35       1.0  0.6772318946013128  0.1895763515707714  0.08690052045743359  1.0000
  H   H36       1.0  0.32277059531161  0.8104234281179359  0.9130993739761949  1.0000
  H   H37       1.0  0.6822810675850092  0.0945191029334893  0.013315067828664009  1.0000
  H   H38       1.0  0.3177226955132326  0.9054806767552179  0.9866847912552219  1.0000
  H   H39       1.0  0.49314301420596246  0.2032030598028882  0.04026092088547271  1.0000
  H   H40       1.0  0.5068582025216415  0.796796719885819  0.9597385165538554  1.0000
  H   H41       1.0  0.9459620451611741  0.4674742877115605  0.193466839148897  1.0000
  H   H42       1.0  0.05403662519579199  0.5325254919771467  0.8065326689899165  1.0000
  H   H43       1.0  0.0585089765588052  0.7140069194400667  0.23431805272934983  1.0000
  H   H44       1.0  0.9414910294478673  0.2859915969958138  0.7656814917198318  1.0000
  H   H45       1.0  0.950743474851258  0.0250793583510003  0.05033484977933259  1.0000
  H   H46       1.0  0.0492589525972775  0.9749216845905337  0.9496649729941851  1.0000
  H   H47       1.0  0.8483940788307508  0.7756296555363846  0.006096437763709199  1.0000
  H   H48       1.0  0.1516108949884298  0.2243713874051494  0.9939028219662732  1.0000
  C   C1        1.0  0.43714218200626925  0.96617365877173  0.7357692424985913  1.0000
  C   C2        1.0  0.5628589097925669  0.0338286474226308  0.2642315286526653  1.0000
  C   C3        1.0  0.0699742079674408  0.0397823579907168  0.167734912390145  1.0000
  C   C4        1.0  0.9300269462957758  0.9602186849508172  0.8322654380771723  1.0000
  C   C5        1.0  0.283986643638535  0.0230682598522947  0.7086839248360519  1.0000
  C   C6        1.0  0.716012151647206  0.976928993330759  0.2913172036551401  1.0000
  C   C7        1.0  0.2506608307445362  0.9840777410720776  0.6463401018132018  1.0000
  C   C8        1.0  0.7493393001909112  0.0159182488581564  0.3536605706443083  1.0000
  C   C9        1.0  0.3732454300439727  0.8904871289655676  0.6114153458708458  1.0000
  C   C10       1.0  0.6267545134983123  0.1095126507231399  0.38858511160632503  1.0000
  C   C11       1.0  0.5240026215414275  0.8359916653125268  0.6431661834997229  1.0000
  C   C12       1.0  0.4759998683714955  0.1640081143761805  0.35683321858986267  1.0000
  C   C13       1.0  0.34762522463785933  0.8434170654226989  0.5457422390439675  1.0000
  C   C14       1.0  0.6523759920897447  0.1565827142660083  0.4542576907394036  1.0000
  C   C15       1.0  0.1778531886646562  0.8812754893596875  0.516642465633865  1.0000
  C   C16       1.0  0.8221456066210848  0.1187217638233662  0.4833591552013772  1.0000
  C   C17       1.0  0.6157415622208262  0.6462864619535225  0.4282062647226823  1.0000
  C   C18       1.0  0.3842594671136225  0.3537171074936651  0.5717939424244065  1.0000
  C   C19       1.0  0.6002760004573204  0.5766408071604232  0.36944931337149  1.0000
  C   C20       1.0  0.3997250288771212  0.4233627622867573  0.6305504014315488  1.0000
  C   C21       1.0  0.7430362902059287  0.5038130184990877  0.3385303141754648  1.0000
  C   C22       1.0  0.2569622552222626  0.496189287695266  0.6614690506431273  1.0000
  C   C23       1.0  0.9038401773204471  0.5018701356529789  0.3644827744909094  1.0000
  C   C24       1.0  0.0961597662218381  0.4981296440357283  0.6355166982981615  1.0000
  C   C25       1.0  0.9170944007516723  0.5730569588935737  0.42281327569187976  1.0000
  C   C26       1.0  0.0829055427906127  0.4269428207951337  0.5771866894412412  1.0000
  C   C27       1.0  0.7754264874153804  0.6424348040875998  0.455454253882813  1.0000
  C   C28       1.0  0.2245733311981297  0.357567502106761  0.5445455679300863  1.0000
  C   C29       1.0  0.0600681746923755  0.422647761187342  0.3335953905327571  1.0000
  C   C30       1.0  0.9399305581289782  0.5773507552485384  0.6664041892661672  1.0000
  C   C31       1.0  0.5604543886454537  0.4798566919102427  0.793260927984896  1.0000
  C   C32       1.0  0.4395429460618132  0.5201443510312913  0.20673903618760653  1.0000
  C   C33       1.0  0.49925720895824816  0.3348213717250488  0.830935161980065  1.0000
  C   C34       1.0  0.5007387900993052  0.6651809344693049  0.1690647658820694  1.0000
  C   C35       1.0  0.5394221767182115  0.2945551879020485  0.8972497817648274  1.0000
  C   C36       1.0  0.46057643117436703  0.7054458550394855  0.1027501470579253  1.0000
  C   C37       1.0  0.6390669419971218  0.4021022172282116  0.9252506325572512  1.0000
  C   C38       1.0  0.3609316658954569  0.5978988257133224  0.07474929626550159  1.0000
  C   C39       1.0  0.6974550496746801  0.5456784803995804  0.8830559858599544  1.0000
  C   C40       1.0  0.30254616705292386  0.454321299289127  0.11694246689126689  1.0000
  C   C41       1.0  0.6863829644205666  0.3666338676376739  0.9947367144230626  1.0000
  C   C42       1.0  0.3136195254923564  0.6333659120510335  0.005262687666515791  1.0000
  C   C43       1.0  0.6334120079014057  0.205090359524668  0.03630350072923251  1.0000
  C   C44       1.0  0.3665943015674742  0.7949094201640392  0.9636957953111106  1.0000
  C   C45       1.0  0.8887717869474939  0.6063360913369706  0.0972562192640325  1.0000
  C   C46       1.0  0.1112280941304036  0.3936649516045634  0.9027436742089704  1.0000
  C   C47       1.0  0.9475840603825176  0.5898051648582907  0.16189220079768063  1.0000
  C   C48       1.0  0.0524158831597745  0.4101946148304165  0.8381077643354332  1.0000
  C   C49       1.0  0.009724990921760898  0.7280264993010164  0.184794979340225  1.0000
  C   C50       1.0  0.9902737418995927  0.2719720171348641  0.8152055851467992  1.0000
  C   C51       1.0  0.009589681349943603  0.886823695770687  0.14489424011498642  1.0000
  C   C52       1.0  0.9904077158217034  0.1131760839180203  0.8551072727497767  1.0000
  C   C53       1.0  0.9491871608864314  0.9017174465871067  0.0809247818991992  1.0000
  C   C54       1.0  0.05081144700614709  0.0982835963544275  0.9190756392676036  1.0000
  C   C55       1.0  0.8911352345202913  0.7643968114091919  0.05645005734775312  1.0000
  C   C56       1.0  0.1088646465576062  0.2356042315323421  0.943549343781207  1.0000
  N   N1        1.0  0.5547410223759854  0.8723506081452683  0.7033483472927244  1.0000
  N   N2        1.0  0.4452600694228437  0.1276516980490854  0.29665143917042514  1.0000
  N   N3        1.0  0.48002653627852254  0.772784810172638  0.5168340166548973  1.0000
  N   N4        1.0  0.519977039426557  0.2272187592745496  0.4831651351046061  1.0000
  N   N5        1.0  0.4721469085464491  0.7200755860153052  0.45798578729177564  1.0000
  N   N6        1.0  0.52785418325238  0.2799267201790556  0.542013506827324  1.0000
  N   N7        1.0  0.6585925050467266  0.5834737416952862  0.8192720814539669  1.0000
  N   N8        1.0  0.3414062277746268  0.4165247747405942  0.18072749834495744  1.0000
  N   N9        1.0  0.7666792304568588  0.485456691687105  0.014899699241638597  1.0000
  N   N10       1.0  0.2333219862707523  0.5145430880016022  0.9851002305417326  1.0000
  N   N11       1.0  0.8248006521359129  0.46742249434569777  0.07583539730996591  1.0000
  N   N12       1.0  0.1752018377770099  0.5325772853430095  0.9241640047796126  1.0000
  O   O1        1.0  0.033319688779549494  0.3129367797705527  0.2944919412264682  1.0000
  O   O2        1.0  0.9666777708564851  0.6870617366653349  0.7055076739221988  1.0000
  O   O3        1.0  0.2049304957531248  0.4612072904426654  0.3467289185879423  1.0000
  O   O4        1.0  0.7950670263472972  0.5387899627403883  0.6532717529089425  1.0000
  O   O5        1.0  0.1751316291411555  0.0142924424713229  0.21501314093762153  1.0000
  O   O6        1.0  0.8248696500508359  0.9857060739645576  0.7849873528499103  1.0000
  O   O7        1.0  0.020298695341381297  0.184995796824353  0.1408939390693149  1.0000
  O   O8        1.0  0.9797025213862228  0.8150039828643543  0.859106483058106  1.0000
