data_image0
_chemical_formula_structural       Al6H67C85NO31
_chemical_formula_sum              "Al6 H67 C85 N1 O31"
_cell_length_a       12.86162825843075
_cell_length_b       12.565139837264528
_cell_length_c       28.491939977236193
_cell_angle_alpha    89.82006385983759
_cell_angle_beta     89.47425681759101
_cell_angle_gamma    60.291103793700344

_space_group_name_H-M_alt    "P 1"
_space_group_IT_number       1

loop_
  _space_group_symop_operation_xyz
  'x, y, z'

loop_
  _atom_site_type_symbol
  _atom_site_label
  _atom_site_symmetry_multiplicity
  _atom_site_fract_x
  _atom_site_fract_y
  _atom_site_fract_z
  _atom_site_occupancy
  Al  Al1       1.0  0.4058152535310597  0.18428563224649241  0.49731195812890416  1.0000
  Al  Al2       1.0  0.4189616805507725  0.9217247009180626  0.4998475667930364  1.0000
  Al  Al3       1.0  0.6503059018937519  0.9262918723855126  0.5006135213236718  1.0000
  Al  Al4       1.0  0.9295017940991103  0.1502258931841852  4.6084637368399264e-05  1.0000
  Al  Al5       1.0  0.6811056369716724  0.4054969783604677  0.9998357756702416  1.0000
  Al  Al6       1.0  0.9095971015742138  0.41541896139195  0.9995234303847907  1.0000
  H   H1        1.0  0.5897819561757061  0.5357811768911702  0.2890238228558175  1.0000
  H   H2        1.0  0.5328094170747376  0.8745878248709292  0.2703702544903592  1.0000
  H   H3        1.0  0.7446854475059155  0.7832676564762905  0.21500166133660054  1.0000
  H   H4        1.0  0.8686078963710456  0.5943719290217616  0.2822033745523242  1.0000
  H   H5        1.0  0.800053206566119  0.44329451686108706  0.23268188668310333  1.0000
  H   H6        1.0  0.7796482552716241  0.9814140338386255  0.2007545034424183  1.0000
  H   H7        1.0  0.764312124908514  0.9530707807343717  0.2815067121826047  1.0000
  H   H8        1.0  0.7603047000883834  0.24976734098689943  0.30242617261340843  1.0000
  H   H9        1.0  0.8542456102803301  0.09098791343296131  0.29331494947658854  1.0000
  H   H10       1.0  0.8575545848964267  0.1287092301813288  0.2127301607528125  1.0000
  H   H11       1.0  0.7553954892448829  0.2859537793466416  0.2215433970924892  1.0000
  H   H12       1.0  0.47160832807361425  0.24700898125478699  0.2895552163517223  1.0000
  H   H13       1.0  0.5342335083041975  0.3425425904319539  0.2969705493705987  1.0000
  H   H14       1.0  0.4779023385839097  0.2640471089554168  0.2076581679764118  1.0000
  H   H15       1.0  0.6075397343134981  0.01880880474682573  0.2771881000811689  1.0000
  H   H16       1.0  0.6244913841682589  0.0362511886425239  0.19585938645359846  1.0000
  H   H17       1.0  0.531941597725428  0.3672029127547206  0.215109979453274  1.0000
  H   H18       1.0  0.24053278995576474  0.2896929947650691  0.20534954529681929  1.0000
  H   H19       1.0  0.2637767559675126  0.2665773915656545  0.286962647105021  1.0000
  H   H20       1.0  0.00032258671021880144  0.2182862356526911  0.2997431492132349  1.0000
  H   H21       1.0  0.04676799240193218  0.32855183287087203  0.30423142567381223  1.0000
  H   H22       1.0  0.020243657981623597  0.3674138839952264  0.22333081578832292  1.0000
  H   H23       1.0  0.9630871475136898  0.26534065434495374  0.2199835879636893  1.0000
  H   H24       1.0  0.30424470068472687  0.953342308220144  0.2728226960081912  1.0000
  H   H25       1.0  0.15513642986078927  0.9929658849740834  0.2858555159328375  1.0000
  H   H26       1.0  0.2525378515963581  0.9844992197402433  0.19308040660297368  1.0000
  H   H27       1.0  0.3710776121432247  0.11117145184464047  0.277975261749738  1.0000
  H   H28       1.0  0.33804666733540495  0.1312667578898471  0.19679848505874276  1.0000
  H   H29       1.0  0.10074759882622428  0.04150569249055282  0.2069456517340242  1.0000
  H   H30       1.0  0.726026876282738  0.7889411668159527  0.799589054190001  1.0000
  H   H31       1.0  0.7050802355516125  0.8263095415646049  0.7187520671701151  1.0000
  H   H32       1.0  0.7795433967777184  0.5028277973927263  0.698289271037076  1.0000
  H   H33       1.0  0.8395066168332547  0.601343177419615  0.7048224935638528  1.0000
  H   H34       1.0  0.8570701377395692  0.5614408602182908  0.7854838781398215  1.0000
  H   H35       1.0  0.7921563151865813  0.4672190473043543  0.7787409568516637  1.0000
  H   H36       1.0  0.45854852335237684  0.7482608539599483  0.7149954731545024  1.0000
  H   H37       1.0  0.5536140179560364  0.5898858027452435  0.7059763794840136  1.0000
  H   H38       1.0  0.47489078034355  0.7188878329925429  0.7965141099835051  1.0000
  H   H39       1.0  0.548877126315837  0.8878783983466154  0.7241578834093971  1.0000
  H   H40       1.0  0.5693949606854859  0.853769664912882  0.8050940718424329  1.0000
  H   H41       1.0  0.5660923205423032  0.5600404363854353  0.7872772190358999  1.0000
  H   H42       1.0  0.48453385315319497  0.24160495472283838  0.7988646098895488  1.0000
  H   H43       1.0  0.4690862197714408  0.22248229571609818  0.7177165125524566  1.0000
  H   H44       1.0  0.7208878050214195  0.283114665436287  0.6953610792675845  1.0000
  H   H45       1.0  0.5639754477297955  0.350452983125088  0.7010216514331444  1.0000
  H   H46       1.0  0.5787343696254935  0.3730552788747659  0.78188665005068  1.0000
  H   H47       1.0  0.7357134546174822  0.30527514744240125  0.775831369257375  1.0000
  H   H48       1.0  0.7826874039082199  0.959902627928365  0.7154165648595806  1.0000
  H   H49       1.0  0.8517163947975489  0.047669476172032446  0.7028815709605922  1.0000
  H   H50       1.0  0.8021003283003482  0.9828524533774968  0.7959363085937525  1.0000
  H   H51       1.0  0.5580204989979051  0.06158668736802754  0.7229260948067662  1.0000
  H   H52       1.0  0.5753737108097566  0.08108456713099359  0.8037043124694847  1.0000
  H   H53       1.0  0.8666317457259537  0.07519467332492977  0.7838246447347287  1.0000
  H   H54       1.0  0.31712669140416944  0.013167764739243666  0.8036468819687315  1.0000
  H   H55       1.0  0.3295304061655174  0.9752575786499803  0.7225565952462675  1.0000
  H   H56       1.0  0.12680972079359523  0.02003551846826209  0.7110885456808091  1.0000
  H   H57       1.0  0.10408363627836079  0.045345520915155625  0.7927028081372924  1.0000
  H   H58       1.0  0.9833744399635336  0.19587768577493853  0.7839605098114433  1.0000
  H   H59       1.0  0.21456787637225722  0.3078376179280228  0.7059642197649436  1.0000
  H   H60       1.0  0.0636508874049255  0.3516136176125145  0.6960832015411783  1.0000
  H   H61       1.0  0.1637335706234069  0.35382484941268905  0.7857524824034599  1.0000
  H   H62       1.0  0.3716148839172532  0.08827372269871597  0.715056137062497  1.0000
  H   H63       1.0  0.3407172213023911  0.13888239842528807  0.7950624989330917  1.0000
  H   H64       1.0  0.020106551570364697  0.37209403738767577  0.7763815421021931  1.0000
  H   H65       1.0  0.37080990597043245  0.7303470088533642  0.2430140689385851  1.0000
  H   H66       1.0  0.29625596907055757  0.3865490605138931  0.5244275250523032  1.0000
  H   H67       1.0  0.0169640461314415  0.9496253783067491  0.971206236056794  1.0000
  C   C1        1.0  0.28882922087598933  0.0906624369881115  0.4307592157247484  1.0000
  C   C2        1.0  0.6096546298513488  0.7752312326049663  0.43682961354129907  1.0000
  C   C3        1.0  0.6202282951957513  0.09612252563511696  0.4330354184391609  1.0000
  C   C4        1.0  0.2779472045179929  0.09742422032059757  0.5649827757564339  1.0000
  C   C5        1.0  0.6030421671174722  0.7858183832337743  0.5669555979338481  1.0000
  C   C6        1.0  0.6071632216735736  0.1053415162118157  0.5665975547555319  1.0000
  C   C7        1.0  0.6249996499889222  0.5900033312777354  0.2722517535492202  1.0000
  C   C8        1.0  0.5567330566109446  0.6928086638292541  0.23505767529106683  1.0000
  C   C9        1.0  0.6966692858904366  0.5989792174065582  0.11271812176990179  1.0000
  C   C10       1.0  0.6379460322141597  0.7220702836802602  0.3906573985848638  1.0000
  C   C11       1.0  0.741536282223343  0.5393609478034311  0.2419082865225164  1.0000
  C   C12       1.0  0.6741544547814157  0.6433353063377044  0.203649784582737  1.0000
  C   C13       1.0  0.7795524240280757  0.6232756862885367  0.2683496868023028  1.0000
  C   C14       1.0  0.6623367153056136  0.6747322588992408  0.2999418214816174  1.0000
  C   C15       1.0  0.7111920643854005  0.7276713374147338  0.23174205175287443  1.0000
  C   C16       1.0  0.594584660409957  0.778416803977308  0.2619420164129593  1.0000
  C   C17       1.0  0.6838398931367847  0.6221522880690173  0.15460137021062081  1.0000
  C   C18       1.0  0.6513240603065211  0.6976082479862956  0.3488726673947369  1.0000
  C   C19       1.0  0.6830554402864593  0.03314926783277639  0.2683589607962347  1.0000
  C   C20       1.0  0.7701079559034908  0.17094597403254141  0.2821589323966123  1.0000
  C   C21       1.0  0.7708815905696655  0.19327048304489114  0.22880218111115613  1.0000
  C   C22       1.0  0.6906135926718235  0.20791088483419184  0.1126710414126464  1.0000
  C   C23       1.0  0.6650000440137587  0.14893663505284868  0.294817022575117  1.0000
  C   C24       1.0  0.6914838277424451  0.049018767054477094  0.21486891571203864  1.0000
  C   C25       1.0  0.671145819576317  0.17891480229248197  0.2042734955466088  1.0000
  C   C26       1.0  0.5482117424331605  0.2753816313158879  0.22463268228810307  1.0000
  C   C27       1.0  0.5462264048678874  0.26053587845234466  0.27845809164429614  1.0000
  C   C28       1.0  0.678525684916295  0.1950406168182469  0.15425681799715107  1.0000
  C   C29       1.0  0.6598232752645998  0.1314437029092517  0.3448521830951847  1.0000
  C   C30       1.0  0.6498846996724125  0.11742731192303779  0.3865195770239751  1.0000
  C   C31       1.0  0.27860144533006803  0.1816269239242275  0.2700553959512888  1.0000
  C   C32       1.0  0.06174060888081098  0.24677133954502758  0.28472349459632074  1.0000
  C   C33       1.0  0.0398492586809667  0.2738173299189768  0.23163645728519097  1.0000
  C   C34       1.0  0.09863351317985551  0.22155977931381435  0.11195047482242869  1.0000
  C   C35       1.0  0.19216250557939668  0.14298650563080176  0.2927884001810738  1.0000
  C   C36       1.0  0.25853978910511444  0.1983204881030006  0.21646668198655308  1.0000
  C   C37       1.0  0.1511706694247792  0.18188674804782323  0.20278768807536807  1.0000
  C   C38       1.0  0.1791874565722082  0.05051058840658134  0.2155066104976839  1.0000
  C   C39       1.0  0.210511900151829  0.025285751277266406  0.2680802640343387  1.0000
  C   C40       1.0  0.1250793987259726  0.20431718131325036  0.15319347040259856  1.0000
  C   C41       1.0  0.21672142265632738  0.1230807661020138  0.34259060556197335  1.0000
  C   C42       1.0  0.24142314008743426  0.10838034034258472  0.38404786721469714  1.0000
  C   C43       1.0  0.6355735074798048  0.807690659299567  0.7324440219385551  1.0000
  C   C44       1.0  0.7690895740865995  0.5829030723291314  0.7176070355322465  1.0000
  C   C45       1.0  0.779523415049809  0.5585955607245197  0.7711065347098512  1.0000
  C   C46       1.0  0.6939160539033223  0.6075791518719671  0.8889155415950609  1.0000
  C   C47       1.0  0.6458114222335637  0.694804371323116  0.7062071363747221  1.0000
  C   C48       1.0  0.6486934024080142  0.7842596663585585  0.7860281018271422  1.0000
  C   C49       1.0  0.6652585711712645  0.6559928031124684  0.7971295364378433  1.0000
  C   C50       1.0  0.5558884651635198  0.6496874025728233  0.7782249195656519  1.0000
  C   C51       1.0  0.5458510918250498  0.6701529590316755  0.7244616332167126  1.0000
  C   C52       1.0  0.6790552463100922  0.6318884558373339  0.8472736885599161  1.0000
  C   C53       1.0  0.6347825658716388  0.718067789576189  0.6560048533932985  1.0000
  C   C54       1.0  0.6247502164882947  0.7393010474557327  0.6140874938092791  1.0000
  C   C55       1.0  0.5543991727573001  0.14860491813571022  0.7311796048227778  1.0000
  C   C56       1.0  0.6495564583851346  0.27760732890364903  0.7146873274330473  1.0000
  C   C57       1.0  0.6591196575310362  0.2924271148696604  0.7680475442669277  1.0000
  C   C58       1.0  0.6950319130354287  0.20739836472817794  0.8860228934620551  1.0000
  C   C59       1.0  0.6581241225265444  0.15254692750487925  0.7045228838277211  1.0000
  C   C60       1.0  0.5650664470603742  0.16186419112642625  0.7846053579901948  1.0000
  C   C61       1.0  0.6747887453467243  0.17761202168668452  0.7947071095572654  1.0000
  C   C62       1.0  0.7892262358034471  0.06360976249876434  0.7761129428554057  1.0000
  C   C63       1.0  0.7784823282945793  0.0476852352129101  0.7229488807703672  1.0000
  C   C64       1.0  0.6843890667111338  0.1931671864538274  0.8445465013971614  1.0000
  C   C65       1.0  0.6467939770005556  0.1385628643402869  0.6547220883102226  1.0000
  C   C66       1.0  0.6343756995939956  0.1264512484623949  0.6132289495308284  1.0000
  C   C67       1.0  0.30240624722212317  0.07132310114654673  0.7301295741483358  1.0000
  C   C68       1.0  0.09424277923830722  0.11492152809496056  0.7220543015771242  1.0000
  C   C69       1.0  0.07785262595479028  0.1332280359101077  0.7754389639947875  1.0000
  C   C70       1.0  0.1042801300325991  0.2221029469068085  0.8863500098586243  1.0000
  C   C71       1.0  0.18400014796711156  0.15520925271371772  0.7036833146168463  1.0000
  C   C72       1.0  0.28711012691022114  0.09792901291789495  0.7834566722083095  1.0000
  C   C73       1.0  0.15380152756335974  0.1877590789263337  0.7948782548367106  1.0000
  C   C74       1.0  0.11594202468112509  0.3110222266962524  0.7698863622791593  1.0000
  C   C75       1.0  0.1423699382326404  0.2900143670972498  0.7167536761350916  1.0000
  C   C76       1.0  0.13157737154297422  0.20613141554881054  0.8450065433217019  1.0000
  C   C77       1.0  0.20548582866253173  0.1350786108540377  0.6536455819119666  1.0000
  C   C78       1.0  0.2291523119921735  0.11975121535684963  0.6120117367659786  1.0000
  C   C79       1.0  0.7212382022461412  0.22860616890108798  0.066221812441853  1.0000
  C   C80       1.0  0.7204844003756677  0.5512182859264032  0.0657059059980014  1.0000
  C   C81       1.0  0.048833169848329305  0.243697543577639  0.0656312728346364  1.0000
  C   C82       1.0  0.7208375523668877  0.23119996614761354  0.9325847153009903  1.0000
  C   C83       1.0  0.7222888038075582  0.5558918532617766  0.935275785328713  1.0000
  C   C84       1.0  0.05043105553513531  0.24268791062524292  0.9324575159656661  1.0000
  C   C85       1.0  0.4341057785310695  0.737406542117434  0.2175818686033182  1.0000
  N   N1        1.0  0.9766613203504021  0.18605011305334063  0.6963797289318592  1.0000
  O   O1        1.0  0.5202342074614491  0.17498274692036372  0.4497370054335619  1.0000
  O   O2        1.0  0.3137562593350722  0.16967419449832724  0.4457408382990309  1.0000
  O   O3        1.0  0.30613059144849325  0.9931062604105565  0.4526936479804959  1.0000
  O   O4        1.0  0.5083537688234614  0.7992218315400378  0.4543740633200314  1.0000
  O   O5        1.0  0.6845596645895567  0.8004899732783175  0.45570569907199854  1.0000
  O   O6        1.0  0.6965181497305154  0.9948448909557759  0.4528095091710824  1.0000
  O   O7        1.0  0.5055858449641305  0.18070841730519058  0.5505357687128836  1.0000
  O   O8        1.0  0.2986825589963473  0.17722371443642967  0.5473777204399397  1.0000
  O   O9        1.0  0.3014434284076586  0.994610760512117  0.5461434245443826  1.0000
  O   O10       1.0  0.5058477425328434  0.8051778626850917  0.5476046323778903  1.0000
  O   O11       1.0  0.6801024361707846  0.8102261652905725  0.5486622873938458  1.0000
  O   O12       1.0  0.6877193563691719  0.007569558366881724  0.54573552879706  1.0000
  O   O13       1.0  0.49242515607990356  0.008545709577582335  0.4995339063380371  1.0000
  O   O14       1.0  0.030918561641023204  0.16236852321398496  0.0478980813732761  1.0000
  O   O15       1.0  0.8256399552803231  0.15536362523755545  0.0516289124044178  1.0000
  O   O16       1.0  0.6409022813293531  0.32344451553306214  0.0441933200982021  1.0000
  O   O17       1.0  0.6468273379793671  0.5215886774744548  0.0484540264342002  1.0000
  O   O18       1.0  0.8161076221299126  0.5361116855726706  0.0454842792685355  1.0000
  O   O19       1.0  0.0220156020926154  0.34787233423973163  0.04680431711096839  1.0000
  O   O20       1.0  0.0243579261837823  0.16387026753289294  0.9470158703870553  1.0000
  O   O21       1.0  0.8192625702301727  0.15373296958374974  0.9503543797658267  1.0000
  O   O22       1.0  0.6421743327302138  0.3334905760847351  0.9513217468768785  1.0000
  O   O23       1.0  0.6471790743873598  0.5315635171453014  0.9553318844621613  1.0000
  O   O24       1.0  0.8235452418578645  0.5322394592814562  0.9520380095250971  1.0000
  O   O25       1.0  0.028778861781980004  0.34224849203550184  0.9536457543164047  1.0000
  O   O26       1.0  0.8389674201140095  0.3258547948325587  0.9993576653633623  1.0000
  O   O27       1.0  0.4011059427932934  0.7816878513536455  0.1786009844555778  1.0000
  O   O28       1.0  0.9607978584081849  0.13620643563773877  0.6620898997674587  1.0000
  O   O29       1.0  0.9049685438080103  0.29092638851502534  0.7106560246347229  1.0000
  O   O30       1.0  0.3249574512774771  0.34436601990467625  0.49478998318958384  1.0000
  O   O31       1.0  0.012721858477050296  0.9901345619896988  0.0005074714210308998  1.0000
