data_image0
_chemical_formula_structural       Al2H10C26Br4N2Cl2O10
_chemical_formula_sum              "Al2 H10 C26 Br4 N2 Cl2 O10"
_cell_length_a       6.62662369139062
_cell_length_b       11.101751206434354
_cell_length_c       16.971347601536323
_cell_angle_alpha    84.21079788303399
_cell_angle_beta     82.31679240900861
_cell_angle_gamma    73.64559840411275

_space_group_name_H-M_alt    "P 1"
_space_group_IT_number       1

loop_
  _space_group_symop_operation_xyz
  'x, y, z'

loop_
  _atom_site_type_symbol
  _atom_site_label
  _atom_site_symmetry_multiplicity
  _atom_site_fract_x
  _atom_site_fract_y
  _atom_site_fract_z
  _atom_site_occupancy
  Al  Al1       1.0  0.49205872251945243  0.5041790975179125  0.49824688369586306  1.0000
  Al  Al2       1.0  0.9921352994818591  0.503307134367276  0.5000470356681175  1.0000
  H   H1        1.0  0.18503289712385407  0.6566830706579194  0.45220703951490276  1.0000
  H   H2        1.0  0.7454697081019931  0.4248360741476063  0.5932472654546999  1.0000
  H   H3        1.0  0.9059284316681941  0.4193914236913087  0.7443929257211789  1.0000
  H   H4        1.0  0.8608467206642486  0.40577614689672  0.8934047485998775  1.0000
  H   H5        1.0  0.4018073084366662  0.5492388406880623  0.8903551466953841  1.0000
  H   H6        1.0  0.5739438569261638  0.5564341983371365  0.09978242211378326  1.0000
  H   H7        1.0  0.2386180344013127  0.40319779329713873  0.12217081298135915  1.0000
  H   H8        1.0  0.16012066510449327  0.41982887455476003  0.26989231631018373  1.0000
  H   H9        1.0  0.822064323394905  0.7714743331147458  0.6141556369620955  1.0000
  H   H10       1.0  0.623913061923531  0.23898195900348182  0.5887787119283698  1.0000
  C   C1        1.0  0.6212525639155685  0.7307849397718799  0.5050557195666272  1.0000
  C   C2        1.0  0.798949231262526  0.5051250579609103  0.3569855084146098  1.0000
  C   C3        1.0  0.360336343795865  0.28079707886638516  0.48877330019238485  1.0000
  C   C4        1.0  0.19415149633375964  0.49303064297331634  0.644096296499576  1.0000
  C   C5        1.0  0.17868040032052332  0.4897809660240711  0.7328607429747577  1.0000
  C   C6        1.0  0.014830164204724295  0.4464512492049055  0.7772025189015108  1.0000
  C   C7        1.0  0.9883141480634378  0.4393638878286127  0.8596903208660931  1.0000
  C   C8        1.0  0.12866113628992784  0.47754832388171314  0.9003784458843354  1.0000
  C   C9        1.0  0.2954722838794621  0.5190327563317398  0.8578963387271796  1.0000
  C   C10       1.0  0.31967547609328756  0.5259967383338093  0.7748178469818396  1.0000
  C   C11       1.0  0.7019920956983867  0.5264255708733572  0.13759232685426065  1.0000
  C   C12       1.0  0.9097547008302129  0.4808999424690016  0.10234122765438507  1.0000
  C   C13       1.0  0.07763912360531584  0.4404084780018706  0.14985413288592037  1.0000
  C   C14       1.0  0.033415070435509536  0.44948213505957585  0.23150148333216689  1.0000
  C   C15       1.0  0.8263585824669875  0.4984582276910743  0.26856113838992  1.0000
  C   C16       1.0  0.6596396729998871  0.53708298882772  0.21967749153025545  1.0000
  C   C17       1.0  0.5536869144679528  0.8724304376692161  0.5008807938562682  1.0000
  C   C18       1.0  0.6361699025319395  0.9380759563926803  0.551379443687317  1.0000
  C   C19       1.0  0.4162307540132771  0.9395519111842604  0.446869700742738  1.0000
  C   C20       1.0  0.7762575888470236  0.8737560909214179  0.607804509266188  1.0000
  C   C21       1.0  0.8598857502997745  0.9387461087481485  0.6541592617241958  1.0000
  C   C22       1.0  0.4290792656487596  0.1393173556353631  0.49082676279559917  1.0000
  C   C23       1.0  0.3513356533062364  0.07330825213469441  0.44252022458692136  1.0000
  C   C24       1.0  0.5760790661757723  0.07288267151440658  0.5452016802073628  1.0000
  C   C25       1.0  0.6639216574855665  0.1370229206741129  0.5939532160436014  1.0000
  C   C26       1.0  0.8049105680806649  0.0721120671021609  0.6462373964285105  1.0000
  Br  Br1       1.0  0.1657757121704577  0.16187860583112726  0.36738804140050957  1.0000
  Br  Br2       1.0  0.32787874871821293  0.853047172197094  0.37263876570072796  1.0000
  Br  Br3       1.0  0.04914199728305855  0.8466473706749013  0.7268000062398484  1.0000
  Br  Br4       1.0  0.9245896588354583  0.16563953448380184  0.7054306878602501  1.0000
  N   N1        1.0  0.1129766125609351  0.478979171406209  0.9843583406005506  1.0000
  N   N2        1.0  0.9304661640963873  0.48035884406848345  0.01849169486195019  1.0000
  Cl  Cl1       1.0  0.5197127320885214  0.5878204097089111  0.727448903051325  1.0000
  Cl  Cl2       1.0  0.3973691019137818  0.6003807589891963  0.25441847865926087  1.0000
  O   O1        1.0  0.47574410198038913  0.6754121444536595  0.5200558595180523  1.0000
  O   O2        1.0  0.9660956647308371  0.4872776620067824  0.3910230444565385  1.0000
  O   O3        1.0  0.16513092239841137  0.3326944954552289  0.5067400069348549  1.0000
  O   O4        1.0  0.37882510529298946  0.46924972348591626  0.606353743364515  1.0000
  O   O5        1.0  0.5050140605625161  0.3368177215921834  0.4729801156822899  1.0000
  O   O6        1.0  0.021566810127104888  0.5156323746282965  0.6126712257333579  1.0000
  O   O7        1.0  0.8191456428183416  0.6783254889994765  0.4930062009738945  1.0000
  O   O8        1.0  0.6127485480180895  0.5283843025238184  0.3928164874942367  1.0000
  O   O9        1.0  0.22175801345262156  0.5672366136544867  0.4681071174187393  1.0000
  O   O10       1.0  0.756427172589902  0.44598305275046357  0.5361466569024029  1.0000
