data_image0
_chemical_formula_structural       Al2H12C26Br4O10
_chemical_formula_sum              "Al2 H12 C26 Br4 O10"
_cell_length_a       6.583224837738958
_cell_length_b       11.227919555099549
_cell_length_c       15.189215606247476
_cell_angle_alpha    82.90732038552761
_cell_angle_beta     78.47234383539354
_cell_angle_gamma    71.32363523947495

_space_group_name_H-M_alt    "P 1"
_space_group_IT_number       1

loop_
  _space_group_symop_operation_xyz
  'x, y, z'

loop_
  _atom_site_type_symbol
  _atom_site_label
  _atom_site_symmetry_multiplicity
  _atom_site_fract_x
  _atom_site_fract_y
  _atom_site_fract_z
  _atom_site_occupancy
  Al  Al1       1.0  0.5074846701693262  0.49308719375895993  0.49906867451373677  1.0000
  Al  Al2       1.0  0.01083115077404542  0.48736255941652445  0.5005265058971988  1.0000
  H   H1        1.0  0.3204497991939803  0.34082444284366176  0.5590969176188665  1.0000
  H   H2        1.0  0.7225679284896672  0.636299759414854  0.4350700548327922  1.0000
  H   H3        1.0  0.8959132469038665  0.5665758460279092  0.7730506214814028  1.0000
  H   H4        1.0  0.7920581411022452  0.5794544902122284  0.9379877498334825  1.0000
  H   H5        1.0  0.13793138233378954  0.40873914380599524  0.22642738629634354  1.0000
  H   H6        1.0  0.222213891395036  0.41370970450484634  0.06051887395475571  1.0000
  H   H7        1.0  0.5813309346797343  0.617686140112397  0.2282734701956883  1.0000
  H   H8        1.0  0.6481624795109937  0.6369542989657333  0.062445893496359914  1.0000
  H   H9        1.0  0.3324991143774553  0.45689173735792116  0.7655044298134612  1.0000
  H   H10       1.0  0.2227009699600373  0.471110611555382  0.9301618003823153  1.0000
  H   H11       1.0  0.2372911232329499  0.22235418774094745  0.38513860636142994  1.0000
  H   H12       1.0  0.4335999958501375  0.7566453408229422  0.38256954147599503  1.0000
  C   C1        1.0  0.870075577061897  0.2653408827857717  0.4927967029528518  1.0000
  C   C2        1.0  0.6901099603156526  0.49453651254044195  0.660754457197271  1.0000
  C   C3        1.0  0.13963009656728068  0.7158421719934652  0.5053573161251635  1.0000
  C   C4        1.0  0.3159809079947495  0.5000111343230671  0.33775063322393356  1.0000
  C   C5        1.0  0.6225583471816447  0.5087548333443834  0.7592847617631053  1.0000
  C   C6        1.0  0.3570560286242639  0.5108009883035294  0.2378317055646448  1.0000
  C   C7        1.0  0.7490632402066808  0.5453865369869817  0.8085161446785564  1.0000
  C   C8        1.0  0.6884574089558769  0.5530985040448542  0.9011967660342466  1.0000
  C   C9        1.0  0.2520089137915775  0.4568843040402086  0.1894880010506697  1.0000
  C   C10       1.0  0.2980064223852423  0.4619554916171467  0.0960607791518342  1.0000
  C   C11       1.0  0.5014968259747261  0.5745310256961532  0.19073265813872103  1.0000
  C   C12       1.0  0.540781489781125  0.5832824975558213  0.097164034072037  1.0000
  C   C13       1.0  0.43153967476816746  0.4835354243735209  0.8044454662020544  1.0000
  C   C14       1.0  0.37185072188774615  0.4914423268969942  0.897054678217522  1.0000
  C   C15       1.0  0.5003649814866693  0.5244951158708417  0.9481042538998852  1.0000
  C   C16       1.0  0.4444106608689824  0.5245908009615974  0.0474527702379604  1.0000
  C   C17       1.0  0.9392092968967988  0.12388950978257172  0.4957112590513121  1.0000
  C   C18       1.0  0.1380128152151912  0.05748600161069819  0.44128944274545046  1.0000
  C   C19       1.0  0.8124568243275121  0.057598960245925895  0.5514067230619022  1.0000
  C   C20       1.0  0.278582763038159  0.12037899734626478  0.3861916725018233  1.0000
  C   C21       1.0  0.4719494712258125  0.05390333836284361  0.3358285158623319  1.0000
  C   C22       1.0  0.0647492371899574  0.857379172719142  0.5008418315354888  1.0000
  C   C23       1.0  0.8753905606248865  0.9237640084355332  0.554573283047816  1.0000
  C   C24       1.0  0.19848068104060693  0.9229462456232582  0.44270489940290525  1.0000
  C   C25       1.0  0.3915890780444826  0.8580393895610001  0.3860619311899073  1.0000
  C   C26       1.0  0.5281816219066542  0.9209003709249471  0.3351391705236679  1.0000
  Br  Br1       1.0  0.7076361151364665  0.8357245013519047  0.6363618908315943  1.0000
  Br  Br2       1.0  0.5617277205675252  0.1432041056040987  0.6321900615139314  1.0000
  Br  Br3       1.0  0.6576708209417603  0.14380084862850848  0.26889829437001117  1.0000
  Br  Br4       1.0  0.7910744076921434  0.8243311055009386  0.26675098033386746  1.0000
  O   O1        1.0  0.6850443608822799  0.32342307548333343  0.4718503207907221  1.0000
  O   O2        1.0  0.873184034657605  0.5089843022467591  0.6237390887311564  1.0000
  O   O3        1.0  0.01481664870367887  0.6607080161770539  0.4863277076410527  1.0000
  O   O4        1.0  0.4454961546744157  0.5287300982487794  0.37793808074803803  1.0000
  O   O5        1.0  0.32766552411708016  0.662346096652314  0.5251983167226941  1.0000
  O   O6        1.0  0.15256427991337065  0.4644294613712674  0.37669325925303815  1.0000
  O   O7        1.0  0.0025681562577374814  0.31573208417562887  0.5115082726302733  1.0000
  O   O8        1.0  0.5610872580400398  0.466529860506597  0.6202049227953879  1.0000
  O   O9        1.0  0.2765316916298488  0.4292657616020676  0.5381204700689041  1.0000
  O   O10       1.0  0.746233643261057  0.5503545389040312  0.4603747391478309  1.0000
