data_image0
_chemical_formula_structural       AlH9C27N7Cl3O6
_chemical_formula_sum              "Al1 H9 C27 N7 Cl3 O6"
_cell_length_a       3.944104976137541
_cell_length_b       18.239526824279743
_cell_length_c       18.163946563669086
_cell_angle_alpha    121.2410195390219
_cell_angle_beta     95.98681742766306
_cell_angle_gamma    95.60748216289906

_space_group_name_H-M_alt    "P 1"
_space_group_IT_number       1

loop_
  _space_group_symop_operation_xyz
  'x, y, z'

loop_
  _atom_site_type_symbol
  _atom_site_label
  _atom_site_symmetry_multiplicity
  _atom_site_fract_x
  _atom_site_fract_y
  _atom_site_fract_z
  _atom_site_occupancy
  Al  Al1       1.0  0.0017778418513714283  0.0002704193137220013  0.49452566899088185  1.0000
  H   H1        1.0  0.4635765889523213  0.31119279552947887  0.4161898386148338  1.0000
  H   H2        1.0  0.689103124281971  0.08578931695684841  0.8936362819787365  1.0000
  H   H3        1.0  0.5571780021930123  0.6055741026062692  0.19311190424001995  1.0000
  H   H4        1.0  0.5484740415328417  0.3206790501630508  0.9020383543432191  1.0000
  H   H5        1.0  0.7073425446928495  0.0121300274397953  0.7330391383955188  1.0000
  H   H6        1.0  0.5550997695752998  0.766254182165831  0.2766610195565422  1.0000
  H   H7        1.0  0.3227868549650382  0.5972129388443506  0.4149423658442047  1.0000
  H   H8        1.0  0.5326656291130902  0.07666968503805552  0.17631923131627764  1.0000
  H   H9        1.0  0.47166701749360135  0.2301668170222797  0.4933016464914673  1.0000
  C   C1        1.0  0.49667825526659465  0.06150314386895421  0.4257870016639346  1.0000
  C   C2        1.0  0.5915254437061178  0.07297839113143571  0.6296909026260877  1.0000
  C   C3        1.0  0.4250939752002266  0.8667890016242339  0.4331454647645858  1.0000
  C   C4        1.0  0.4777350764159322  0.2421169593740444  0.3812985919327262  1.0000
  C   C5        1.0  0.49716230831278097  0.1986590076735979  0.2918909939306431  1.0000
  C   C6        1.0  0.6616846852583648  0.12023757401368582  0.859762667030438  1.0000
  C   C7        1.0  0.6141192612490587  0.20732719354823104  0.9069536356739648  1.0000
  C   C8        1.0  0.43634738926253663  0.5918222781269263  0.29882945924429566  1.0000
  C   C9        1.0  0.4998033337018484  0.6392212553937144  0.259080998385045  1.0000
  C   C10       1.0  0.5787513567025399  0.2527587199589193  0.8644575882496641  1.0000
  C   C11       1.0  0.5791629585085404  0.21114001349407371  0.7751372736312306  1.0000
  C   C12       1.0  0.6228057599377762  0.12340179884873952  0.7268185400907613  1.0000
  C   C13       1.0  0.6710493973198054  0.0797066989922968  0.7709598169783548  1.0000
  C   C14       1.0  0.4959199447741583  0.7277865519990245  0.30522133166904575  1.0000
  C   C15       1.0  0.4165527206889835  0.7711084776629209  0.39001151092320924  1.0000
  C   C16       1.0  0.34868490813197894  0.7227491478645973  0.4288213492287342  1.0000
  C   C17       1.0  0.3640095133265718  0.6340404579582355  0.38393569815965384  1.0000
  C   C18       1.0  0.5151770814411664  0.10962274470649193  0.24540746553367407  1.0000
  C   C19       1.0  0.5103333138731685  0.0644826847847781  0.2879416883531008  1.0000
  C   C20       1.0  0.4950847967036935  0.10769554447362142  0.3775425961431084  1.0000
  C   C21       1.0  0.4812318347808073  0.196931970321792  0.42363751365110164  1.0000
  C   C22       1.0  0.4602733351707188  0.373708805660904  0.25323336751988995  1.0000
  C   C23       1.0  0.5658230875553868  0.24471526767307245  0.12202519653334322  1.0000
  C   C24       1.0  0.5024792170925211  0.24619038597941773  0.24669590785656947  1.0000
  C   C25       1.0  0.4558617722347408  0.4982338855087819  0.25132132967202386  1.0000
  C   C26       1.0  0.5318053921181517  0.37847792386580187  0.1239754587007696  1.0000
  C   C27       1.0  0.595813951174911  0.2524496374192395  0.0008834559447735078  1.0000
  N   N1        1.0  0.5194160886721945  0.3323070997490945  0.16644352334139975  1.0000
  N   N2        1.0  0.5647682068427573  0.20296264611002365  0.16416992708366257  1.0000
  N   N3        1.0  0.4448729746694084  0.3287660537606528  0.2920385093688297  1.0000
  N   N4        1.0  0.42014234022029484  0.4570126196682267  0.29447149666352607  1.0000
  N   N5        1.0  0.509071424136792  0.46264942828744193  0.1684103319243563  1.0000
  N   N6        1.0  0.6095900190066743  0.20570087459061173  0.03875172357476232  1.0000
  N   N7        1.0  0.5645975958179364  0.3369445586142633  0.04019371783472546  1.0000
  Cl  Cl1       1.0  0.5357410883686387  0.9550381875728818  0.22970999556606161  1.0000
  Cl  Cl2       1.0  0.26553268584153517  0.7708919405106087  0.5340888844990631  1.0000
  Cl  Cl3       1.0  0.5379966467818634  0.27192268058065855  0.7279435526406675  1.0000
  O   O1        1.0  0.21361332038354425  0.9036799838779004  0.4833016668365745  1.0000
  O   O2        1.0  0.22685794767182438  0.007472469714521399  0.4091135692276637  1.0000
  O   O3        1.0  0.3496402407309773  0.08534598569171693  0.5872800959645945  1.0000
  O   O4        1.0  0.6513814061089604  0.9061659791142845  0.4137725185711717  1.0000
  O   O5        1.0  0.7949057036265827  0.019319655421369906  0.5948571856886391  1.0000
  O   O6        1.0  0.7679150274784234  0.08181515051162343  0.48176002814561514  1.0000
