data_image0
_chemical_formula_structural       Zn4P8H40C32O16
_chemical_formula_sum              "Zn4 P8 H40 C32 O16"
_cell_length_a       7.28369594007985
_cell_length_b       10.461643167755836
_cell_length_c       15.86445887138972
_cell_angle_alpha    105.37413768747813
_cell_angle_beta     90.00052354055379
_cell_angle_gamma    89.99997157300352

_space_group_name_H-M_alt    "P 1"
_space_group_IT_number       1

loop_
  _space_group_symop_operation_xyz
  'x, y, z'

loop_
  _atom_site_type_symbol
  _atom_site_label
  _atom_site_symmetry_multiplicity
  _atom_site_fract_x
  _atom_site_fract_y
  _atom_site_fract_z
  _atom_site_occupancy
  Zn  Zn1       1.0  0.41297833112798804  0.621618554610926  0.4177646491383058  1.0000
  Zn  Zn2       1.0  0.9129787779925067  0.8783790765926085  0.5822327104500006  1.0000
  Zn  Zn3       1.0  0.5870235644630385  0.3783799079815324  0.5822340327864239  1.0000
  Zn  Zn4       1.0  0.0870189987978947  0.12161937978065397  0.4177647097053452  1.0000
  P   P1        1.0  0.09420444810421462  0.8082385019753957  0.39650595441258935  1.0000
  P   P2        1.0  0.5942068274244007  0.6917626557160474  0.6034957179875207  1.0000
  P   P3        1.0  0.9057892099281232  0.19175897859224733  0.6034944487927875  1.0000
  P   P4        1.0  0.40579369522514946  0.3082407542667625  0.3965019280004682  1.0000
  P   P5        1.0  0.7821647459634634  0.9388266878716394  0.3133328774336732  1.0000
  P   P6        1.0  0.2821738090939334  0.5611737239524287  0.6866637827643629  1.0000
  P   P7        1.0  0.2178289120263202  0.06117176228242731  0.6866632809522882  1.0000
  P   P8        1.0  0.7178294594568938  0.4388287164459542  0.3133381080491588  1.0000
  H   H1        1.0  0.0208665675799296  0.7932005897489418  0.24650099510667187  1.0000
  H   H2        1.0  0.520867799823101  0.7068004488176312  0.7534978271742148  1.0000
  H   H3        1.0  0.9791380738612931  0.2068008406587012  0.7534969390879453  1.0000
  H   H4        1.0  0.4791327228251133  0.29320196982205  0.2464996474724472  1.0000
  H   H5        1.0  0.8523007449383401  0.7105231066706849  0.2951274932171017  1.0000
  H   H6        1.0  0.35230039226546234  0.7894774133962768  0.7048707410574622  1.0000
  H   H7        1.0  0.14770115063520708  0.28947633794060573  0.7048694674086349  1.0000
  H   H8        1.0  0.6476987574681843  0.2105220405373132  0.2951281122024767  1.0000
  H   H9        1.0  0.54429581773271  0.8402966439165668  0.3794814749053756  1.0000
  H   H10       1.0  0.0442993745542353  0.6597034342852339  0.620516649496949  1.0000
  H   H11       1.0  0.4557074508131862  0.15970678471684607  0.620519956369364  1.0000
  H   H12       1.0  0.9557038939925704  0.3402960320837565  0.379484727292585  1.0000
  H   H13       1.0  0.5046652391046749  0.012172523790994197  0.3892180503858995  1.0000
  H   H14       1.0  0.004666988910187801  0.4878276292881905  0.6107792349339648  1.0000
  H   H15       1.0  0.49533940235401996  0.9878279245978304  0.6107816051077037  1.0000
  H   H16       1.0  0.9953321608449529  0.5121738166559665  0.389221853648948  1.0000
  H   H17       1.0  0.6717112563599912  0.9649944007645105  0.45744547646523864  1.0000
  H   H18       1.0  0.17171060843840993  0.535003877003291  0.5425522417853016  1.0000
  H   H19       1.0  0.3282933850861625  0.035006041408109895  0.5425529172681536  1.0000
  H   H20       1.0  0.8282885413229976  0.4649975720489719  0.45744947767771993  1.0000
  H   H21       1.0  0.46739387829625656  0.7703056432271751  0.23405978065986946  1.0000
  H   H22       1.0  0.967411816356531  0.7297010172136636  0.765945041289534  1.0000
  H   H23       1.0  0.5325956609936783  0.22969780404486068  0.7659454358649285  1.0000
  H   H24       1.0  0.0326120462121438  0.27031235905514706  0.23406504312549  1.0000
  H   H25       1.0  0.3400998861154036  0.7157634651064697  0.08382216494849361  1.0000
  H   H26       1.0  0.8401317550334539  0.7842350918451331  0.9161832429422319  1.0000
  H   H27       1.0  0.65987592389439  0.28423602610736504  0.9161842588207421  1.0000
  H   H28       1.0  0.15990720976309797  0.21577729619963296  0.0838273010451971  1.0000
  H   H29       1.0  0.4715364639183974  0.8166419095878512  0.9722633349836869  1.0000
  H   H30       1.0  0.9715685886670613  0.6833459120461498  0.02773635731998782  1.0000
  H   H31       1.0  0.5284352272513715  0.1833516118074954  0.0277376445676794  1.0000
  H   H32       1.0  0.0284566468019136  0.3166506082823446  0.972270183415425  1.0000
  H   H33       1.0  0.7306521725187238  0.978100422116405  0.01205640756526795  1.0000
  H   H34       1.0  0.23067961148845484  0.5218830681637597  0.9879383722299198  1.0000
  H   H35       1.0  0.26932363738762183  0.021892083074000396  0.9879393536131005  1.0000
  H   H36       1.0  0.7693332675200181  0.4781025069760003  0.0120580822820173  1.0000
  H   H37       1.0  0.8615628282885056  0.03212819116042451  0.162397951440731  1.0000
  H   H38       1.0  0.3615828321408969  0.46786154839772826  0.8375933606195289  1.0000
  H   H39       1.0  0.13842121916398037  0.967865289838599  0.8375948266967798  1.0000
  H   H40       1.0  0.6384245551277418  0.532125996991894  0.16240091304241128  1.0000
  C   C1        1.0  0.936707135869362  0.8005872158500366  0.3051710667974987  1.0000
  C   C2        1.0  0.4367093953500215  0.6994154065910295  0.6948272551731876  1.0000
  C   C3        1.0  0.0632920138468123  0.1994132201023859  0.6948260651634612  1.0000
  C   C4        1.0  0.563291127304467  0.3005870151567506  0.30517085035358343  1.0000
  C   C5        1.0  0.6090432567428862  0.9380174918234088  0.3921784027548867  1.0000
  C   C6        1.0  0.10904525977105813  0.5619826743553487  0.6078187482241262  1.0000
  C   C7        1.0  0.3909600117815231  0.06198394479944368  0.6078207931968791  1.0000
  C   C8        1.0  0.890955262923299  0.4380167951197506  0.392183259439399  1.0000
  C   C9        1.0  0.6750889413117774  0.9034660605138998  0.20703052399188954  1.0000
  C   C10       1.0  0.17510558401201587  0.5965292481509294  0.7929666953150445  1.0000
  C   C11       1.0  0.32490059792085196  0.09652745157013241  0.7929685629589045  1.0000
  C   C12       1.0  0.8249031762311674  0.4034731798190449  0.20703267199027658  1.0000
  C   C13       1.0  0.5271199244107265  0.8149198793196105  0.18543339401672648  1.0000
  C   C14       1.0  0.0271396775421096  0.6850801801227675  0.8145659156923061  1.0000
  C   C15       1.0  0.4728654960620275  0.18508058148763237  0.8145687849544956  1.0000
  C   C16       1.0  0.9728814391387459  0.3149302096822524  0.18544113117219752  1.0000
  C   C17       1.0  0.4551240526584408  0.7842882630760571  0.10091430049822493  1.0000
  C   C18       1.0  0.9551542589573856  0.7157124190324353  0.8990869152687821  1.0000
  C   C19       1.0  0.5448503843982523  0.21571220704750263  0.8990897710888603  1.0000
  C   C20       1.0  0.0448792140903791  0.2842999534678298  0.10092047430588737  1.0000
  C   C21       1.0  0.5288606978882839  0.841546010504402  0.03817002794243512  1.0000
  C   C22       1.0  0.028879279965764195  0.6584451231652153  0.9618264856840356  1.0000
  C   C23       1.0  0.4711247225513446  0.1584484898116543  0.9618285994604037  1.0000
  C   C24       1.0  0.9711363449555749  0.34155732035025466  0.03817603603709329  1.0000
  C   C25       1.0  0.6746083193287761  0.9312464524102921  0.06023643961970751  1.0000
  C   C26       1.0  0.17463751180238057  0.5687448901919367  0.9397600922095036  1.0000
  C   C27       1.0  0.32536474475824667  0.06875201637739539  0.9397635040010357  1.0000
  C   C28       1.0  0.8253808589369315  0.431250598383123  0.0602380757279306  1.0000
  C   C29       1.0  0.7482970093811545  0.9619456332327158  0.14439594241843418  1.0000
  C   C30       1.0  0.2483149403673792  0.5380438245527371  0.8555986822212489  1.0000
  C   C31       1.0  0.2516897839788754  0.0380468812899792  0.8556017114247041  1.0000
  C   C32       1.0  0.7516965656987155  0.46195066024179  0.14439679083915283  1.0000
  O   O1        1.0  0.24072721813458037  0.7044143779531707  0.3554664202227542  1.0000
  O   O2        1.0  0.7407262186058291  0.7955919340716304  0.6445336069871387  1.0000
  O   O3        1.0  0.7592719315968209  0.29558804690171303  0.6445323161810634  1.0000
  O   O4        1.0  0.25927293112422944  0.20440949944012488  0.35546495807535194  1.0000
  O   O5        1.0  0.17450594993442084  0.9485735073795568  0.42546931412744743  1.0000
  O   O6        1.0  0.6745147208794294  0.5514297715817733  0.5745374747377028  1.0000
  O   O7        1.0  0.8254890810474363  0.0514249738565198  0.5745331530626318  1.0000
  O   O8        1.0  0.32548031005134687  0.4485726470539149  0.4254599998967379  1.0000
  O   O9        1.0  0.9850441244196375  0.7689481564204002  0.4687096608559642  1.0000
  O   O10       1.0  0.48504860057477833  0.731048597608236  0.531289740971566  1.0000
  O   O11       1.0  0.014949533606433401  0.23104932103913708  0.5312901114693105  1.0000
  O   O12       1.0  0.514946430371225  0.26895580992991347  0.46870933810573234  1.0000
  O   O13       1.0  0.8837304174320479  0.0713321211310785  0.3292627284312744  1.0000
  O   O14       1.0  0.3837361486202795  0.42866857098093897  0.6707337214714572  1.0000
  O   O15       1.0  0.1162701051919939  0.9286663228117791  0.6707321682097671  1.0000
  O   O16       1.0  0.616268492828553  0.5713338538779381  0.329265014944589  1.0000
