data_image0
_chemical_formula_structural       Tl4H36C36O16
_chemical_formula_sum              "Tl4 H36 C36 O16"
_cell_length_a       9.677699632302456
_cell_length_b       10.755535896784325
_cell_length_c       10.905918874981735
_cell_angle_alpha    109.26155340925756
_cell_angle_beta     116.36573029713699
_cell_angle_gamma    89.99093416272316

_space_group_name_H-M_alt    "P 1"
_space_group_IT_number       1

loop_
  _space_group_symop_operation_xyz
  'x, y, z'

loop_
  _atom_site_type_symbol
  _atom_site_label
  _atom_site_symmetry_multiplicity
  _atom_site_fract_x
  _atom_site_fract_y
  _atom_site_fract_z
  _atom_site_occupancy
  Tl  Tl1       1.0  0.7182744345426075  0.03973851277402931  0.9920124917895097  1.0000
  Tl  Tl2       1.0  0.27364670344300623  0.5396648648417396  0.991910146276169  1.0000
  Tl  Tl3       1.0  0.2817257280365055  0.9602614173729265  0.007985962425316153  1.0000
  Tl  Tl4       1.0  0.7263534668217346  0.4603350759275316  0.008091065202314849  1.0000
  H   H1        1.0  0.7347544880345112  0.5384040490663722  0.3507300575713616  1.0000
  H   H2        1.0  0.6159452992682334  0.03834133342976289  0.35081495501754756  1.0000
  H   H3        1.0  0.26524588535492905  0.46159689520165864  0.6492724741082229  1.0000
  H   H4        1.0  0.38405486843463166  0.9616586037987387  0.6491853373730552  1.0000
  H   H5        1.0  0.34035328011520244  0.6527099855322192  0.4234979348708523  1.0000
  H   H6        1.0  0.0831373331639753  0.1527809725398512  0.4236572037704037  1.0000
  H   H7        1.0  0.6596443772213334  0.34728894469542837  0.576500129874198  1.0000
  H   H8        1.0  0.9168620820437212  0.8472209628535765  0.5763434371243934  1.0000
  H   H9        1.0  0.32148529563031053  0.24724757576539247  0.15729091328741882  1.0000
  H   H10       1.0  0.8358823124005355  0.7472566963610061  0.15753187807545302  1.0000
  H   H11       1.0  0.6785167781885447  0.7527503650492162  0.842709484321212  1.0000
  H   H12       1.0  0.16411805074139352  0.2527442337439396  0.8424669772525849  1.0000
  H   H13       1.0  0.46200863477012183  0.8537010801194357  0.44122831981583505  1.0000
  H   H14       1.0  0.9789732010818355  0.3537467013645852  0.4412618528501613  1.0000
  H   H15       1.0  0.5379915329327504  0.1462988571090591  0.5587719725747677  1.0000
  H   H16       1.0  0.02102736774667587  0.6462552357798897  0.5587392417668654  1.0000
  H   H17       1.0  0.6544633527767518  0.9317703998309456  0.589976618965608  1.0000
  H   H18       1.0  0.935265330799382  0.4317762163387612  0.5899495533138792  1.0000
  H   H19       1.0  0.3455354607424752  0.06822853568851882  0.4100228185895532  1.0000
  H   H20       1.0  0.06473388384549138  0.5682247190966763  0.41005068646770587  1.0000
  H   H21       1.0  0.5323291348168269  0.8209719434180938  0.6090672109241951  1.0000
  H   H22       1.0  0.0766723190113154  0.3210980555092817  0.6091605660170603  1.0000
  H   H23       1.0  0.4676698818270993  0.1790279956001299  0.39093354683206644  1.0000
  H   H24       1.0  0.9233270987582501  0.6789038834249155  0.3908409939656182  1.0000
  H   H25       1.0  0.07091280530217149  0.23876180694649918  0.09519815945655102  1.0000
  H   H26       1.0  0.024237019074575962  0.7389735604514625  0.09529967688941099  1.0000
  H   H27       1.0  0.9290867581503549  0.7612351268672554  0.9048000105065274  1.0000
  H   H28       1.0  0.9757633466292364  0.2610273731942526  0.904700097526515  1.0000
  H   H29       1.0  0.982631216845256  0.28833712274282414  0.21407787440456638  1.0000
  H   H30       1.0  0.2314815831844825  0.7884921641765104  0.21420261295615728  1.0000
  H   H31       1.0  0.017369703352784347  0.7116608163207444  0.7859220694818349  1.0000
  H   H32       1.0  0.7685176288985149  0.2115087677181576  0.7857967077375395  1.0000
  H   H33       1.0  0.1671813175199048  0.2305103837413894  0.27510670426617884  1.0000
  H   H34       1.0  0.10800718451731937  0.730510098474653  0.27511947876586623  1.0000
  H   H35       1.0  0.8328196026781357  0.769487555322172  0.7248932396202294  1.0000
  H   H36       1.0  0.891992027565678  0.2694908334200221  0.7248798419278305  1.0000
  C   C1        1.0  0.5354904461739808  0.3828837142796929  0.24832724484696217  1.0000
  C   C2        1.0  0.7128439520283649  0.8828576727763461  0.24848712102348014  1.0000
  C   C3        1.0  0.4645095209660681  0.6171152229908115  0.7516726464304287  1.0000
  C   C4        1.0  0.2871566142382704  0.11714426082736647  0.7515130545056511  1.0000
  C   C5        1.0  0.6173706219389887  0.512623268169257  0.3335046032992325  1.0000
  C   C6        1.0  0.7160967758689836  0.012598085711573502  0.3335917499376679  1.0000
  C   C7        1.0  0.38262934520106023  0.48737566910125435  0.6664952879781512  1.0000
  C   C8        1.0  0.2839035923967045  0.9874028514749181  0.6664089435661396  1.0000
  C   C9        1.0  0.5472648569422702  0.6110878220195203  0.3952718951572579  1.0000
  C   C10       1.0  0.8479636988788074  0.11109408360131573  0.39534651107454283  1.0000
  C   C11       1.0  0.4527339565769638  0.3889111134999439  0.6047275423979034  1.0000
  C   C12       1.0  0.15203531520324276  0.8889058518761316  0.6046533275938304  1.0000
  C   C13       1.0  0.39581413681721495  0.579595040775523  0.37312420500379795  1.0000
  C   C14       1.0  0.9772892322881362  0.079642224087678  0.37325914993417114  1.0000
  C   C15       1.0  0.6041858277609508  0.42040389295421926  0.6268747671857045  1.0000
  C   C16       1.0  0.022712289598366873  0.9203587148498542  0.6267419972918662  1.0000
  C   C17       1.0  0.3152465795056898  0.4473473707150715  0.28843705405751063  1.0000
  C   C18       1.0  0.9732115552140641  0.9473886885556267  0.2886424873686409  1.0000
  C   C19       1.0  0.6847533876343519  0.5526515665554327  0.711562837219873  1.0000
  C   C20       1.0  0.026787258305162705  0.0526102469638374  0.7113569501865203  1.0000
  C   C21       1.0  0.3831951336485703  0.3491108653597692  0.22522285645156614  1.0000
  C   C22       1.0  0.8420542080144814  0.8491137143368164  0.22542949650896588  1.0000
  C   C23       1.0  0.6168059845504177  0.6508880701210131  0.7747765694601657  1.0000
  C   C24       1.0  0.15794751443484503  0.15088822455870607  0.7745720518302834  1.0000
  C   C25       1.0  0.6088016207937842  0.2790604482162848  0.17716715879774386  1.0000
  C   C26       1.0  0.5683379878188219  0.7790227692634771  0.17730863215248865  1.0000
  C   C27       1.0  0.3911997005298958  0.720939490763257  0.8228335873150815  1.0000
  C   C28       1.0  0.43166217988404304  0.22097716796502448  0.8226916602381141  1.0000
  C   C29       1.0  0.5654069520854889  0.8414450697767744  0.532251064435016  1.0000
  C   C30       1.0  0.9666788069751818  0.34149235750293633  0.5322793686523186  1.0000
  C   C31       1.0  0.4345930150545597  0.15855386749372968  0.4677488268423746  1.0000
  C   C32       1.0  0.03332136328956636  0.6585075832663349  0.4677218428261727  1.0000
  C   C33       1.0  0.09378759880355149  0.28664829725286717  0.2101582358903259  1.0000
  C   C34       1.0  0.11640042152914273  0.7867664566430007  0.21027814417880109  1.0000
  C   C35       1.0  0.9062121677736742  0.713349640059654  0.7898412542738531  1.0000
  C   C36       1.0  0.8835989911166707  0.2132354752096575  0.7897215776281076  1.0000
  O   O1        1.0  0.5374292747994147  0.15804390697698517  0.1116490137283037  1.0000
  O   O2        1.0  0.5742177568103487  0.6579966669803595  0.11184654110634552  1.0000
  O   O3        1.0  0.46257204652426503  0.8419560320025636  0.8883517323845215  1.0000
  O   O4        1.0  0.4257835670752073  0.34200327553995885  0.8881551240943683  1.0000
  O   O5        1.0  0.7382566948311577  0.31634386482190274  0.18425851278374944  1.0000
  O   O6        1.0  0.445941602660973  0.8163032694334477  0.18433656247673025  1.0000
  O   O7        1.0  0.26174578267522014  0.683656079449463  0.8157436061391865  1.0000
  O   O8        1.0  0.5540574088592012  0.1836966625032375  0.8156623571037616  1.0000
  O   O9        1.0  0.6367628130268129  0.7357667544623323  0.4763829954406591  1.0000
  O   O10       1.0  0.8395007246928544  0.23575456453803412  0.47640117216830213  1.0000
  O   O11       1.0  0.36323600049241384  0.2642321810571318  0.5236164421145022  1.0000
  O   O12       1.0  0.16049848995201182  0.7642463708974032  0.523599067613283  1.0000
  O   O13       1.0  0.1673079229610579  0.42371152188689354  0.2718401488865825  1.0000
  O   O14       1.0  0.10459052038747525  0.9238020698131989  0.27210875829372594  1.0000
  O   O15       1.0  0.8326918410542916  0.5762864118848583  0.7281584221897079  1.0000
  O   O16       1.0  0.8954086916955221  0.07619886208147619  0.727890562399978  1.0000
