data_image0
_chemical_formula_structural       Zr6H30C52O34
_chemical_formula_sum              "Zr6 H30 C52 O34"
_cell_length_a       14.757890163888955
_cell_length_b       14.734918159653354
_cell_length_c       14.75528931085961
_cell_angle_alpha    60.155726109326814
_cell_angle_beta     60.01599235507678
_cell_angle_gamma    60.03063154548103

_space_group_name_H-M_alt    "P 1"
_space_group_IT_number       1

loop_
  _space_group_symop_operation_xyz
  'x, y, z'

loop_
  _atom_site_type_symbol
  _atom_site_label
  _atom_site_symmetry_multiplicity
  _atom_site_fract_x
  _atom_site_fract_y
  _atom_site_fract_z
  _atom_site_occupancy
  Zr  Zr1       1.0  0.8759973819413958  0.8823220412930581  0.6226599708470388  1.0000
  Zr  Zr2       1.0  0.11450406146224164  0.1234560777848657  0.383463745872966  1.0000
  Zr  Zr3       1.0  0.11498967284318731  0.8833196757572492  0.6230497022173296  1.0000
  Zr  Zr4       1.0  0.875670770263028  0.1219542711535766  0.38363710586929756  1.0000
  Zr  Zr5       1.0  0.11638142207567632  0.8826432402316443  0.38354825159721884  1.0000
  Zr  Zr6       1.0  0.8748715919196782  0.12306116376464614  0.623251148624327  1.0000
  H   H1        1.0  0.09227945383666042  0.7196221877425587  0.5940586231291007  1.0000
  H   H2        1.0  0.09211213685041737  0.0945783324972638  0.2204351843872061  1.0000
  H   H3        1.0  0.08824483444220019  0.09901462143989911  0.5979503181567979  1.0000
  H   H4        1.0  0.7123345841951974  0.09702018451908859  0.5981195919444318  1.0000
  H   H5        1.0  0.15387902103849876  0.39749718409461815  0.3835660063723978  1.0000
  H   H6        1.0  0.8081722765343785  0.6455781318078452  0.5775703015014598  1.0000
  H   H7        1.0  0.15443069396476972  0.5684740828525392  0.3822157706888305  1.0000
  H   H8        1.0  0.8073765525243106  0.47486504002422697  0.5787350255630628  1.0000
  H   H9        1.0  0.41736143851238694  0.14186856508813875  0.0953700285903452  1.0000
  H   H10       1.0  0.5982716648320477  0.8397500848777071  0.935488941367396  1.0000
  H   H11       1.0  0.5878292104849477  0.1414000983755202  0.9247748971336449  1.0000
  H   H12       1.0  0.42754909199273783  0.8405025526776201  0.10581188633381076  1.0000
  H   H13       1.0  0.8086341017827575  0.07950765687473198  0.9738374892270727  1.0000
  H   H14       1.0  0.15637686941452245  0.8830930097354753  0.06647265615932696  1.0000
  H   H15       1.0  0.809896790297316  0.07833391260297153  0.144582343650839  1.0000
  H   H16       1.0  0.15479113182357193  0.8839318596253424  0.8962053637325837  1.0000
  H   H17       1.0  0.4270055801729313  0.604499504137273  0.341936807980062  1.0000
  H   H18       1.0  0.5883335928527273  0.42494769467759136  0.641300395331335  1.0000
  H   H19       1.0  0.5976324773455344  0.43384237361168954  0.3414498023334076  1.0000
  H   H20       1.0  0.4180180326518087  0.5958660522361116  0.6414956726544859  1.0000
  H   H21       1.0  0.988049486178248  0.5717446494660127  0.7341025262615234  1.0000
  H   H22       1.0  0.9749034524143383  0.238800506620052  0.07615631515841399  1.0000
  H   H23       1.0  0.03140653695701451  0.48428609827346497  0.1546176080353945  1.0000
  H   H24       1.0  0.03187188403786254  0.6540275264171739  0.985090732528086  1.0000
  H   H25       1.0  0.41999047515091126  0.8474996921595377  0.6378263516302313  1.0000
  H   H26       1.0  0.589470949497624  0.13953757364954822  0.3491988108938174  1.0000
  H   H27       1.0  0.5906072258583139  0.847418024011816  0.638060483050019  1.0000
  H   H28       1.0  0.4189021855302215  0.1395708755148631  0.3489292663442853  1.0000
  H   H29       1.0  0.9871174821087652  0.3305181425107973  0.7365060144524379  1.0000
  H   H30       1.0  0.9688193178518321  0.1659707920809764  0.9657628328991168  1.0000
  C   C1        1.0  0.9883204552434535  0.7076341970909256  0.49162705076370344  1.0000
  C   C2        1.0  0.30634151919242225  0.9968559579408305  0.20512867860098546  1.0000
  C   C3        1.0  0.986609461696986  0.3166645883593375  0.4939312308091175  1.0000
  C   C4        1.0  0.697656838477343  0.9959953934954983  0.8139379621082411  1.0000
  C   C5        1.0  0.9964682854889801  0.6977600363543816  0.8063949055976778  1.0000
  C   C6        1.0  0.6958036525035  0.9978165565162771  0.49838042131005994  1.0000
  C   C7        1.0  0.9944238880584562  0.30659104714612806  0.1984875182668161  1.0000
  C   C8        1.0  0.30387189697066946  0.9988718987049411  0.498544643011158  1.0000
  C   C9        1.0  0.3067327136854416  0.7049494489169633  0.4969978403697866  1.0000
  C   C10       1.0  0.9872505251586217  0.9939468342554818  0.8160565443383162  1.0000
  C   C11       1.0  0.6973143999423427  0.3131635980792211  0.4970009829286682  1.0000
  C   C12       1.0  0.9897177631746886  0.9920330325487684  0.20686054699439876  1.0000
  C   C13       1.0  0.9814144931655306  0.4250376141700086  0.4837183596691972  1.0000
  C   C14       1.0  0.9820855510545884  0.6150152166430587  0.4819279882040988  1.0000
  C   C15       1.0  0.07866057744548997  0.4528329492349386  0.4251574969684527  1.0000
  C   C16       1.0  0.8832399461334008  0.5909286180125052  0.5349589214769991  1.0000
  C   C17       1.0  0.0789391011923186  0.5473470920975457  0.4242735521351336  1.0000
  C   C18       1.0  0.8828806021631975  0.4961990828003025  0.5358764261416624  1.0000
  C   C19       1.0  0.4120114559330972  0.9922243509284526  0.10882999882222301  1.0000
  C   C20       1.0  0.6013446540962234  0.9915947647530602  0.9196398470481244  1.0000
  C   C21       1.0  0.45787293718797173  0.07620389605774855  0.05962679332118628  1.0000
  C   C22       1.0  0.5577812518784953  0.9054507332541776  0.9711950691702004  1.0000
  C   C23       1.0  0.5520660423128942  0.07586900796785315  0.9654483529962834  1.0000
  C   C24       1.0  0.46348622813477647  0.9058719915595717  0.06533187825535677  1.0000
  C   C25       1.0  0.9825341529883218  0.9841463411408141  0.9241200860839243  1.0000
  C   C26       1.0  0.9842572728206422  0.9833295467957868  0.11303582392081778  1.0000
  C   C27       1.0  0.8841645534136615  0.03666225534058038  0.9950256168102599  1.0000
  C   C28       1.0  0.08087260779353055  0.9254082798620403  0.04537926194367268  1.0000
  C   C29       1.0  0.8849326414413669  0.03640175125633504  0.0893037749264991  1.0000
  C   C30       1.0  0.07991202662986319  0.9258352388556191  0.9514821174784417  1.0000
  C   C31       1.0  0.4121895526404487  0.6084505312429869  0.492650453960202  1.0000
  C   C32       1.0  0.6011783818172846  0.4189526826731367  0.492439757790379  1.0000
  C   C33       1.0  0.46325739365609314  0.5643530678637279  0.4068881928681449  1.0000
  C   C34       1.0  0.5522991904315548  0.4653061619451153  0.5761322961008091  1.0000
  C   C35       1.0  0.5574240831651738  0.4700422144164521  0.40667558490167727  1.0000
  C   C36       1.0  0.4582405234193346  0.5596667753114275  0.576270174555674  1.0000
  C   C37       1.0  0.0015524530095591652  0.5922149336075649  0.9022858483213413  1.0000
  C   C38       1.0  0.9903804247870271  0.500735524043762  0.9033620857934253  1.0000
  C   C39       1.0  0.018923204012736446  0.5847029053873883  0.990313395802069  1.0000
  C   C40       1.0  0.9891875694088343  0.49915187148692314  0.8085418810127294  1.0000
  C   C41       1.0  0.9890827059463233  0.4057660212323099  0.8088159526588542  1.0000
  C   C42       1.0  0.999206274306424  0.4026189838733103  0.09317297229495841  1.0000
  C   C43       1.0  0.018342673898615772  0.48992677975113713  0.08524432265107859  1.0000
  C   C44       1.0  0.987721169792394  0.4040880679815901  0.0018230581510111084  1.0000
  C   C45       1.0  0.9817607343236576  0.31088838891867704  0.001286485574176754  1.0000
  C   C46       1.0  0.9843064730895607  0.31117567070813823  0.9067427356090362  1.0000
  C   C47       1.0  0.40910418425907835  0.9946124696166836  0.494422856039449  1.0000
  C   C48       1.0  0.5985250299618201  0.9942364507766399  0.49444800466649497  1.0000
  C   C49       1.0  0.45795575790425175  0.9108965825927414  0.575189391974817  1.0000
  C   C50       1.0  0.5516518954122631  0.07598421495076478  0.4117062229515512  1.0000
  C   C51       1.0  0.5522140980228941  0.9107500538288916  0.5752274243630778  1.0000
  C   C52       1.0  0.4574036451490571  0.0761367404304282  0.41165044220187513  1.0000
  O   O1        1.0  0.9133652827150485  0.7437789264175624  0.571714836825919  1.0000
  O   O2        1.0  0.2637598262979282  0.07654274477214779  0.24227033610597465  1.0000
  O   O3        1.0  0.06770445653928907  0.27155298010897166  0.422080610476577  1.0000
  O   O4        1.0  0.7355856674188461  0.9207605885341791  0.7723638408567836  1.0000
  O   O5        1.0  0.06991112055344222  0.7407904882582341  0.7703268981316569  1.0000
  O   O6        1.0  0.7336577901156643  0.07653995244248071  0.4232222449984421  1.0000
  O   O7        1.0  0.9172093165809232  0.26659956670769724  0.23914352598024632  1.0000
  O   O8        1.0  0.26199699744312  0.9243662557321316  0.5779431732558821  1.0000
  O   O9        1.0  0.2648493339996494  0.7415265240424488  0.42255740981759254  1.0000
  O   O10       1.0  0.9124856783953135  0.07444988395602814  0.7755083696383239  1.0000
  O   O11       1.0  0.7333960782556731  0.27063815575211697  0.5772149917318998  1.0000
  O   O12       1.0  0.0715662350941456  0.9211339764850452  0.2408313748919753  1.0000
  O   O13       1.0  0.06860617215041735  0.922096373935986  0.7713804617171577  1.0000
  O   O14       1.0  0.7350626553897114  0.2712812738324645  0.4220871567120169  1.0000
  O   O15       1.0  0.9141002031955238  0.07204036735193844  0.24274225853930173  1.0000
  O   O16       1.0  0.2643659681511325  0.7425440322362673  0.576232838154077  1.0000
  O   O17       1.0  0.9189213489995611  0.7382979439720787  0.767048503796488  1.0000
  O   O18       1.0  0.26216297158379126  0.07803140353112778  0.4239409077420859  1.0000
  O   O19       1.0  0.06808748059794575  0.27065158651354443  0.24102871489711225  1.0000
  O   O20       1.0  0.7327074645178018  0.9233628829717447  0.5776762007439726  1.0000
  O   O21       1.0  0.7336134308278944  0.07646948145168161  0.7713109829411877  1.0000
  O   O22       1.0  0.07071711143825646  0.7416345662050857  0.4213328601674108  1.0000
  O   O23       1.0  0.2645746575180042  0.9221411178212692  0.24187848295635217  1.0000
  O   O24       1.0  0.9126122322200205  0.2749017337492816  0.5751057032711131  1.0000
  O   O25       1.0  0.7928325979272159  0.07007023592329652  0.5710373947421489  1.0000
  O   O26       1.0  0.061145184400764614  0.07172891838889951  0.5717765029342701  1.0000
  O   O27       1.0  0.06332534103974302  0.06927570509315471  0.300789986639721  1.0000
  O   O28       1.0  0.06378242118400143  0.8000851124974987  0.5696031195052598  1.0000
  O   O29       1.0  0.14472866602210396  0.9536627371605277  0.4537201516841449  1.0000
  O   O30       1.0  0.9461203480529364  0.952659418717346  0.45320516923950277  1.0000
  O   O31       1.0  0.9452026982691493  0.1517439462254232  0.4538312644654069  1.0000
  O   O32       1.0  0.945645486235783  0.9533767658219149  0.65175745719511  1.0000
  O   O33       1.0  0.9928998311999634  0.40197871029946697  0.7166014889398156  1.0000
  O   O34       1.0  0.9831694580145796  0.22539793869425062  0.8948370338509691  1.0000
