data_image0
_chemical_formula_structural       Zn4H52C40N4O40
_chemical_formula_sum              "Zn4 H52 C40 N4 O40"
_cell_length_a       9.869372373
_cell_length_b       9.962755962463806
_cell_length_c       13.3621
_cell_angle_alpha    98.02918008510284
_cell_angle_beta     90.0
_cell_angle_gamma    90.0

_space_group_name_H-M_alt    "P 1"
_space_group_IT_number       1

loop_
  _space_group_symop_operation_xyz
  'x, y, z'

loop_
  _atom_site_type_symbol
  _atom_site_label
  _atom_site_symmetry_multiplicity
  _atom_site_fract_x
  _atom_site_fract_y
  _atom_site_fract_z
  _atom_site_occupancy
  Zn  Zn1       1.0  0.25520366491495144  0.2222554105380112  0.8273620468454227  1.0000
  Zn  Zn2       1.0  0.7552030380767151  0.2777450114550248  0.1726376977481436  1.0000
  Zn  Zn3       1.0  0.744797107879883  0.7777444197727377  0.1726380851596687  1.0000
  Zn  Zn4       1.0  0.2447967214824658  0.7222558325310473  0.8273625398243496  1.0000
  H   H1        1.0  0.1234860692189628  0.12007288316659981  0.6773291669852739  1.0000
  H   H2        1.0  0.6234844291450656  0.379926525151113  0.32266897527017596  1.0000
  H   H3        1.0  0.8765167300471859  0.8799269471441491  0.3226694682490958  1.0000
  H   H4        1.0  0.37651533041411517  0.6200743188349591  0.6773305139169565  1.0000
  H   H5        1.0  0.1441104810160994  0.9897880650956807  0.7319853434206678  1.0000
  H   H6        1.0  0.6441118806491701  0.5102121872081042  0.2680137847926289  1.0000
  H   H7        1.0  0.8558892785430815  0.0102117652150682  0.2680140401990627  1.0000
  H   H8        1.0  0.3558899053813249  0.4897896704532911  0.7319865583472662  1.0000
  H   H9        1.0  0.0972493451180085  0.4429659798820822  0.8403798096524113  1.0000
  H   H10       1.0  0.5972487182797651  0.057035455786277105  0.15962078889391762  1.0000
  H   H11       1.0  0.9027514276768258  0.5570338504286667  0.15962032235268  1.0000
  H   H12       1.0  0.4027510412794086  0.9429664018751184  0.8403810510166922  1.0000
  H   H13       1.0  0.017203728219286105  0.3252803021037565  0.8888783170728518  1.0000
  H   H14       1.0  0.5172020881453889  0.1747191062139564  0.11112057356795192  1.0000
  H   H15       1.0  0.9827960313398947  0.6747185145316692  0.1111202125941162  1.0000
  H   H16       1.0  0.48279665817813117  0.8252807240967998  0.8888788100517786  1.0000
  H   H17       1.0  0.36346586838830325  0.4566647882120805  0.9210881472719026  1.0000
  H   H18       1.0  0.8634622018430989  0.0433366474562789  0.07891020611835131  1.0000
  H   H19       1.0  0.6365349044065312  0.5433360557739917  0.07891134191523008  1.0000
  H   H20       1.0  0.1365335047734533  0.9566641965297933  0.9210885346834203  1.0000
  H   H21       1.0  0.4028665501443029  0.3234496044684221  0.9689729468413901  1.0000
  H   H22       1.0  0.9028638968347523  0.1765518311999443  0.031025406548863505  1.0000
  H   H23       1.0  0.5971352358861921  0.6765502258423339  0.031024940007625897  1.0000
  H   H24       1.0  0.0971338362531142  0.8234490127861349  0.9689725858675545  1.0000
  H   H25       1.0  0.6238958028217851  0.0464506580519384  0.5296420050086894  1.0000
  H   H26       1.0  0.1238964296600287  0.4535507776164209  0.47035784515227874  1.0000
  H   H27       1.0  0.3761049699730492  0.9535501859341338  0.47036047771987205  1.0000
  H   H28       1.0  0.8761053563704664  0.546449052694328  0.5296422868528126  1.0000
  H   H29       1.0  0.5860423319139443  0.2804738254275208  0.824874796790759  1.0000
  H   H30       1.0  0.0860429587521878  0.2195245692148617  0.1751262334387178  1.0000
  H   H31       1.0  0.4139584408808901  0.7195260048832282  0.1751268319850467  1.0000
  H   H32       1.0  0.913953761100025  0.7804742474205639  0.8248760381550468  1.0000
  H   H33       1.0  0.9241965603560872  0.3314921044898966  0.6235535679892551  1.0000
  H   H34       1.0  0.4241961739586699  0.1685052764771697  0.37644735667282  1.0000
  H   H35       1.0  0.0758031992030936  0.6685087394961826  0.37644592119787745  1.0000
  H   H36       1.0  0.5758015591291965  0.8314925264829327  0.6235525641974604  1.0000
  H   H37       1.0  0.8365830863356366  0.0449453501956398  0.4517309921990105  1.0000
  H   H38       1.0  0.336583713173873  0.4550560854727266  0.5482673611912361  1.0000
  H   H39       1.0  0.16341464675222991  0.9550554937904394  0.548268496988122  1.0000
  H   H40       1.0  0.6634190860922757  0.5449447585133527  0.45173212799589635  1.0000
  H   H41       1.0  0.9449000045344604  0.1895248479978804  0.4783235772654066  1.0000
  H   H42       1.0  0.4449006313727041  0.3104755739951557  0.5216761673281596  1.0000
  H   H43       1.0  0.0550977285533989  0.8104749823128685  0.5216758063543239  1.0000
  H   H44       1.0  0.5551021678934447  0.6895242563155932  0.4783224679062102  1.0000
  H   H45       1.0  0.648738314658786  0.4842620989109321  0.8852093291852087  1.0000
  H   H46       1.0  0.14873792826136883  0.0157373094067808  0.11479030984095571  1.0000
  H   H47       1.0  0.3512614449003948  0.5157387450751401  0.11479016000192391  1.0000
  H   H48       1.0  0.8512608180621513  0.9842625209039682  0.8852098221641356  1.0000
  H   H49       1.0  0.8071364316734773  0.5624620817892634  0.9226077101712776  1.0000
  H   H50       1.0  0.3071360452760601  0.9375381705145216  0.0773914180420192  1.0000
  H   H51       1.0  0.19286434112135714  0.4375377485214856  0.07739242183380671  1.0000
  H   H52       1.0  0.6928637142831207  0.0624616597962273  0.9226087139630721  1.0000
  C   C1        1.0  0.6613986941923216  0.12014688146526  0.5912388798268537  1.0000
  C   C2        1.0  0.16139932103056512  0.3798525268524529  0.40875926242859617  1.0000
  C   C3        1.0  0.3386010653668521  0.8798539625208122  0.40876135774563954  1.0000
  C   C4        1.0  0.8386024649999301  0.6201483171336193  0.5912424719146117  1.0000
  C   C5        1.0  0.5943944334341538  0.1519945327980921  0.6826405532060775  1.0000
  C   C6        1.0  0.0943960735080509  0.3480089302209137  0.3173610048604161  1.0000
  C   C7        1.0  0.4056043128893734  0.8480093522139499  0.3173622462247039  1.0000
  C   C8        1.0  0.9056036860511298  0.6519898864145119  0.6826382731919126  1.0000
  C   C9        1.0  0.6436376863617213  0.2544973815719231  0.7551830498401273  1.0000
  C   C10       1.0  0.1436383131999577  0.24550202674578972  0.2448165891860299  1.0000
  C   C11       1.0  0.3563620731974595  0.7455044760894722  0.24481804168512164  1.0000
  C   C12       1.0  0.8563604331235624  0.7544967898896361  0.7551864307930884  1.0000
  C   C13       1.0  0.7620302199332158  0.3226396778844602  0.7342129112813895  1.0000
  C   C14       1.0  0.2620328732427666  0.1773587167579294  0.2657903641041628  1.0000
  C   C15       1.0  0.2379675131546506  0.677361166101619  0.2657895714471792  1.0000
  C   C16       1.0  0.7379648598450927  0.8226400998774964  0.734211159104234  1.0000
  C   C17       1.0  0.8296160779584767  0.2842386155812591  0.6425568210656749  1.0000
  C   C18       1.0  0.3296156915610595  0.21575775171047698  0.3574432496436374  1.0000
  C   C19       1.0  0.1703836816007041  0.7157612147294898  0.35744256255405565  1.0000
  C   C20       1.0  0.6703860944694355  0.7842390375743022  0.6425580624299556  1.0000
  C   C21       1.0  0.46868735165516284  0.0721077941804467  0.7006236435413058  1.0000
  C   C22       1.0  0.9686897645238945  0.4278916141372662  0.2993752470994977  1.0000
  C   C23       1.0  0.5313144343753322  0.9278930498056326  0.2993795875726235  1.0000
  C   C24       1.0  0.0313120215066007  0.5721132845500989  0.7006291546694001  1.0000
  C   C25       1.0  0.8390938842935469  0.1551278032249144  0.4738275800502407  1.0000
  C   C26       1.0  0.3390955243674441  0.3448705914174752  0.5261727017938824  1.0000
  C   C27       1.0  0.1609038487943195  0.8448710134105113  0.5261724463874486  1.0000
  C   C28       1.0  0.660906261663051  0.6551282252179504  0.47382732464380695  1.0000
  C   C29       1.0  0.7620666964168664  0.2235579833294921  0.3944205648796029  1.0000
  C   C30       1.0  0.2620663100194491  0.2764434523388672  0.6055800336667191  1.0000
  C   C31       1.0  0.2379320499066537  0.7764438743319104  0.605580526645646  1.0000
  C   C32       1.0  0.7379385157180138  0.7235573916472049  0.3944217006764887  1.0000
  C   C33       1.0  0.7580411111518188  0.46650352090787806  0.8923292923714714  1.0000
  C   C34       1.0  0.2580417379900624  0.033496901085158  0.1076712006074558  1.0000
  C   C35       1.0  0.24195864840735481  0.5334973230781941  0.10767169358638279  1.0000
  C   C36       1.0  0.7419570083334649  0.9665049565762374  0.8923313876885146  1.0000
  C   C37       1.0  0.7849465707863603  0.36476498332842777  0.9656084550617265  1.0000
  C   C38       1.0  0.2849441579176286  0.1352354386646084  0.0343890443757644  1.0000
  C   C39       1.0  0.21505521524413504  0.6352348469823283  0.03438868340192868  1.0000
  C   C40       1.0  0.7150535751702378  0.8647623642954869  0.9656086313384409  1.0000
  N   N1        1.0  0.7772024106603227  0.1856891005714516  0.5742225962281681  1.0000
  N   N2        1.0  0.27720101102725186  0.314309294070938  0.42577768561594814  1.0000
  N   N3        1.0  0.22279836213451182  0.8143117434146206  0.4257776413443254  1.0000
  N   N4        1.0  0.722798748531929  0.6856885088891644  0.5742214868689715  1.0000
  O   O1        1.0  0.11398191875681361  0.085693070874143  0.7441837793477433  1.0000
  O   O2        1.0  0.6139823051542308  0.4143093784695395  0.2558146796099123  1.0000
  O   O3        1.0  0.8860188540380278  0.914307773111929  0.2558157098393892  1.0000
  O   O4        1.0  0.3860184676406035  0.5856934928671791  0.7441835239413094  1.0000
  O   O5        1.0  0.8726380639524011  0.2734024263665447  0.9416647952989265  1.0000
  O   O6        1.0  0.3726386907906374  0.2265969819511682  0.05833484372723769  1.0000
  O   O7        1.0  0.1273606823711262  0.7265974039442042  0.058335336706164774  1.0000
  O   O8        1.0  0.627362082004197  0.773399807333611  0.9416634748049193  1.0000
  O   O9        1.0  0.10834022261893492  0.3623939967453396  0.8765745907334124  1.0000
  O   O10       1.0  0.6083395957806985  0.1376054115723804  0.12342504829275211  1.0000
  O   O11       1.0  0.8916595369402388  0.6376048198900932  0.1234246873189164  1.0000
  O   O12       1.0  0.39166016377848223  0.8623964460890222  0.8765767916178576  1.0000
  O   O13       1.0  0.7160435064070683  0.382643175019723  0.0470596334669366  1.0000
  O   O14       1.0  0.2160441332453118  0.1173562332979898  0.9529415023299421  1.0000
  O   O15       1.0  0.28395523991645183  0.6173566552910259  0.9529412469235085  1.0000
  O   O16       1.0  0.783955626313869  0.8826425833374358  0.04705927249310089  1.0000
  O   O17       1.0  0.4023761440863397  0.36408277983530013  0.9044048017976962  1.0000
  O   O18       1.0  0.9023724775411284  0.1359166284824127  0.0955933404577536  1.0000
  O   O19       1.0  0.5976256419441485  0.6359160368001255  0.0955952246399931  1.0000
  O   O20       1.0  0.09762424231107761  0.8640842155036594  0.9044046519586646  1.0000
  O   O21       1.0  0.6694792485564705  0.307112199269767  0.4225569885992613  1.0000
  O   O22       1.0  0.1694788621590462  0.1928892363985923  0.5774428615617069  1.0000
  O   O23       1.0  0.330521524238371  0.6928886447163052  0.5774425005878712  1.0000
  O   O24       1.0  0.8305239371071026  0.8071116075874798  0.4225581243961472  1.0000
  O   O25       1.0  0.8061059710103607  0.1883601350504804  0.30475723799795423  1.0000
  O   O26       1.0  0.3061065978485971  0.3116413006178789  0.695242612163014  1.0000
  O   O27       1.0  0.19389277531315943  0.8116407089355918  0.6952429995745393  1.0000
  O   O28       1.0  0.6938972146532052  0.68835852969287  0.30475677145671654  1.0000
  O   O29       1.0  0.4224574615713479  0.9939694758076314  0.6272719176917222  1.0000
  O   O30       1.0  0.9224578479687722  0.5060317901714839  0.3727288128596911  1.0000
  O   O31       1.0  0.5775473641661151  0.0060262998018246  0.3727285404291081  1.0000
  O   O32       1.0  0.0775500174756658  0.4939731085158884  0.6272688534409738  1.0000
  O   O33       1.0  0.4217583289680604  0.08899157037879492  0.7915498445285678  1.0000
  O   O34       1.0  0.9217597286011313  0.4110088516142484  0.2084499000649984  1.0000
  O   O35       1.0  0.5782414305911203  0.9110072462566379  0.2084509302944753  1.0000
  O   O36       1.0  0.0782390177223888  0.588991992371831  0.7915503375074877  1.0000
  O   O37       1.0  0.8189527859047772  0.4267481883716755  0.7953286407068276  1.0000
  O   O38       1.0  0.3189534127430207  0.0732491925953909  0.2046715355698865  1.0000
  O   O39       1.0  0.1810469736544036  0.5732506282637502  0.20467138573085467  1.0000
  O   O40       1.0  0.68104634681616  0.9267516513906884  0.7953287020026069  1.0000
