data_image0
_chemical_formula_structural       Zn2H64C66N2O8F2
_chemical_formula_sum              "Zn2 H64 C66 N2 O8 F2"
_cell_length_a       12.957258225436618
_cell_length_b       18.390113472119715
_cell_length_c       19.382925199580054
_cell_angle_alpha    89.97537123531605
_cell_angle_beta     90.86417862418715
_cell_angle_gamma    99.97148915950746

_space_group_name_H-M_alt    "P 1"
_space_group_IT_number       1

loop_
  _space_group_symop_operation_xyz
  'x, y, z'

loop_
  _atom_site_type_symbol
  _atom_site_label
  _atom_site_symmetry_multiplicity
  _atom_site_fract_x
  _atom_site_fract_y
  _atom_site_fract_z
  _atom_site_occupancy
  Zn  Zn1       1.0  0.47822583570975763  0.41589542586990547  0.496763195579554  1.0000
  Zn  Zn2       1.0  0.5095606352434389  0.5780985262417387  0.5010319073073433  1.0000
  H   H1        1.0  0.18725915676964186  0.5939547912004315  0.4880315452150512  1.0000
  H   H2        1.0  0.8025151240204168  0.40892489699414364  0.5290868422105461  1.0000
  H   H3        1.0  0.35202578005742424  0.14036628928396058  0.42123289743204845  1.0000
  H   H4        1.0  0.6705735705534013  0.855183890693894  0.5460435631085615  1.0000
  H   H5        1.0  0.6175058793767505  0.1897224492536296  0.5614547446809297  1.0000
  H   H6        1.0  0.35835346560188  0.8060836824001355  0.45738310567985957  1.0000
  H   H7        1.0  0.5932984275812176  0.32033834657605814  0.5578884392667262  1.0000
  H   H8        1.0  0.37333086197025284  0.6728978605572494  0.4628840321506972  1.0000
  H   H9        1.0  0.5686918109937695  0.07892684540335891  0.5948509002342348  1.0000
  H   H10       1.0  0.432527071914187  0.9149514931472141  0.3985969723209806  1.0000
  H   H11       1.0  0.5830325363826319  0.9473258071934009  0.5986491029374932  1.0000
  H   H12       1.0  0.4213462704165353  0.04703279832326499  0.3933536178220081  1.0000
  H   H13       1.0  0.15686490701243372  0.37882541731625696  0.581673006796045  1.0000
  H   H14       1.0  0.833225430524685  0.6226438064394203  0.43321079313206917  1.0000
  H   H15       1.0  0.5845370636411715  0.6132758864535504  0.15911502334589758  1.0000
  H   H16       1.0  0.6250042280897007  0.42903548698125604  0.8565554982122663  1.0000
  H   H17       1.0  0.3822194715736061  0.40166189232753174  0.28115145437772776  1.0000
  H   H18       1.0  0.45172190439777193  0.58082009608475  0.6974407855566653  1.0000
  H   H19       1.0  0.33239843757002774  0.4869767624846587  0.0510035835053912  1.0000
  H   H20       1.0  0.6839908508451771  0.5374110283155102  0.9452517987151339  1.0000
  H   H21       1.0  0.3480535831678538  0.4888893988689064  0.9241181350995546  1.0000
  H   H22       1.0  0.6683439838745928  0.5321616602854463  0.07264328789280938  1.0000
  H   H23       1.0  0.13501329296273207  0.17326861995492487  0.4156091086589059  1.0000
  H   H24       1.0  0.19574529685707637  0.1800671052326734  0.49871397376218596  1.0000
  H   H25       1.0  0.07838253602219683  0.21548231946574964  0.4844915951989606  1.0000
  H   H26       1.0  0.2325321569219057  0.32006307802186734  0.48745124034689263  1.0000
  H   H27       1.0  0.1688097885776969  0.3129298510619023  0.4066525335030775  1.0000
  H   H28       1.0  0.3538398094341276  0.33624156520104975  0.3872302746461074  1.0000
  H   H29       1.0  0.30461471838800963  0.24423525227850715  0.3603597878237323  1.0000
  H   H30       1.0  0.7817555371362491  0.6108588660232286  0.6396966275085347  1.0000
  H   H31       1.0  0.8701798853504246  0.696337194807093  0.6405138769717453  1.0000
  H   H32       1.0  0.7988551509623679  0.6655433819481901  0.7158393676235733  1.0000
  H   H33       1.0  0.7130782408221921  0.7621217199079594  0.6583296794782072  1.0000
  H   H34       1.0  0.6296933178656448  0.6749176776044266  0.6527192822019714  1.0000
  H   H35       1.0  0.7025973359345843  0.6584290526115667  0.5330939941094356  1.0000
  H   H36       1.0  0.7714551632889909  0.7502089752786815  0.5388144609956739  1.0000
  H   H37       1.0  0.6256315143970073  0.7601718436028972  0.3824481363974712  1.0000
  H   H38       1.0  0.6734067013163029  0.789106127327763  0.2998925561708106  1.0000
  H   H39       1.0  0.5597799052603352  0.8189203094806671  0.3317523965968689  1.0000
  H   H40       1.0  0.5093743629081402  0.7165306236380075  0.2443814897858658  1.0000
  H   H41       1.0  0.4618032780644726  0.6872949547304115  0.3266435524954686  1.0000
  H   H42       1.0  0.6140000844808854  0.6240221804441787  0.3471937997467194  1.0000
  H   H43       1.0  0.666224656991183  0.6553636966048513  0.26648695249181026  1.0000
  H   H44       1.0  0.6934641902755628  0.2690095674260958  0.6558280977888771  1.0000
  H   H45       1.0  0.7149541293694315  0.25321360209725446  0.7445004303456813  1.0000
  H   H46       1.0  0.6040603559390761  0.2018692238802302  0.7011275449746606  1.0000
  H   H47       1.0  0.5538344583963025  0.3038978764856068  0.7748923848802247  1.0000
  H   H48       1.0  0.5241847734618262  0.31573108776015596  0.6868418583281368  1.0000
  H   H49       1.0  0.6864790548521713  0.40738838592671556  0.673381214725552  1.0000
  H   H50       1.0  0.7239353860986881  0.393665962675925  0.759954056044215  1.0000
  H   H51       1.0  0.364005044383383  0.215768207335266  0.149735975337471  1.0000
  H   H52       1.0  0.4131940134943335  0.24591066943107623  0.0676681840555631  1.0000
  H   H53       1.0  0.49394553475425346  0.20745395264078328  0.1274293133470863  1.0000
  H   H54       1.0  0.5453998820749463  0.3458516682516901  0.12569739315420486  1.0000
  H   H55       1.0  0.49699709228451655  0.31564133243067255  0.2070984340930266  1.0000
  H   H56       1.0  0.31965352819850085  0.3447759001624533  0.1719967266519333  1.0000
  H   H57       1.0  0.37306166745676717  0.378219456530509  0.0923292032505287  1.0000
  H   H58       1.0  0.35825160191491545  0.7535353612078168  0.8207546226536733  1.0000
  H   H59       1.0  0.3866575860148984  0.7356990901319519  0.9083301909642714  1.0000
  H   H60       1.0  0.47146478417554505  0.804360798025037  0.8620667156516149  1.0000
  H   H61       1.0  0.549634788758894  0.6879824966519337  0.8721918885339548  1.0000
  H   H62       1.0  0.5224467181198807  0.7062134954430022  0.7850346108686637  1.0000
  H   H63       1.0  0.35228276406489567  0.6174212194797805  0.7913968762408956  1.0000
  H   H64       1.0  0.38027447730252123  0.599681927257805  0.8785497484994381  1.0000
  C   C1        1.0  0.5416989957550342  0.4886325545530638  0.6287904392396655  1.0000
  C   C2        1.0  0.4591525280561939  0.507466590858833  0.36844251888444285  1.0000
  C   C3        1.0  0.4892134662191054  0.5061449812265479  0.14720184115538607  1.0000
  C   C4        1.0  0.5267605992539472  0.5117078112372155  0.8492017815453037  1.0000
  C   C5        1.0  0.4323213731996987  0.44452087154922987  0.18174977905498926  1.0000
  C   C6        1.0  0.4765370729149653  0.5556279902736421  0.8042481936194363  1.0000
  C   C7        1.0  0.42455972154685656  0.44890574547269313  0.253266778459988  1.0000
  C   C8        1.0  0.4887825372093887  0.5471344385323463  0.7334151302247065  1.0000
  C   C9        1.0  0.4710044050958972  0.5106850066783296  0.29179076720235736  1.0000
  C   C10       1.0  0.5446136045705573  0.4954831963971029  0.7058097884616572  1.0000
  C   C11       1.0  0.4098361024520259  0.49731686647534445  0.0279358107112628  1.0000
  C   C12       1.0  0.6066292878603294  0.5259190471150887  0.968432854164618  1.0000
  C   C13       1.0  0.41864491630384765  0.4996472817028136  0.9565095423551567  1.0000
  C   C14       1.0  0.5978067419934592  0.5234356913719083  0.0400807085767525  1.0000
  C   C15       1.0  0.5172912493328142  0.5138049179704751  0.9252953423541683  1.0000
  C   C16       1.0  0.49926908705221257  0.5085110502817541  0.0711490680339679  1.0000
  C   C17       1.0  0.40107134506228453  0.25338138213962214  0.4504152044833917  1.0000
  C   C18       1.0  0.6058149348759019  0.7408094585167574  0.5291875165972328  1.0000
  C   C19       1.0  0.40849263671788094  0.17842429546797683  0.45183174108321117  1.0000
  C   C20       1.0  0.602035118009809  0.8163944711688487  0.52816288414229  1.0000
  C   C21       1.0  0.48518683107695904  0.15225338031464022  0.49191558843341443  1.0000
  C   C22       1.0  0.5139111065817659  0.8422779569005455  0.5019278749130291  1.0000
  C   C23       1.0  0.6905207798388704  0.5042297162262982  0.4737499455175112  1.0000
  C   C24       1.0  0.2997997320819934  0.49346396040958485  0.5319716510446212  1.0000
  C   C25       1.0  0.5539087049295263  0.2049267072869796  0.5304439252711217  1.0000
  C   C26       1.0  0.4297150735732914  0.7896086181844807  0.4775501054614324  1.0000
  C   C27       1.0  0.5417166724292104  0.2781651207611375  0.5282870732719971  1.0000
  C   C28       1.0  0.4371787333514234  0.7155763065211928  0.48074721836656653  1.0000
  C   C29       1.0  0.5404234882437606  0.04369733938134599  0.5509118555895611  1.0000
  C   C30       1.0  0.4617670905527974  0.9508829521821198  0.4419400181963837  1.0000
  C   C31       1.0  0.5484736264404405  0.969341797295371  0.553251173056502  1.0000
  C   C32       1.0  0.45516737986051947  0.0254522199805223  0.4392155184815181  1.0000
  C   C33       1.0  0.5085989001800187  0.92157229676409  0.498994710406869  1.0000
  C   C34       1.0  0.4936947438503837  0.07330574994644928  0.4938533481325535  1.0000
  C   C35       1.0  0.18321643100615156  0.487856655237884  0.5342925370989988  1.0000
  C   C36       1.0  0.8073231615536829  0.5136350304976104  0.48027758251169667  1.0000
  C   C37       1.0  0.9762928893250306  0.5890149537521125  0.46690853093656404  1.0000
  C   C38       1.0  0.013679864946048777  0.4152684799188364  0.5533886921342699  1.0000
  C   C39       1.0  0.8699021372000363  0.5800243061425191  0.4575665336159318  1.0000
  C   C40       1.0  0.12041042540212743  0.4224799051503325  0.5590595631974509  1.0000
  C   C41       1.0  0.8525013767309277  0.45916732673372  0.5119132592046682  1.0000
  C   C42       1.0  0.1376574311578693  0.5440474137641047  0.5062782825252867  1.0000
  C   C43       1.0  0.96209390700416  0.46900772730339907  0.521874752370131  1.0000
  C   C44       1.0  0.027729029713242394  0.5353428607179112  0.4986279395481148  1.0000
  C   C45       1.0  0.5319821504467798  0.5710147469819731  0.2581364925120724  1.0000
  C   C46       1.0  0.5953301042393947  0.45178180891460334  0.7500836500600983  1.0000
  C   C47       1.0  0.5386212878005452  0.5667910991034899  0.1862772888920929  1.0000
  C   C48       1.0  0.5863922393397091  0.4623988331696083  0.8210741307117359  1.0000
  C   C49       1.0  0.32025140534126006  0.28084592963503496  0.40569626208824866  1.0000
  C   C50       1.0  0.21592213970952664  0.28430502602597574  0.4418338132482234  1.0000
  C   C51       1.0  0.1531809355176819  0.20919534314739247  0.4612009481029418  1.0000
  C   C52       1.0  0.7007825946752534  0.7127695332607189  0.5560435355597022  1.0000
  C   C53       1.0  0.7045668748417812  0.7065416923346959  0.63529208633949  1.0000
  C   C54       1.0  0.7940008762295745  0.6678610352605786  0.6592547704351333  1.0000
  C   C55       1.0  0.5925053672447261  0.6380167409413245  0.2944462292376073  1.0000
  C   C56       1.0  0.5338398330745308  0.7037612073108261  0.2970912203798122  1.0000
  C   C57       1.0  0.6015367330965874  0.7717744052901098  0.3295010271664225  1.0000
  C   C58       1.0  0.6556835931833548  0.3938662203573742  0.7252686794510764  1.0000
  C   C59       1.0  0.5893018612652626  0.315909737466839  0.7239239258271724  1.0000
  C   C60       1.0  0.6536605051690716  0.256711693031761  0.7053384926285274  1.0000
  C   C61       1.0  0.39236972986052626  0.3713639932089237  0.1470215675272328  1.0000
  C   C62       1.0  0.47401837927903767  0.3198476515199857  0.1524694215505207  1.0000
  C   C63       1.0  0.4342774343657753  0.24307425677648095  0.1226899990527812  1.0000
  C   C64       1.0  0.4166556898282394  0.6141439979737414  0.8284734958721813  1.0000
  C   C65       1.0  0.48535206086335597  0.6909618149719846  0.8350005380918759  1.0000
  C   C66       1.0  0.42230053733202066  0.7494706502506999  0.8577511171029003  1.0000
  N   N1        1.0  0.46721113420307614  0.30249263244980534  0.4896190931690326  1.0000
  N   N2        1.0  0.5228407662461124  0.6913566000189634  0.5058168954264487  1.0000
  O   O1        1.0  0.5195870648404226  0.4245882915954483  0.6022144592188994  1.0000
  O   O2        1.0  0.4545749694218699  0.5669758261707115  0.4009074647241206  1.0000
  O   O3        1.0  0.5576117229031823  0.549565318809165  0.5956376279969007  1.0000
  O   O4        1.0  0.45533864124409723  0.4440188475630365  0.39619658542027025  1.0000
  O   O5        1.0  0.6388598871333715  0.43984155044542916  0.4827882591418771  1.0000
  O   O6        1.0  0.355021967375734  0.5576495150761931  0.5330590498754688  1.0000
  O   O7        1.0  0.6523892455086369  0.5625564842904254  0.46152318730518266  1.0000
  O   O8        1.0  0.33293014714161734  0.4324261294976495  0.5264109462340655  1.0000
  F   F1        1.0  0.03747433875790305  0.6526425077790278  0.4446993489599933  1.0000
  F   F2        1.0  0.9524635372422028  0.35267333925162336  0.5777035660519871  1.0000
