data_image0
_chemical_formula_structural       Al3H27C81O18F18
_chemical_formula_sum              "Al3 H27 C81 O18 F18"
_cell_length_a       4.022063057083405
_cell_length_b       27.813025728849162
_cell_length_c       27.857781922023364
_cell_angle_alpha    60.025733104455604
_cell_angle_beta     89.80201385602092
_cell_angle_gamma    89.58980811245178

_space_group_name_H-M_alt    "P 1"
_space_group_IT_number       1

loop_
  _space_group_symop_operation_xyz
  'x, y, z'

loop_
  _atom_site_type_symbol
  _atom_site_label
  _atom_site_symmetry_multiplicity
  _atom_site_fract_x
  _atom_site_fract_y
  _atom_site_fract_z
  _atom_site_occupancy
  Al  Al1       1.0  0.999982699416769  0.5000620158688206  0.49997669621143354  1.0000
  Al  Al2       1.0  0.9467019363422081  0.832971207384176  0.8333736599728993  1.0000
  Al  Al3       1.0  0.0673791424144241  0.16634315641977784  0.166188569403559  1.0000
  H   H1        1.0  0.5161186961767044  0.077065335451138  0.9225330816704157  1.0000
  H   H2        1.0  0.5064807025890516  0.2554101331806533  0.8334880496436199  1.0000
  H   H3        1.0  0.5153088554283015  0.1660850936929775  0.7444584650218432  1.0000
  H   H4        1.0  0.7624914521198959  0.013660212753528224  0.9110720423079641  1.0000
  H   H5        1.0  0.21112420850939628  0.09569305411724101  0.7561739704260759  1.0000
  H   H6        1.0  0.2658555697098848  0.08863345662304309  0.9852977998616907  1.0000
  H   H7        1.0  0.8111294254172349  0.24381521994833094  0.9041317985306706  1.0000
  H   H8        1.0  0.7741644184428084  0.3171458716235732  0.7608055606766442  1.0000
  H   H9        1.0  0.24216677692602664  0.23866061387538187  0.6829800931714516  1.0000
  H   H10       1.0  0.5161508732696589  0.4997055633812408  0.07742411166504586  1.0000
  H   H11       1.0  0.5059358739393643  0.5890688912783729  0.16636027830392652  1.0000
  H   H12       1.0  0.5163043655111536  0.410636049116995  0.25549064168082936  1.0000
  H   H13       1.0  0.2650338841388801  0.42577895482401823  0.0891294920653536  1.0000
  H   H14       1.0  0.8193224106343777  0.3507470036962203  0.24377036620190037  1.0000
  H   H15       1.0  0.7641227436120699  0.5739218820453403  0.014948750589738297  1.0000
  H   H16       1.0  0.20337778296229905  0.6483832572882662  0.09521015153337939  1.0000
  H   H17       1.0  0.23444455945391954  0.5778765026606506  0.23902681632418415  1.0000
  H   H18       1.0  0.7823914121961906  0.4219343033401798  0.3170480735702056  1.0000
  H   H19       1.0  0.47071856159242736  0.9236873695039449  0.49950075363548035  1.0000
  H   H20       1.0  0.47953250627512733  0.8342591558008223  0.4106457020608759  1.0000
  H   H21       1.0  0.4742041488900099  0.7453100581929987  0.5887492867557286  1.0000
  H   H22       1.0  0.7247984965081286  0.9118943711329873  0.5732606099718469  1.0000
  H   H23       1.0  0.17852983181820287  0.7567733169077682  0.6487723960813411  1.0000
  H   H24       1.0  0.23303179574797636  0.9876614031062373  0.42377763977088995  1.0000
  H   H25       1.0  0.78981595387728  0.9034882340560415  0.35291789857153333  1.0000
  H   H26       1.0  0.751845951290491  0.7616367522179459  0.4219091147691287  1.0000
  H   H27       1.0  0.21044226839136118  0.6833740116217797  0.5776701149381437  1.0000
  C   C1        1.0  0.49561561086058237  0.5736826663754329  0.5000181998342867  1.0000
  C   C2        1.0  0.5020441874350182  0.42649584388639256  0.5734369630498577  1.0000
  C   C3        1.0  0.5022139692571557  0.499980618748303  0.4264903020478954  1.0000
  C   C4        1.0  0.4455886121152445  0.9067495130231504  0.8327638765246945  1.0000
  C   C5        1.0  0.45001860078281186  0.7598908809421088  0.9071940481170842  1.0000
  C   C6        1.0  0.44822742423692563  0.8321231645425228  0.7604077676194193  1.0000
  C   C7        1.0  0.5676558396355417  0.16755325952829736  0.09224950272049877  1.0000
  C   C8        1.0  0.5634465358796632  0.23911729598776077  0.1676712472976263  1.0000
  C   C9        1.0  0.5658095869462303  0.09249328087057046  0.23911216512758668  1.0000
  C   C10       1.0  0.5234228601487204  0.1662437226742525  0.884091198475943  1.0000
  C   C11       1.0  0.5148791429772999  0.1162141143276755  0.8834009815045433  1.0000
  C   C12       1.0  0.5039712712703235  0.11544260318734696  0.8335026564846757  1.0000
  C   C13       1.0  0.5070652788647151  0.1661530517210962  0.7835327716562547  1.0000
  C   C14       1.0  0.5112426992231391  0.21692533888352009  0.7827900206013608  1.0000
  C   C15       1.0  0.5171147468463388  0.2162621331269179  0.8334417262692283  1.0000
  C   C16       1.0  0.6072308470143709  0.9642558925340197  0.8764234009751917  1.0000
  C   C17       1.0  0.6285290904904031  0.013591724146962546  0.8772265233169917  1.0000
  C   C18       1.0  0.4899034791269158  0.06228430063396904  0.8335386713266928  1.0000
  C   C19       1.0  0.33315407092656807  0.05964730941113305  0.7899336230168004  1.0000
  C   C20       1.0  0.32105899713013025  0.009457077605922766  0.7907013172444052  1.0000
  C   C21       1.0  0.45594930107900195  0.9603801499190394  0.8334735285929255  1.0000
  C   C22       1.0  0.39654778856356626  0.12265580409862754  0.9855134628948503  1.0000
  C   C23       1.0  0.4129595383675379  0.12375792585822859  0.03466790476456789  1.0000
  C   C24       1.0  0.5597043427470255  0.1669559793208606  0.038643615660397784  1.0000
  C   C25       1.0  0.6958263216627286  0.20964226435299327  0.9898875329547965  1.0000
  C   C26       1.0  0.6884551813168968  0.21011299810573547  0.9398988166965976  1.0000
  C   C27       1.0  0.5354082102987121  0.16632959600661198  0.9371142164171926  1.0000
  C   C28       1.0  0.6506845769534593  0.31782261132078554  0.7257644876917055  1.0000
  C   C29       1.0  0.647053009706802  0.36722724747174595  0.6756170529530793  1.0000
  C   C30       1.0  0.5039770798679014  0.3729228299393126  0.6269777164483372  1.0000
  C   C31       1.0  0.36334595301078554  0.32406974665025257  0.632823387042883  1.0000
  C   C32       1.0  0.3642221696366831  0.273860617998018  0.6821705959629795  1.0000
  C   C33       1.0  0.5087337358670749  0.2700311860234305  0.7297357835557605  1.0000
  C   C34       1.0  0.5005045059869743  0.5504860416973969  0.11578584979483253  1.0000
  C   C35       1.0  0.5150051357535973  0.4997427411202153  0.11653686485802689  1.0000
  C   C36       1.0  0.5273472874843393  0.4490422356126942  0.16647595278865168  1.0000
  C   C37       1.0  0.522460426629081  0.449804950669666  0.2164150361730961  1.0000
  C   C38       1.0  0.5114483038850323  0.49985269174349867  0.2171089705500435  1.0000
  C   C39       1.0  0.5021290420581153  0.5498567759760319  0.16642615294932733  1.0000
  C   C40       1.0  0.4092174935199111  0.3408172407411242  0.12426771069672778  1.0000
  C   C41       1.0  0.39630425466814495  0.39123811187988616  0.1230703189057465  1.0000
  C   C42       1.0  0.5391954173034748  0.39580693203245687  0.1665571659757816  1.0000
  C   C43       1.0  0.6932983864145682  0.3488967575091805  0.2102142186601839  1.0000
  C   C44       1.0  0.6972451841654956  0.2992211859962167  0.20983541176675397  1.0000
  C   C45       1.0  0.5565218064422979  0.2932979442658663  0.16736831597362567  1.0000
  C   C46       1.0  0.6294420305614922  0.6082271015135561  0.014488465940466636  1.0000
  C   C47       1.0  0.6116322863419299  0.658426876670056  0.9652094725825646  1.0000
  C   C48       1.0  0.45953838580691536  0.7056939727220733  0.9608976549458603  1.0000
  C   C49       1.0  0.3200013227420654  0.6997516142581831  0.00948967486688455  1.0000
  C   C50       1.0  0.328785809755253  0.6502927230239379  0.059608074070048644  1.0000
  C   C51       1.0  0.4866245902846557  0.6036028672023903  0.06269276440818314  1.0000
  C   C52       1.0  0.35999467559325626  0.5435750478894903  0.2740984120196757  1.0000
  C   C53       1.0  0.3591635942621991  0.5427758533863524  0.32426656831805184  1.0000
  C   C54       1.0  0.5040466818323066  0.49989916692069863  0.37298063307792967  1.0000
  C   C55       1.0  0.6514833568942463  0.45701995212226626  0.36716903847413823  1.0000
  C   C56       1.0  0.6551575363724921  0.45621263137257256  0.31780614318958555  1.0000
  C   C57       1.0  0.5088121918319004  0.4999009779269911  0.27015288698697754  1.0000
  C   C58       1.0  0.4865418802385832  0.8850420561954733  0.44899684114983524  1.0000
  C   C59       1.0  0.4714969085168973  0.884457011614195  0.4995740388755222  1.0000
  C   C60       1.0  0.46059703829286736  0.8344902444689594  0.550232917948911  1.0000
  C   C61       1.0  0.4657550067150281  0.7844013420110726  0.5496018470948697  1.0000
  C   C62       1.0  0.4753342671027596  0.7835821781427653  0.4996967914428509  1.0000
  C   C63       1.0  0.48365408953296185  0.8342682951582957  0.4497563399522163  1.0000
  C   C64       1.0  0.5917559964762872  0.8761667110766422  0.658490669462637  1.0000
  C   C65       1.0  0.5976078921342702  0.8777275996352498  0.6079492332697072  1.0000
  C   C66       1.0  0.4534482017748189  0.8343049106568613  0.6034287830368896  1.0000
  C   C67       1.0  0.3051230548393206  0.7903331555011801  0.6505182736331818  1.0000
  C   C68       1.0  0.3081530943513897  0.7903498506238122  0.7002881087232853  1.0000
  C   C69       1.0  0.45039949104275223  0.8327495754460301  0.7061650157924503  1.0000
  C   C70       1.0  0.3697489100979324  0.9871098080072966  0.39026451532150463  1.0000
  C   C71       1.0  0.39591736990897175  0.03610851457143837  0.33999638780339575  1.0000
  C   C72       1.0  0.5509241334670917  0.03922605086133046  0.2936098325453714  1.0000
  C   C73       1.0  0.6850249212967584  0.9897519284227341  0.3005509309258655  1.0000
  C   C74       1.0  0.6681675791504132  0.9398924815327659  0.35012135530606514  1.0000
  C   C75       1.0  0.5068661749737726  0.9379753698341697  0.39586221706417024  1.0000
  C   C76       1.0  0.6285668809059927  0.7264785037857918  0.45618705245237096  1.0000
  C   C77       1.0  0.6323966325806011  0.6761722843744876  0.45710518982691895  1.0000
  C   C78       1.0  0.490997315802538  0.6273256709178128  0.4999946193837487  1.0000
  C   C79       1.0  0.3438445123990448  0.6331227997511917  0.5427800930543752  1.0000
  C   C80       1.0  0.3371028909864363  0.6826279316340305  0.54345971603896  1.0000
  C   C81       1.0  0.48002282227964344  0.7304036050201146  0.4997588156690115  1.0000
  O   O1        1.0  0.7389740493568482  0.4746208520347608  0.46009425184620056  1.0000
  O   O2        1.0  0.7334447663199554  0.5655126408095369  0.4746860197206644  1.0000
  O   O3        1.0  0.7367889296393738  0.46016741885485846  0.5651887314017899  1.0000
  O   O4        1.0  0.26430831817732775  0.5253879102794696  0.43469057698542457  1.0000
  O   O5        1.0  0.2659798045583415  0.43466856996356273  0.5398961364257459  1.0000
  O   O6        1.0  0.26075208967949237  0.5399469815146245  0.5253836655935372  1.0000
  O   O7        1.0  0.6843361782528987  0.8066815197164842  0.7938299645742716  1.0000
  O   O8        1.0  0.6794838695718394  0.8983328141257516  0.8071039505586982  1.0000
  O   O9        1.0  0.6828297984735698  0.7937350682914399  0.8988311986750404  1.0000
  O   O10       1.0  0.20914550420231134  0.8573954982579791  0.7682282184857313  1.0000
  O   O11       1.0  0.21125452251499144  0.7674316374341853  0.8745379875644161  1.0000
  O   O12       1.0  0.2062298175352879  0.8743122103334925  0.8577645494938436  1.0000
  O   O13       1.0  0.8060006729965535  0.12469849453441377  0.23174754352933752  1.0000
  O   O14       1.0  0.8078443003348641  0.14236455598513229  0.12476013760128518  1.0000
  O   O15       1.0  0.8028800144347696  0.23160437936400058  0.14236198163411018  1.0000
  O   O16       1.0  0.33449553962726236  0.10094811680297507  0.20484860504802066  1.0000
  O   O17       1.0  0.3294087416324841  0.2054356639284264  0.19293474814059408  1.0000
  O   O18       1.0  0.3327104886196466  0.19310323939769344  0.10069579411027262  1.0000
  F   F1        1.0  0.16766689369043059  0.007525655790985217  0.7483266643602349  1.0000
  F   F2        1.0  0.7434454853980483  0.9175825040496262  0.9188610701412754  1.0000
  F   F3        1.0  0.27688300975923136  0.08130953595775739  0.08107823470025009  1.0000
  F   F4        1.0  0.8457909954150223  0.2521652611164242  0.9919883478532937  1.0000
  F   F5        1.0  0.786610441855849  0.41173697397931613  0.6748488292034125  1.0000
  F   F6        1.0  0.2217807688265196  0.32470122128776047  0.5885058865744385  1.0000
  F   F7        1.0  0.8479517637476094  0.2542608230192158  0.2522686656499573  1.0000
  F   F8        1.0  0.26881477104196705  0.3370203001638359  0.0820272862556664  1.0000
  F   F9        1.0  0.7523412139839322  0.6622554733038651  0.9190432957952767  1.0000
  F   F10       1.0  0.1655737644668136  0.7444847131491272  0.0071357799888927525  1.0000
  F   F11       1.0  0.2131661552967401  0.5864075088782528  0.3249821121969276  1.0000
  F   F12       1.0  0.7956126452730884  0.41340055594474  0.41152360980270686  1.0000
  F   F13       1.0  0.1631130070980547  0.7476047078903318  0.7454091782491473  1.0000
  F   F14       1.0  0.7337553464910797  0.9183357600151966  0.6622307773575572  1.0000
  F   F15       1.0  0.2611394637169583  0.08322607211143651  0.3351864204122066  1.0000
  F   F16       1.0  0.8424990066446582  0.9909609930431671  0.25673816075956796  1.0000
  F   F17       1.0  0.7778717518567362  0.6754595834941881  0.4135925263265888  1.0000
  F   F18       1.0  0.2033057153067048  0.5886197430607467  0.5864369090782092  1.0000
