data_image0
_chemical_formula_structural       Cu6H32C48N52
_chemical_formula_sum              "Cu6 H32 C48 N52"
_cell_length_a       12.987526847876264
_cell_length_b       14.755747107098042
_cell_length_c       15.600363222504908
_cell_angle_alpha    90.00010507188895
_cell_angle_beta     91.00963442339042
_cell_angle_gamma    90.00040230311198

_space_group_name_H-M_alt    "P 1"
_space_group_IT_number       1

loop_
  _space_group_symop_operation_xyz
  'x, y, z'

loop_
  _atom_site_type_symbol
  _atom_site_label
  _atom_site_symmetry_multiplicity
  _atom_site_fract_x
  _atom_site_fract_y
  _atom_site_fract_z
  _atom_site_occupancy
  Cu  Cu1       1.0  0.9800868079653072  0.797813437801203  0.603141638400416  1.0000
  Cu  Cu2       1.0  0.5199294671141601  0.29782203096991117  0.8968516864557401  1.0000
  Cu  Cu3       1.0  0.019925635726465905  0.2021772658534715  0.3968522446413019  1.0000
  Cu  Cu4       1.0  0.4800768189048839  0.7021801936079157  0.10314980005624359  1.0000
  Cu  Cu5       1.0  7.609036593700024e-06  0.9999993271660299  0.49999897465779947  1.0000
  Cu  Cu6       1.0  0.5000049353286755  0.5000006258095623  4.371673057301228e-06  1.0000
  H   H1        1.0  0.7184156989633835  0.6515968201441139  0.3588477013775488  1.0000
  H   H2        1.0  0.5825652718419434  0.8759481073649482  0.1532855213531619  1.0000
  H   H3        1.0  0.7588657477801705  0.018722681515868093  0.8754131487742072  1.0000
  H   H4        1.0  0.5882348530863268  0.6120828881877712  0.2436315031147203  1.0000
  H   H5        1.0  0.7172210838564441  0.9250555955131999  0.2604971228108965  1.0000
  H   H6        1.0  0.7470111608848028  0.19788245516504324  0.6561464089500078  1.0000
  H   H7        1.0  0.6299168658153109  0.2978167951502043  0.7386635436692472  1.0000
  H   H8        1.0  0.6421064977295785  0.1274542651466604  0.9500737598213007  1.0000
  H   H9        1.0  0.7815791195090042  0.15159568884768496  0.14116316389615238  1.0000
  H   H10       1.0  0.9174159479471412  0.3759488929351988  0.34673515147135703  1.0000
  H   H11       1.0  0.7411298077493528  0.5187214641597606  0.6245819588378296  1.0000
  H   H12       1.0  0.911741172318344  0.1120800744053057  0.25639440742808967  1.0000
  H   H13       1.0  0.7827736165531434  0.42505466297948397  0.23951164989777135  1.0000
  H   H14       1.0  0.7530020014503691  0.6978885147910389  0.8438441341233229  1.0000
  H   H15       1.0  0.8701001770944997  0.7978152851074467  0.7613240231437644  1.0000
  H   H16       1.0  0.8578983990631385  0.6274475244624114  0.5499171833652738  1.0000
  H   H17       1.0  0.2815813502685671  0.34841556994633993  0.6411645493189226  1.0000
  H   H18       1.0  0.4174217649551437  0.12405682796882192  0.8467233801069582  1.0000
  H   H19       1.0  0.2411389930716012  0.9812795430446924  0.12457549527282197  1.0000
  H   H20       1.0  0.41175834743298617  0.3879261133848785  0.7563851792337246  1.0000
  H   H21       1.0  0.2827713425933566  0.0749561168552546  0.7395092922215198  1.0000
  H   H22       1.0  0.25299281163771076  0.8021231579077224  0.3438467111114818  1.0000
  H   H23       1.0  0.3700817168104678  0.7021833962913462  0.2613314218068581  1.0000
  H   H24       1.0  0.3578967036707255  0.8725425377946292  0.04991678508563519  1.0000
  H   H25       1.0  0.2184071486251113  0.8483916262342529  0.8588495725446988  1.0000
  H   H26       1.0  0.08258725840698838  0.6240390998919876  0.6532682137142841  1.0000
  H   H27       1.0  0.25885106259776336  0.48128347114053577  0.3754121105799655  1.0000
  H   H28       1.0  0.08825510422942533  0.8879072407008264  0.743611422012762  1.0000
  H   H29       1.0  0.2172188122852461  0.5749306190154327  0.7605011752536726  1.0000
  H   H30       1.0  0.24698810700722618  0.302125230657026  0.15614237619919888  1.0000
  H   H31       1.0  0.1299007128049467  0.20218490633378386  0.2386632834274138  1.0000
  H   H32       1.0  0.14209479191426064  0.3725458899394596  0.4500751404237988  1.0000
  C   C1        1.0  0.8045720889241395  0.8189508860671422  0.3830526832527781  1.0000
  C   C2        1.0  0.7287196257694218  0.7918309860437416  0.3183221411558534  1.0000
  C   C3        1.0  0.6909579102151894  0.7028187674390836  0.3137130162403778  1.0000
  C   C4        1.0  0.6158329519343084  0.828151285049394  0.1993410302396939  1.0000
  C   C5        1.0  0.8314069003115492  0.04231084278018929  0.7107737691930822  1.0000
  C   C6        1.0  0.7630587697259017  0.1001776237324208  0.7595718028823201  1.0000
  C   C7        1.0  0.7317209923639895  0.07985264608576868  0.8430230684482465  1.0000
  C   C8        1.0  0.6182612817650935  0.680687443865132  0.2509804403056179  1.0000
  C   C9        1.0  0.6899576841193351  0.8552928612736679  0.2590064260066995  1.0000
  C   C10       1.0  0.7257212880282253  0.18015986665083256  0.7213472781884886  1.0000
  C   C11       1.0  0.6594925437780148  0.23509220075282394  0.7665086053872727  1.0000
  C   C12       1.0  0.6658457739071794  0.13920495026884783  0.8843274003728752  1.0000
  C   C13       1.0  0.6954425491828004  0.3189545971253124  0.11694657779802499  1.0000
  C   C14       1.0  0.7712817065394618  0.29182986997490445  0.181685214504121  1.0000
  C   C15       1.0  0.8090342384723499  0.20281992668371626  0.18629725821204346  1.0000
  C   C16       1.0  0.8841532741241879  0.3281483869975687  0.3006770679224928  1.0000
  C   C17       1.0  0.6685973159137006  0.542318307854302  0.7892227859751059  1.0000
  C   C18       1.0  0.7369482198556624  0.6001806721434803  0.7404223283040352  1.0000
  C   C19       1.0  0.7682835231858007  0.5798543702722795  0.6569690689101719  1.0000
  C   C20       1.0  0.8817276115376913  0.1806823972256382  0.24903615907752644  1.0000
  C   C21       1.0  0.8100341485146458  0.3552941331558372  0.2410073127811856  1.0000
  C   C22       1.0  0.7742932720910006  0.6801645755115118  0.7786426133344263  1.0000
  C   C23       1.0  0.8405186061930935  0.7350911315139114  0.7334806910666102  1.0000
  C   C24       1.0  0.834156136783271  0.6392009016793663  0.6156635201497522  1.0000
  C   C25       1.0  0.1954311179995685  0.18105472701447667  0.6169519639778117  1.0000
  C   C26       1.0  0.2712751126964577  0.20818140403829227  0.6816887942447564  1.0000
  C   C27       1.0  0.30903528781225725  0.2971909118293751  0.6862972559652789  1.0000
  C   C28       1.0  0.38416024733770365  0.1718577165201367  0.8006724470370372  1.0000
  C   C29       1.0  0.1686047723558417  0.9576954480166434  0.2892175387165921  1.0000
  C   C30       1.0  0.2369505929210689  0.8998279893558275  0.24042011277389716  1.0000
  C   C31       1.0  0.268286828838562  0.9201482230802539  0.15696561995376607  1.0000
  C   C32       1.0  0.38173653679938724  0.31932291311970556  0.749029898435012  1.0000
  C   C33       1.0  0.31003166321610826  0.14471749568425446  0.7410031497399457  1.0000
  C   C34       1.0  0.27428345407084004  0.8198423579128472  0.278644570930247  1.0000
  C   C35       1.0  0.3405075787791318  0.7649086683949305  0.2334857412532259  1.0000
  C   C36       1.0  0.3341551177303117  0.8607932080706105  0.115664393296818  1.0000
  C   C37       1.0  0.3045506502625841  0.6810354287875598  0.8830675404755368  1.0000
  C   C38       1.0  0.22870533191414208  0.708152701195729  0.8183281740357558  1.0000
  C   C39       1.0  0.19095202892426497  0.7971700992045354  0.8137135551882861  1.0000
  C   C40       1.0  0.1158453136749884  0.6718355396079969  0.6993313588397783  1.0000
  C   C41       1.0  0.3313912566011369  0.45769408219550917  0.21077459941185583  1.0000
  C   C42       1.0  0.2630349600292661  0.3998290070764269  0.2595698513422846  1.0000
  C   C43       1.0  0.23170273653740034  0.4201505650416165  0.3430218730593211  1.0000
  C   C44       1.0  0.1182709750169124  0.8193022070788558  0.7509690626136631  1.0000
  C   C45       1.0  0.189954429886626  0.6446931819332701  0.7590054569268432  1.0000
  C   C46       1.0  0.2256976061817255  0.3198430706199033  0.2213432670571862  1.0000
  C   C47       1.0  0.15947612250587892  0.26491177071513045  0.2665052447659164  1.0000
  C   C48       1.0  0.1658324331799079  0.36079725662123957  0.3843274550806584  1.0000
  N   N1        1.0  0.9077631509874423  0.9001311694244617  0.4546806350669925  1.0000
  N   N2        1.0  0.9046943553205863  0.8180668992893698  0.4911246292060055  1.0000
  N   N3        1.0  0.8403249582193199  0.7652892556254824  0.4473012435632171  1.0000
  N   N4        1.0  0.8460691870583119  0.9029589636075881  0.3869463793627972  1.0000
  N   N5        1.0  0.5805395160448015  0.7424516820296532  0.1951039813436495  1.0000
  N   N6        1.0  0.9168339622716745  0.9301685112541944  0.6640839805839391  1.0000
  N   N7        1.0  0.925890213207154  0.00030503112488129995  0.6104821394024  1.0000
  N   N8        1.0  0.873910979568393  0.07114780233361981  0.6373170484047108  1.0000
  N   N9        1.0  0.8575757594412325  0.9553707747310013  0.7286573866876935  1.0000
  N   N10       1.0  0.0957526583232422  0.8743117022949817  0.5577647184087411  1.0000
  N   N11       1.0  0.17357704770218157  0.8381104311122272  0.5334301577980582  1.0000
  N   N12       1.0  0.6296167099245339  0.2154252732573738  0.8468245861527208  1.0000
  N   N13       1.0  0.2501181375635042  0.8056758249774061  0.5101661985697916  1.0000
  N   N14       1.0  0.5922598376107546  0.400138169895115  0.0453150406366518  1.0000
  N   N15       1.0  0.5953295140368766  0.31807452549995213  0.008867712127660398  1.0000
  N   N16       1.0  0.6596938685535109  0.26529465391967477  0.0526941388870128  1.0000
  N   N17       1.0  0.6539461245673833  0.4029637661563825  0.11305239573957951  1.0000
  N   N18       1.0  0.919443712438934  0.24245443184636878  0.3049139253693909  1.0000
  N   N19       1.0  0.5831725968162756  0.4301760211361767  0.8359190485449304  1.0000
  N   N20       1.0  0.5741182889134251  0.5003154962434877  0.8895201738962654  1.0000
  N   N21       1.0  0.6260965485491569  0.5711571809096939  0.8626802453640393  1.0000
  N   N22       1.0  0.6424279206600971  0.4553758141901625  0.7713437215588144  1.0000
  N   N23       1.0  0.4042637673280113  0.37431259237464326  0.9422389532400428  1.0000
  N   N24       1.0  0.3264182862526184  0.33811902014137724  0.966550071115435  1.0000
  N   N25       1.0  0.8703950518954501  0.7154221991723801  0.6531634030578174  1.0000
  N   N26       1.0  0.2498638355590259  0.3056955073335742  0.9897900644404132  1.0000
  N   N27       1.0  0.09225545494339829  0.09986698897557739  0.5453171827801241  1.0000
  N   N28       1.0  0.0953204001649866  0.18193125909871802  0.5088731331958201  1.0000
  N   N29       1.0  0.1596797876243343  0.23471364664960953  0.5527002207712712  1.0000
  N   N30       1.0  0.15394248983628242  0.09704393868963732  0.6130558257875621  1.0000
  N   N31       1.0  0.4194536817141667  0.25755325332385576  0.8049056498432776  1.0000
  N   N32       1.0  0.08317463201886711  0.06983371332580646  0.3359124110804856  1.0000
  N   N33       1.0  0.0741237719480594  0.9996951603663292  0.38951497089789905  1.0000
  N   N34       1.0  0.12610377493837183  0.9288550999662845  0.3626781499441237  1.0000
  N   N35       1.0  0.14243129368152552  0.044633482947858696  0.2713364187431182  1.0000
  N   N36       1.0  0.9042674864677522  0.12566883585351718  0.4422299165285253  1.0000
  N   N37       1.0  0.8264307713960051  0.1618633299669767  0.4665534024642  1.0000
  N   N38       1.0  0.37038418221187897  0.784572885083335  0.1531684895456564  1.0000
  N   N39       1.0  0.7498819758745513  0.19429048134352905  0.48980507152250397  1.0000
  N   N40       1.0  0.40774799182391064  0.5998626992915135  0.9546948012386381  1.0000
  N   N41       1.0  0.4046806229236283  0.681927021389022  0.9911351118576732  1.0000
  N   N42       1.0  0.34030856898875317  0.7347007936307434  0.9473124202881564  1.0000
  N   N43       1.0  0.3460493859016863  0.5970282928716699  0.8869636788460653  1.0000
  N   N44       1.0  0.0805556427242777  0.7575342386690378  0.695087461328555  1.0000
  N   N45       1.0  0.4168344615532433  0.5698302696619353  0.16408821818893674  1.0000
  N   N46       1.0  0.4258903098863768  0.4996914722620716  0.1104877560306932  1.0000
  N   N47       1.0  0.37390126602399937  0.4288531760651536  0.13731983714711757  1.0000
  N   N48       1.0  0.35756758413666023  0.544632509672624  0.2286576097119806  1.0000
  N   N49       1.0  0.5957502221033194  0.6256964092537772  0.05776905431219599  1.0000
  N   N50       1.0  0.6735826106669763  0.6618899814439272  0.03345518386544201  1.0000
  N   N51       1.0  0.12960352847433398  0.28457528145536753  0.3468257932867118  1.0000
  N   N52       1.0  0.7501439891957274  0.6943202712862017  0.010207598176144497  1.0000
