data_image0
_chemical_formula_structural       Cd2H12C20Br12N4
_chemical_formula_sum              "Cd2 H12 C20 Br12 N4"
_cell_length_a       3.958365754342115
_cell_length_b       14.291334034526585
_cell_length_c       14.291467452826614
_cell_angle_alpha    89.99902179019863
_cell_angle_beta     90.00152771317373
_cell_angle_gamma    89.99993359914961

_space_group_name_H-M_alt    "P 1"
_space_group_IT_number       1

loop_
  _space_group_symop_operation_xyz
  'x, y, z'

loop_
  _atom_site_type_symbol
  _atom_site_label
  _atom_site_symmetry_multiplicity
  _atom_site_fract_x
  _atom_site_fract_y
  _atom_site_fract_z
  _atom_site_occupancy
  Cd  Cd1       1.0  0.4999959193171151  0.4999993341445262  0.9999956314051486  1.0000
  Cd  Cd2       1.0  0.5000027217165837  0.9999996127480699  0.5000028193877952  1.0000
  H   H1        1.0  0.7096982517551352  0.5294203242129641  0.21796798335712  1.0000
  H   H2        1.0  0.7096653433036266  0.4705847521481348  0.7820176307252638  1.0000
  H   H3        1.0  0.2903137719359775  0.21797421374651552  0.4705771843609909  1.0000
  H   H4        1.0  0.29032995676215023  0.7820260231223134  0.5294277670973813  1.0000
  H   H5        1.0  0.7096828038814634  0.02943006448679601  0.2820300539700185  1.0000
  H   H6        1.0  0.7096908977079224  0.970569413842711  0.7179828492070754  1.0000
  H   H7        1.0  0.29029818299079574  0.7179697917590461  0.0294187784178348  1.0000
  H   H8        1.0  0.2902899661768785  0.2820346436413175  0.9705651812560916  1.0000
  H   H9        1.0  0.49998910435537175  0.8119110097338621  0.3119166719371265  1.0000
  H   H10       1.0  0.500037294310033  0.18808290030232655  0.6880807101453215  1.0000
  H   H11       1.0  0.4999998538493741  0.3119307506727935  0.1880848114989462  1.0000
  H   H12       1.0  0.4999962298985493  0.6880708562241794  0.8119258650533893  1.0000
  C   C1        1.0  0.6156813692522788  0.600165402239071  0.2061054140779532  1.0000
  C   C2        1.0  0.615665239091058  0.3998319903846267  0.7938725183474701  1.0000
  C   C3        1.0  0.38433148246446786  0.20611237755566245  0.39983191874549817  1.0000
  C   C4        1.0  0.38434439051495417  0.7938850472202078  0.600175816487166  1.0000
  C   C5        1.0  0.6156771844989352  0.1001791383334165  0.2938921302712388  1.0000
  C   C6        1.0  0.6156770042163515  0.899823152100112  0.7061165897411429  1.0000
  C   C7        1.0  0.3843253258484011  0.7061032490742536  0.100167030385343  1.0000
  C   C8        1.0  0.3843278097075782  0.2939095697729428  0.8998260105507467  1.0000
  C   C9        1.0  0.6182032921705343  0.6679429396992875  0.2763488559037199  1.0000
  C   C10       1.0  0.6182060123056131  0.33206354885388845  0.7236451883953308  1.0000
  C   C11       1.0  0.3818168070352428  0.2763590227895989  0.3320503068069343  1.0000
  C   C12       1.0  0.38181910707263705  0.7236426007117773  0.6679546111673529  1.0000
  C   C13       1.0  0.6182023558220279  0.16795787504963766  0.2236510482466016  1.0000
  C   C14       1.0  0.6181842128795053  0.8320402166589177  0.7763604889965592  1.0000
  C   C15       1.0  0.3817995830481848  0.7763466378700631  0.16795092328133165  1.0000
  C   C16       1.0  0.381831277467839  0.22364798856345663  0.8320330031880303  1.0000
  C   C17       1.0  0.4999891791888372  0.7580858433484325  0.2580822118950508  1.0000
  C   C18       1.0  0.5000018514955329  0.24190386831789826  0.7419179689673002  1.0000
  C   C19       1.0  0.5000051838605373  0.2580976679082667  0.24192019057696965  1.0000
  C   C20       1.0  0.5000035315244844  0.7419067378569155  0.7580939845885055  1.0000
  Br  Br1       1.0  8.20091649699999e-07  0.40433092637292134  0.09566412106845228  1.0000
  Br  Br2       1.0  0.9999952628366342  0.5956706806674109  0.9043297622468741  1.0000
  Br  Br3       1.0  8.5500950462e-06  0.0956682788101162  0.5956692941640895  1.0000
  Br  Br4       1.0  0.9999976385737951  0.9043291297854881  0.404335784715208  1.0000
  Br  Br5       1.0  0.7829944667047997  0.6359595787015953  0.3970924032267432  1.0000
  Br  Br6       1.0  0.7829447700214517  0.3640370906855637  0.6028944443046242  1.0000
  Br  Br7       1.0  0.21703784891305838  0.3971074609054598  0.3640320956998977  1.0000
  Br  Br8       1.0  0.2170428696136781  0.6028948854137542  0.6359716224092435  1.0000
  Br  Br9       1.0  0.7829615333526474  0.13597937444602343  0.1029050484611247  1.0000
  Br  Br10      1.0  0.7829145475054986  0.8640256913736621  0.8971132860880003  1.0000
  Br  Br11      1.0  0.21699223975321758  0.8970921234456171  0.1359630740492221  1.0000
  Br  Br12      1.0  0.2170430049723606  0.1029032257189684  0.8640301481809658  1.0000
  N   N1        1.0  0.49999805352732807  0.620099902982638  0.1200954605491305  1.0000
  N   N2        1.0  0.49996266133120315  0.37989330735730686  0.8798991224273179  1.0000
  N   N3        1.0  0.49999468579850515  0.12010867200302043  0.3799009011370486  1.0000
  N   N4        1.0  0.500021608305623  0.8798943343420192  0.6201097754769193  1.0000
