data_image0
_chemical_formula_structural       Co4H24C48N16F8
_chemical_formula_sum              "Co4 H24 C48 N16 F8"
_cell_length_a       13.288214549000726
_cell_length_b       13.28819770900598
_cell_length_c       14.609457623006751
_cell_angle_alpha    90.000106104678
_cell_angle_beta     89.99997057234728
_cell_angle_gamma    90.00002389156913

_space_group_name_H-M_alt    "P 1"
_space_group_IT_number       1

loop_
  _space_group_symop_operation_xyz
  'x, y, z'

loop_
  _atom_site_type_symbol
  _atom_site_label
  _atom_site_symmetry_multiplicity
  _atom_site_fract_x
  _atom_site_fract_y
  _atom_site_fract_z
  _atom_site_occupancy
  Co  Co1       1.0  0.5075865580241086  0.5110331714834402  0.6215921758445191  1.0000
  Co  Co2       1.0  0.49241385097074913  0.4889664612339928  0.12158934151043609  1.0000
  Co  Co3       1.0  0.48896712112483703  0.5075862454334654  0.3715924788634125  1.0000
  Co  Co4       1.0  0.5110338993516165  0.49241389649613854  0.8715898043313501  1.0000
  H   H1        1.0  0.45980063113496783  0.2758858761628034  0.3542056082050919  1.0000
  H   H2        1.0  0.5401988940567293  0.7241127252644758  0.8542101550324757  1.0000
  H   H3        1.0  0.724112396551888  0.4598007608379363  0.1042080562832766  1.0000
  H   H4        1.0  0.27588425951869067  0.5401988364724062  0.6042076256043885  1.0000
  H   H5        1.0  0.47819372045012193  0.7412213629678844  0.34672111819369883  1.0000
  H   H6        1.0  0.5218065615116245  0.2587794808579246  0.8467262591107243  1.0000
  H   H7        1.0  0.25878051180635714  0.4781944222378272  0.09672330308505651  1.0000
  H   H8        1.0  0.7412229214072071  0.5218081700184029  0.596722623892468  1.0000
  H   H9        1.0  0.5245172953626493  0.2789859287681651  0.6447988613342517  1.0000
  H   H10       1.0  0.4754808428962534  0.721015256319596  0.14480327049712824  1.0000
  H   H11       1.0  0.7210133413694634  0.5245186362666061  0.39480069264951817  1.0000
  H   H12       1.0  0.278985408370751  0.4754808003901231  0.8948015205316578  1.0000
  H   H13       1.0  0.5370954932403578  0.9169625852588794  0.6381721816191046  1.0000
  H   H14       1.0  0.4629041538515324  0.0830378337809989  0.1381734690332834  1.0000
  H   H15       1.0  0.08303749374501732  0.5370958228900804  0.38817295402127167  1.0000
  H   H16       1.0  0.9169620122819139  0.4629051053618126  0.8881734624710943  1.0000
  H   H17       1.0  0.4510770751855588  0.10306409410545571  0.35537114800097663  1.0000
  H   H18       1.0  0.5489232018964145  0.8969360147871157  0.8553718748031897  1.0000
  H   H19       1.0  0.8969362144549891  0.45107726741188975  0.10537163832410809  1.0000
  H   H20       1.0  0.1030642036918721  0.5489238373650737  0.6053719876175592  1.0000
  H   H21       1.0  0.5148366345258779  0.7441475752479504  0.6412440239639922  1.0000
  H   H22       1.0  0.4851622582848307  0.25585059240920327  0.14124832989204347  1.0000
  H   H23       1.0  0.2558530302759721  0.5148370120246923  0.3912455620011315  1.0000
  H   H24       1.0  0.744148731657056  0.48516316993732284  0.8912448197430222  1.0000
  C   C1        1.0  0.4753271550592686  0.2932434600721052  0.4254177084284406  1.0000
  C   C2        1.0  0.5246738350440836  0.7067545338531854  0.9254194953362429  1.0000
  C   C3        1.0  0.7067556460936615  0.4753266372673294  0.1754187936749361  1.0000
  C   C4        1.0  0.2932424748887287  0.5246731050885175  0.6754183287404771  1.0000
  C   C5        1.0  0.4874357208658467  0.7249190018161827  0.418862041911261  1.0000
  C   C6        1.0  0.5125630152977864  0.2750819889450328  0.9188631076691605  1.0000
  C   C7        1.0  0.2750806516297147  0.48743728753244403  0.16886287768184616  1.0000
  C   C8        1.0  0.7249197306921288  0.512563946564569  0.6688615060588745  1.0000
  C   C9        1.0  0.49207955919755625  0.22838673819645547  0.5000898265363887  1.0000
  C   C10       1.0  0.5079209183555733  0.7716126470414011  8.882982157839998e-05  1.0000
  C   C11       1.0  0.7716123477438687  0.4920799393406342  0.2500889157776101  1.0000
  C   C12       1.0  0.2283879887439255  0.5079199551106299  0.7500918753965563  1.0000
  C   C13       1.0  0.5089855105879124  0.2950045790809028  0.5735231318159818  1.0000
  C   C14       1.0  0.4910141729830356  0.7049964608260384  0.07352408430597991  1.0000
  C   C15       1.0  0.7049938998547347  0.5089867324289159  0.3235228832200221  1.0000
  C   C16       1.0  0.29500639519787347  0.49101331159381084  0.823523729764261  1.0000
  C   C17       1.0  0.49628566113410244  0.7915549033151664  0.4934288613951948  1.0000
  C   C18       1.0  0.5037145380477313  0.20844473423090193  0.9934284501176691  1.0000
  C   C19       1.0  0.20844564571750368  0.4962858031116966  0.24342829718595024  1.0000
  C   C20       1.0  0.7915554470763128  0.503715582865027  0.7434282484886552  1.0000
  C   C21       1.0  0.5171349744546347  0.9556502313575094  0.5750350358181961  1.0000
  C   C22       1.0  0.4828647082630155  0.0443493065335119  0.0750355642733354  1.0000
  C   C23       1.0  0.04434984186467969  0.517136685657448  0.3250350787378693  1.0000
  C   C24       1.0  0.9556504523348721  0.4828648665407584  0.8250362871947345  1.0000
  C   C25       1.0  0.49515535863753973  0.9011122751119984  0.4949101861551242  1.0000
  C   C26       1.0  0.5048448397083335  0.09888661290361259  0.994909589886376  1.0000
  C   C27       1.0  0.09888916592718999  0.4951554554261151  0.24491023859623337  1.0000
  C   C28       1.0  0.9011141836697406  0.5048451810227023  0.7449108250708107  1.0000
  C   C29       1.0  0.47179559521072895  0.9603534840464293  0.41817707117254327  1.0000
  C   C30       1.0  0.5282046464323359  0.0396452476763116  0.9181770487262995  1.0000
  C   C31       1.0  0.039646460736158004  0.4717947853509799  0.1681784314390526  1.0000
  C   C32       1.0  0.9603546745183069  0.5282056948044911  0.66817697608586  1.0000
  C   C33       1.0  0.47026773879927225  0.0643553766897966  0.4186787315028582  1.0000
  C   C34       1.0  0.5297325025606483  0.9356441086030856  0.9186795324503193  1.0000
  C   C35       1.0  0.9356434323373082  0.47026880637022117  0.168680634983609  1.0000
  C   C36       1.0  0.06435619754088151  0.5297331799032817  0.6686796010847332  1.0000
  C   C37       1.0  0.4923180940099314  0.1188970956255275  0.4987426617109988  1.0000
  C   C38       1.0  0.507682102173611  0.881102552743691  0.9987420121589492  1.0000
  C   C39       1.0  0.8811003455742539  0.49231927090687594  0.24874250227851746  1.0000
  C   C40       1.0  0.1188969814880991  0.5076828784417913  0.748743459219007  1.0000
  C   C41       1.0  0.5150555014025642  0.059655886699346204  0.5756113054843438  1.0000
  C   C42       1.0  0.48494418098972153  0.9403428998180914  0.075611972579587  1.0000
  C   C43       1.0  0.9403430505967664  0.5150568317892734  0.325611206532635  1.0000
  C   C44       1.0  0.059655738184481805  0.4849447215825294  0.825612837373356  1.0000
  C   C45       1.0  0.5070146824418629  0.7267079642218589  0.5690051897093724  1.0000
  C   C46       1.0  0.4929850036783847  0.2732930664827009  0.0690060989054473  1.0000
  C   C47       1.0  0.2732940678440984  0.5070134582521888  0.31900399198408275  1.0000
  C   C48       1.0  0.7267062297578875  0.49298507147174325  0.8190053245155723  1.0000
  N   N1        1.0  0.4821429817105738  0.3899511108496512  0.45236060913624226  1.0000
  N   N2        1.0  0.5178594982836913  0.6100476905004086  0.9523608674275508  1.0000
  N   N3        1.0  0.6100488930994886  0.48214246726986687  0.20236027392960657  1.0000
  N   N4        1.0  0.3899514703200139  0.5178573299641017  0.7023618057722204  1.0000
  N   N5        1.0  0.49265987068035594  0.6288586018152813  0.44829426395595107  1.0000
  N   N6        1.0  0.5073373437829645  0.37114169634576644  0.9482941249169912  1.0000
  N   N7        1.0  0.37114095374374767  0.4926600172044643  0.19829311029442204  1.0000
  N   N8        1.0  0.6288594119702254  0.5073382666508834  0.6982951972246809  1.0000
  N   N9        1.0  0.5048232544728676  0.6299596763102213  0.5415386544841496  1.0000
  N   N10       1.0  0.4951749420525147  0.3700405459009133  0.04153904106274809  1.0000
  N   N11       1.0  0.3700407069170382  0.504822784676385  0.2915395666996545  1.0000
  N   N12       1.0  0.6299588536363957  0.4951756891031779  0.7915375257087546  1.0000
  N   N13       1.0  0.5029689292104537  0.3909611274525203  0.5441805778111756  1.0000
  N   N14       1.0  0.4970337811035678  0.6090391001404499  0.0441806814364796  1.0000
  N   N15       1.0  0.609038201520242  0.5029693127065825  0.2941816333679554  1.0000
  N   N16       1.0  0.39096512027587954  0.4970329291928763  0.794179707232658  1.0000
  F   F1        1.0  0.5374580466646819  0.1066314936812987  0.6562289801195788  1.0000
  F   F2        1.0  0.4625415902381818  0.8933674570424729  0.1562302630833798  1.0000
  F   F3        1.0  0.893369076938889  0.5374587381547755  0.40622956118551196  1.0000
  F   F4        1.0  0.1066319239922677  0.4625414743288232  0.906230447857716  1.0000
  F   F5        1.0  0.4483131456363482  0.9135441900151166  0.3377339413971612  1.0000
  F   F6        1.0  0.551687893943587  0.0864551304072521  0.8377360402503626  1.0000
  F   F7        1.0  0.08645487387838101  0.4483122209163711  0.0877359893587482  1.0000
  F   F8        1.0  0.9135440491265642  0.5516888479388128  0.5877359644036559  1.0000
