data_image0
_chemical_formula_structural       Cu2Si2H42C56I2N6
_chemical_formula_sum              "Cu2 Si2 H42 C56 I2 N6"
_cell_length_a       10.081342062728554
_cell_length_b       11.29894668175172
_cell_length_c       14.137
_cell_angle_alpha    112.52924853196993
_cell_angle_beta     95.69620539988696
_cell_angle_gamma    99.37788909132719

_space_group_name_H-M_alt    "P 1"
_space_group_IT_number       1

loop_
  _space_group_symop_operation_xyz
  'x, y, z'

loop_
  _atom_site_type_symbol
  _atom_site_label
  _atom_site_symmetry_multiplicity
  _atom_site_fract_x
  _atom_site_fract_y
  _atom_site_fract_z
  _atom_site_occupancy
  Cu  Cu1       1.0  0.45328189497474375  0.5884455432511757  0.46790096871497155  1.0000
  Cu  Cu2       1.0  0.546715331587535  0.4115551478258936  0.5320983392505738  1.0000
  Si  Si1       1.0  0.6777373186673046  0.1149016270128342  0.7570573482951416  1.0000
  Si  Si2       1.0  0.32226190160246665  0.8850990640642351  0.24294422287530887  1.0000
  H   H1        1.0  0.8304781735926952  0.9812980129216413  0.6579910084232807  1.0000
  H   H2        1.0  0.1695215967771873  0.0187007143103912  0.3420121223754151  1.0000
  H   H3        1.0  0.9075487589144229  0.1518582447340364  0.7097330537634007  1.0000
  H   H4        1.0  0.0924510114554593  0.8481404824980031  0.2902686623079873  1.0000
  H   H5        1.0  0.7781620666640308  0.0823027814160469  0.5977320120031634  1.0000
  H   H6        1.0  0.221839697413337  0.9176959458159856  0.4022698451821539  1.0000
  H   H7        1.0  0.6138716290456188  0.8253687174377546  0.6348308118916748  1.0000
  H   H8        1.0  0.3861258208934757  0.174632955561826  0.36517022731102594  1.0000
  H   H9        1.0  0.1869698124524888  0.6003837571963473  0.44859265884222305  1.0000
  H   H10       1.0  0.8130321750016947  0.3996159519582037  0.551408807489281  1.0000
  H   H11       1.0  0.9608767300720233  0.6572115408665907  0.42473838406341  1.0000
  H   H12       1.0  0.03912314364434621  0.34278325867538223  0.5752635512528954  1.0000
  H   H13       1.0  0.9327020509427655  0.8847652104089149  0.5187770306451398  1.0000
  H   H14       1.0  0.067294608835553  0.1152286072105397  0.4812229617631161  1.0000
  H   H15       1.0  0.1309225842298787  0.059326776472552495  0.6370271653987202  1.0000
  H   H16       1.0  0.8690719784944676  0.9406709688369688  0.3629689298324124  1.0000
  H   H17       1.0  0.37844318302074953  0.12676030523423518  0.7139174922659279  1.0000
  H   H18       1.0  0.6215552637720875  0.8732413677653454  0.28607725122083144  1.0000
  H   H19       1.0  0.5409333586651712  0.0270352726231593  0.910288378709339  1.0000
  H   H20       1.0  0.4590668584583426  0.97296541845391  0.08971397038172312  1.0000
  H   H21       1.0  0.7957539021784541  0.057616267450299595  0.2073577148046439  1.0000
  H   H22       1.0  0.20424664166836246  0.9423814778592144  0.7926437553138682  1.0000
  H   H23       1.0  0.04134055236869471  0.1388870483024078  0.2910159389457334  1.0000
  H   H24       1.0  0.9586607649550486  0.861109715084595  0.7089845778562491  1.0000
  H   H25       1.0  0.2121044826805658  0.22284535107982606  0.2042319502790946  1.0000
  H   H26       1.0  0.7878970580199933  0.7771523942296952  0.7957681756690675  1.0000
  H   H27       1.0  0.13896086438145264  0.2302225349398412  0.033690058525408524  1.0000
  H   H28       1.0  0.8610395761188769  0.7697791380597394  0.966312607075494  1.0000
  H   H29       1.0  0.9508884463681823  0.1921219774879148  0.8901007340236973  1.0000
  H   H30       1.0  0.04911077390158171  0.8078787135891473  0.10990083714675343  1.0000
  H   H31       1.0  0.5995032035888173  0.21573525014406408  0.6043348305697905  1.0000
  H   H32       1.0  0.40049723691150513  0.7842664228555164  0.39566217612187415  1.0000
  H   H33       1.0  0.4928354720088635  0.6182930419591344  0.6908206127631898  1.0000
  H   H34       1.0  0.5071655185915774  0.3817066671954166  0.3091786609203808  1.0000
  H   H35       1.0  0.48885767083477566  0.8061996260873981  0.8575903636251638  1.0000
  H   H36       1.0  0.5111435431424809  0.193801064989664  0.1424078118409327  1.0000
  H   H37       1.0  0.5709285134697453  0.8023779836565268  0.026931541537031502  1.0000
  H   H38       1.0  0.4290744708381808  0.19762172549802404  0.9730685806241225  1.0000
  H   H39       1.0  0.6403563120932106  0.6026863654955292  0.03341847298613491  1.0000
  H   H40       1.0  0.3596466722147155  0.3973133436590217  0.9665795270840505  1.0000
  H   H41       1.0  0.6744102033636779  0.3764769478771086  0.9398970797235078  1.0000
  H   H42       1.0  0.3255913373368813  0.6235207974324054  0.06010163149734644  1.0000
  C   C1        1.0  0.8108939275352185  0.07904770827669688  0.6728943430416905  1.0000
  C   C2        1.0  0.1891068396884137  0.9209510189553426  0.3271067362230085  1.0000
  C   C3        1.0  0.5135087477242094  0.9911800811190544  0.6855681827051257  1.0000
  C   C4        1.0  0.4864879287379508  0.0088225738030374  0.31443168772313607  1.0000
  C   C5        1.0  0.5177813809393612  0.857828130037319  0.6302050632703029  1.0000
  C   C6        1.0  0.4822148487691749  0.14217256103974307  0.3697962962292464  1.0000
  C   C7        1.0  0.2874570964793932  0.7969833013555884  0.5565184539612034  1.0000
  C   C8        1.0  0.712544340874679  0.2030183716439922  0.44348074537838755  1.0000
  C   C9        1.0  0.17358949020726303  0.700299282775454  0.4887914689348776  1.0000
  C   C10       1.0  0.8264105035394351  0.299700426379097  0.5112077341917284  1.0000
  C   C11       1.0  0.04880203618912302  0.7325230339712689  0.4758517212144966  1.0000
  C   C12       1.0  0.9511936267354528  0.2674707836481929  0.5241467859094867  1.0000
  C   C13       1.0  0.03260999676368934  0.8621063664379705  0.5297221628896196  1.0000
  C   C14       1.0  0.9673871097682607  0.137889415026514  0.4702763404473487  1.0000
  C   C15       1.0  0.14209738087713933  0.958706921604275  0.5955347221769642  1.0000
  C   C16       1.0  0.8578979553241339  0.04128984178272789  0.4044611271012926  1.0000
  C   C17       1.0  0.2720490447811557  0.9290400966391984  0.6104081855479676  1.0000
  C   C18       1.0  0.7279518424727981  0.070963540205419  0.3895901615270319  1.0000
  C   C19       1.0  0.3885160552868854  0.0252020232864538  0.6747775083837837  1.0000
  C   C20       1.0  0.6114823915059517  0.9747996497131267  0.32521935719394424  1.0000
  C   C21       1.0  0.7387909047990747  0.1117653664978704  0.8853896183216392  1.0000
  C   C22       1.0  0.26121053255499765  0.8882363065017103  0.11461170310892047  1.0000
  C   C23       1.0  0.6505994370554616  0.06328392421058739  0.9414564197659842  1.0000
  C   C24       1.0  0.3494012268216764  0.9367187307115117  0.05854726970841283  1.0000
  C   C25       1.0  0.8262437685893501  0.1002621442271305  0.0740354472056808  1.0000
  C   C26       1.0  0.1737574453879063  0.8997385468499316  0.9259669724423459  1.0000
  C   C27       1.0  0.8715696970480593  0.0953849350919427  0.17027644742021408  1.0000
  C   C28       1.0  0.12843107017557293  0.904613792140097  0.8297253392081387  1.0000
  C   C29       1.0  0.007806400311942203  0.1396539297871229  0.21566086680709864  1.0000
  C   C30       1.0  0.9921941435348673  0.8603438155223913  0.7843398959477526  1.0000
  C   C31       1.0  0.10517668785945491  0.1884937737926222  0.1665846607622967  1.0000
  C   C32       1.0  0.8948230825104275  0.8115049534394103  0.8334163479454304  1.0000
  C   C33       1.0  0.0645476408862606  0.1933916033006398  0.07243031448317082  1.0000
  C   C34       1.0  0.9354515793835105  0.8066090877764225  0.9275719640509337  1.0000
  C   C35       1.0  0.9248255495189566  0.1507948226495941  0.024665751370257283  1.0000
  C   C36       1.0  0.07517344737399166  0.8492048865049568  0.9753355032903458  1.0000
  C   C37       1.0  0.8765576146164307  0.1550485109873563  0.9290399323740245  1.0000
  C   C38       1.0  0.12344449286808162  0.8449561077797725  0.07096304594971058  1.0000
  C   C39       1.0  0.6404658502081161  0.2781825763713215  0.7722040869844237  1.0000
  C   C40       1.0  0.3595369107230013  0.721816150860711  0.22779288921226742  1.0000
  C   C41       1.0  0.6033629980824742  0.2955135087724017  0.6796020034705491  1.0000
  C   C42       1.0  0.3966382158947823  0.7044871823046674  0.3203947572682324  1.0000
  C   C43       1.0  0.5699251631693941  0.5054131934060067  0.7679446144228521  1.0000
  C   C44       1.0  0.4300770476616051  0.49458749767105553  0.2320550463275239  1.0000
  C   C45       1.0  0.5260961325356561  0.6173975286248704  0.7663630982084513  1.0000
  C   C46       1.0  0.47390552819523174  0.3826051262972285  0.2336378323682879  1.0000
  C   C47       1.0  0.5248308394284393  0.7207978972119875  0.8585834965559441  1.0000
  C   C48       1.0  0.4751705979256328  0.2792037757875931  0.1414149954199928  1.0000
  C   C49       1.0  0.5688204027362289  0.7173729514774294  0.9555806703162232  1.0000
  C   C50       1.0  0.431183578425447  0.2826267576771215  0.044415985583619  1.0000
  C   C51       1.0  0.6090882459276941  0.6080378432057714  0.9592118288574056  1.0000
  C   C52       1.0  0.3909157352339747  0.3919618659487795  0.04078694913340539  1.0000
  C   C53       1.0  0.6092323862313904  0.49893348672529203  0.8659264367256299  1.0000
  C   C54       1.0  0.39077226506072554  0.5010691681968069  0.13407258343104192  1.0000
  C   C55       1.0  0.6451338523786205  0.3827092100838883  0.8656547893211837  1.0000
  C   C56       1.0  0.3548641476605923  0.6172904990706627  0.1343435653278391  1.0000
  I   I1        1.0  0.2838567940076615  0.3879399113247075  0.47253226282720817  1.0000
  I   I2        1.0  0.7161398824544989  0.6120627435973844  0.5274690223283613  1.0000
  N   N1        1.0  0.4121368318878851  0.7636725619349676  0.5674405440362733  1.0000
  N   N2        1.0  0.5878629384820043  0.23632616529707207  0.4325583425804851  1.0000
  N   N3        1.0  0.6903325507066356  0.05722153459901589  0.03133700561981811  1.0000
  N   N4        1.0  0.3096686632706139  0.9427791564780534  0.9686647066645547  1.0000
  N   N5        1.0  0.5718898796504988  0.403343329827578  0.6752134950998254  1.0000
  N   N6        1.0  0.4281117810803893  0.5966593250945209  0.32478885020422865  1.0000
