data_image0
_chemical_formula_structural       B10H10Pb2C2N2O18
_chemical_formula_sum              "B10 H10 Pb2 C2 N2 O18"
_cell_length_a       6.7265494533438295
_cell_length_b       6.786965428760651
_cell_length_c       10.720884006879626
_cell_angle_alpha    99.53001183467526
_cell_angle_beta     93.33055708331065
_cell_angle_gamma    118.98851275257378

_space_group_name_H-M_alt    "P 1"
_space_group_IT_number       1

loop_
  _space_group_symop_operation_xyz
  'x, y, z'

loop_
  _atom_site_type_symbol
  _atom_site_label
  _atom_site_symmetry_multiplicity
  _atom_site_fract_x
  _atom_site_fract_y
  _atom_site_fract_z
  _atom_site_occupancy
  B   B1        1.0  0.19169920627195577  0.39419642841843217  0.6936000451285124  1.0000
  B   B2        1.0  0.8082989806670896  0.6058017887735545  0.30640111791099395  1.0000
  B   B3        1.0  0.3176520123317985  0.6633603723371168  0.901970732091094  1.0000
  B   B4        1.0  0.6823431960300397  0.33663784432725663  0.09803031751645358  1.0000
  B   B5        1.0  0.3858410611627152  0.8189646640923985  0.7021419600246546  1.0000
  B   B6        1.0  0.6141594792843605  0.18103527324085894  0.2978585346487108  1.0000
  B   B7        1.0  0.7577878828167356  0.11307286644183992  0.649784916013047  1.0000
  B   B8        1.0  0.24221265763033978  0.8869270708914102  0.35021557866031827  1.0000
  B   B9        1.0  0.44667665172060106  0.20213030901096826  0.6684398535403487  1.0000
  B   B10       1.0  0.5533217743331136  0.7978713552668567  0.3315607361604548  1.0000
  H   H1        1.0  0.40801577381586907  0.8703191400422982  0.07504680099564351  1.0000
  H   H2        1.0  0.5919847665600385  0.1296808124803803  0.9249555607607576  1.0000
  H   H3        1.0  0.6919805462930955  0.7039188198566112  0.8582225706407343  1.0000
  H   H4        1.0  0.30802234769758746  0.29608283002320235  0.1417763221249757  1.0000
  H   H5        1.0  0.8731906310600338  0.6214096986363415  0.8983708810858956  1.0000
  H   H6        1.0  0.12680990945820264  0.3785902235074873  0.10162774650444109  1.0000
  H   H7        1.0  0.9854857233537757  0.09803175079617432  0.8830439829921487  1.0000
  H   H8        1.0  0.014520149249691  0.9019698920165385  0.11695408966401291  1.0000
  H   H9        1.0  0.1928286708567413  0.0230468239194579  0.9227111283616053  1.0000
  H   H10       1.0  0.8071748482386955  0.9769530987519776  0.07728761266069033  1.0000
  Pb  Pb1       1.0  0.8629373194227979  0.6868244186159345  0.6175339598011007  1.0000
  Pb  Pb2       1.0  0.13706322105985444  0.31317551112260844  0.38246560133075747  1.0000
  C   C1        1.0  0.015103292287719257  0.9807918444422657  0.9299721482366649  1.0000
  C   C2        1.0  0.9849017161319084  0.0192080708982658  0.07002571596009939  1.0000
  N   N1        1.0  0.8588325657812704  0.7418636315324963  0.8576845694549533  1.0000
  N   N2        1.0  0.14116350687116616  0.25813628981991604  0.1423138879874486  1.0000
  O   O1        1.0  0.3022017335064007  0.981230957424181  0.6797449266870501  1.0000
  O   O2        1.0  0.6977938608811131  0.018762077351262004  0.3202556109742716  1.0000
  O   O3        1.0  0.6055943480655516  0.8876824325730158  0.6507424693776898  1.0000
  O   O4        1.0  0.39440470305734016  0.11231751209114552  0.349258902121214  1.0000
  O   O5        1.0  0.6797658632930563  0.27082767558859194  0.6605737100019978  1.0000
  O   O6        1.0  0.3202329488219108  0.7291687992055956  0.3394254342110655  1.0000
  O   O7        1.0  0.3915856783330796  0.3669812907269757  0.6591516301793233  1.0000
  O   O8        1.0  0.6084110192817818  0.633016933795915  0.3408504096857143  1.0000
  O   O9        1.0  0.9780032452528431  0.17385788236267533  0.633752871088376  1.0000
  O   O10       1.0  0.021996670125055573  0.8261437745842386  0.3662468417868893  1.0000
  O   O11       1.0  0.20118022612206232  0.4414333125302719  0.8319818857007277  1.0000
  O   O12       1.0  0.7988143571706132  0.5585666237477654  0.16801838210871978  1.0000
  O   O13       1.0  0.4351170052027699  0.8468493312150261  0.8428943597815178  1.0000
  O   O14       1.0  0.5648858886811681  0.15315234144892997  0.1571073336087423  1.0000
  O   O15       1.0  0.2045959803703425  0.586832168110604  0.6399769948558358  1.0000
  O   O16       1.0  0.795404560147894  0.41316775403322487  0.36002163273450083  1.0000
  O   O17       1.0  0.32034789792300683  0.703196533300641  0.03210896848707987  1.0000
  O   O18       1.0  0.6796454350889789  0.2968068725835736  0.9678934698922317  1.0000
