data_image0
_chemical_formula_structural       Zn2H26C40N14O8
_chemical_formula_sum              "Zn2 H26 C40 N14 O8"
_cell_length_a       10.054287839412865
_cell_length_b       10.147667957810107
_cell_length_c       13.987079787290293
_cell_angle_alpha    81.70789680535924
_cell_angle_beta     79.28448246473742
_cell_angle_gamma    69.7395862317767

_space_group_name_H-M_alt    "P 1"
_space_group_IT_number       1

loop_
  _space_group_symop_operation_xyz
  'x, y, z'

loop_
  _atom_site_type_symbol
  _atom_site_label
  _atom_site_symmetry_multiplicity
  _atom_site_fract_x
  _atom_site_fract_y
  _atom_site_fract_z
  _atom_site_occupancy
  Zn  Zn1       1.0  0.8642671206264084  0.39904036689009104  0.9758684407976259  1.0000
  Zn  Zn2       1.0  0.1357311306546691  0.600963246632894  0.02413139080617547  1.0000
  H   H1        1.0  0.8946328656871854  0.930111138315226  0.9638168983904903  1.0000
  H   H2        1.0  0.1053664044968983  0.06989246543888332  0.036184226732054  1.0000
  H   H3        1.0  0.5613725559393357  0.8062691769548422  0.8872107873523587  1.0000
  H   H4        1.0  0.438626052457181  0.1937333726751831  0.1127912505193152  1.0000
  H   H5        1.0  0.5260009613347592  0.24702828561564155  0.8606372378729146  1.0000
  H   H6        1.0  0.4740003301227205  0.7529753176022213  0.1393621848608575  1.0000
  H   H7        1.0  0.5586199840122816  0.509215120981196  0.0707194352880336  1.0000
  H   H8        1.0  0.4413779819747033  0.49078323061773005  0.9292802617651857  1.0000
  H   H9        1.0  0.41074133166962656  0.507622740642276  0.23291936330878824  1.0000
  H   H10       1.0  0.5892579993140572  0.4923745499624843  0.7670809739135434  1.0000
  H   H11       1.0  0.8019455390366231  0.2716173256598254  0.35281007360613603  1.0000
  H   H12       1.0  0.1980541021300724  0.7283820766281508  0.6471885744079343  1.0000
  H   H13       1.0  0.9343747374170803  0.2828765749744734  0.1824541338457024  1.0000
  H   H14       1.0  0.06562455765592998  0.7171238785387999  0.8175451675179914  1.0000
  H   H15       1.0  0.5782026847782477  0.32367968025246796  0.4651377380887424  1.0000
  H   H16       1.0  0.4217973079930104  0.6763186644763837  0.5348616863844596  1.0000
  H   H17       1.0  0.13388403780246702  0.5490979273249934  0.4909140279071805  1.0000
  H   H18       1.0  0.866115293181217  0.45089936327976704  0.5090863093151581  1.0000
  H   H19       1.0  0.9155118329458957  0.6077048013866602  0.6142472333327404  1.0000
  H   H20       1.0  0.08448987091573908  0.3922914311227288  0.38575217795995786  1.0000
  H   H21       1.0  0.7945384301017101  0.5727029357599704  0.7846057945630278  1.0000
  H   H22       1.0  0.20546460284594295  0.427295398663759  0.2153932210401379  1.0000
  H   H23       1.0  0.16096286481390354  0.2662113193858673  0.8639939527821596  1.0000
  H   H24       1.0  0.8390341181807416  0.7337838790734209  0.13600548661097628  1.0000
  H   H25       1.0  0.29889029847485193  0.28537482951418985  0.6976577524853551  1.0000
  H   H26       1.0  0.7011094117577555  0.7146182501236852  0.3023422523416386  1.0000
  C   C1        1.0  0.7157799414407576  0.10028627991739823  0.9137363941877864  1.0000
  C   C2        1.0  0.2842213582830412  0.8997173137997194  0.08626517325910037  1.0000
  C   C3        1.0  0.7925801804127914  0.9581864893536717  0.9366506461642813  1.0000
  C   C4        1.0  0.20741874367761434  0.04181816562572751  0.06335113230787928  1.0000
  C   C5        1.0  0.7356402590992487  0.8535642474556298  0.9266834914748115  1.0000
  C   C6        1.0  0.26435800320358277  0.1464393533996855  0.07331919974648568  1.0000
  C   C7        1.0  0.604443194968823  0.8897312461674574  0.8921096012431065  1.0000
  C   C8        1.0  0.3955591264134242  0.1102723346138603  0.10789397462689719  1.0000
  C   C9        1.0  0.5312835354791403  0.031358181570539004  0.8661893507512984  1.0000
  C   C10       1.0  0.46871503149581906  0.9686475373018266  0.13381022145298252  1.0000
  C   C11       1.0  0.5857943751014504  0.1365249029308231  0.8778221135474664  1.0000
  C   C12       1.0  0.41420828410816307  0.8634776361259572  0.12217866425979906  1.0000
  C   C13       1.0  0.7685431541250553  0.21567249590814436  0.9303791282956695  1.0000
  C   C14       1.0  0.23145988433347495  0.7843258321817502  0.06962131711624404  1.0000
  C   C15       1.0  0.8144553653605513  0.7007079234634048  0.9530552110028268  1.0000
  C   C16       1.0  0.18554320712528488  0.2992977890751264  0.046945791010209285  1.0000
  C   C17       1.0  0.6086101156655204  0.45655876193234246  0.13478915363491237  1.0000
  C   C18       1.0  0.3913898771057304  0.5434395827965018  0.8652102708382896  1.0000
  C   C19       1.0  0.5260946666076619  0.45510566231548216  0.22601357023768995  1.0000
  C   C20       1.0  0.47390633955572536  0.5448926789783285  0.7739857179454928  1.0000
  C   C21       1.0  0.5942986925231182  0.3870886235811782  0.30733692533954127  1.0000
  C   C22       1.0  0.40570164909726003  0.6129086667554589  0.6926625606884114  1.0000
  C   C23       1.0  0.7440141134449904  0.3256903518779595  0.29216041430665024  1.0000
  C   C24       1.0  0.25598619777559145  0.6743100950333557  0.7078394656714053  1.0000
  C   C25       1.0  0.818539940655114  0.33126201111437575  0.19830536384520056  1.0000
  C   C26       1.0  0.1814607166591529  0.6687373845716423  0.8016938627832316  1.0000
  C   C27       1.0  0.5160966049936777  0.37465414202907965  0.40500190594320157  1.0000
  C   C28       1.0  0.48390339053301545  0.6253441995328545  0.5949982334343744  1.0000
  C   C29       1.0  0.19247973367096444  0.46787661596435026  0.5431991497621098  1.0000
  C   C30       1.0  0.8075216213415498  0.5321206709372462  0.45680019997583066  1.0000
  C   C31       1.0  0.11846372412043848  0.4486156743243014  0.6415046463845684  1.0000
  C   C32       1.0  0.8815366174999398  0.5513816160123356  0.3584948396433844  1.0000
  C   C33       1.0  0.9744028584625827  0.5301256589005519  0.667044712830588  1.0000
  C   C34       1.0  0.025597134308668498  0.4698726858282924  0.3329547116426069  1.0000
  C   C35       1.0  0.9060496354884222  0.5116380331515843  0.761532815011577  1.0000
  C   C36       1.0  0.09395203521798119  0.48836135909939327  0.23846627532685008  1.0000
  C   C37       1.0  0.11101610584584173  0.339640530921514  0.8060023218674247  1.0000
  C   C38       1.0  0.8889825550839563  0.6603557150599074  0.1939967833909292  1.0000
  C   C39       1.0  0.18711261777141894  0.3504753146881542  0.7134732178902325  1.0000
  C   C40       1.0  0.8128856915538165  0.649521988852392  0.2865251109089967  1.0000
  N   N1        1.0  0.3995029899174367  0.0780816196049372  0.8288817443044036  1.0000
  N   N2        1.0  0.6004996527595453  0.9219209384533471  0.17111474407661106  1.0000
  N   N3        1.0  0.3401627621426754  0.9931345892702554  0.8210644205512238  1.0000
  N   N4        1.0  0.65984293724334  0.006867939481402602  0.17893594838599816  1.0000
  N   N5        1.0  0.2712031756374246  0.928721620703996  0.809493347129738  1.0000
  N   N6        1.0  0.7287941313174287  0.07127567360392822  0.1905079775769991  1.0000
  N   N7        1.0  0.752358303667144  0.39540344207480166  0.1209949332686335  1.0000
  N   N8        1.0  0.2476403268628502  0.6045959604812906  0.8790045659398229  1.0000
  N   N9        1.0  0.37727815182881136  0.4196016430003553  0.4217346087230424  1.0000
  N   N10       1.0  0.6227218409424393  0.5803967017284962  0.5782648157501525  1.0000
  N   N11       1.0  0.3242943189201313  0.3915357697719841  0.5179687217457952  1.0000
  N   N12       1.0  0.6757070388478182  0.6084615139627019  0.4820313428965193  1.0000
  N   N13       1.0  0.9734649493400769  0.41931036154931417  0.830194967593563  1.0000
  N   N14       1.0  0.026534030039044903  0.5806879866145777  0.16980459316965119  1.0000
  O   O1        1.0  0.8891548184989235  0.18198162811719956  0.9606487986758409  1.0000
  O   O2        1.0  0.11084584157078578  0.8180177644019012  0.03935114285696529  1.0000
  O   O3        1.0  0.6901572235772733  0.34391994552872523  0.9160743673942378  1.0000
  O   O4        1.0  0.3098474983272795  0.6560794237494604  0.08392717369164866  1.0000
  O   O5        1.0  0.9439386111051106  0.6668389111905455  0.9655952005654597  1.0000
  O   O6        1.0  0.056057964996256315  0.33316365164338885  0.034405680077490786  1.0000
  O   O7        1.0  0.7462778400176902  0.6138196794004714  0.9587824509217595  1.0000
  O   O8        1.0  0.2537217652383319  0.38618288579601784  0.04121516123366577  1.0000
