data_image0
_chemical_formula_structural       FeH18PdC26N10
_chemical_formula_sum              "Fe1 H18 Pd1 C26 N10"
_cell_length_a       6.855368685045807
_cell_length_b       7.242309656508389
_cell_length_c       12.846519743083226
_cell_angle_alpha    77.94669069117059
_cell_angle_beta     78.48791268614325
_cell_angle_gamma    89.93473048321633

_space_group_name_H-M_alt    "P 1"
_space_group_IT_number       1

loop_
  _space_group_symop_operation_xyz
  'x, y, z'

loop_
  _atom_site_type_symbol
  _atom_site_label
  _atom_site_symmetry_multiplicity
  _atom_site_fract_x
  _atom_site_fract_y
  _atom_site_fract_z
  _atom_site_occupancy
  Fe  Fe1       1.0  0.5000022744061995  0.5000059081150213  8.797220368711074e-08  1.0000
  H   H1        1.0  0.9119544428480779  0.5046435007024785  0.8759107525694322  1.0000
  H   H2        1.0  0.08805056598762921  0.4953640001015815  0.12408852112823615  1.0000
  H   H3        1.0  0.3623377719524542  0.624266995014118  0.7944394907867294  1.0000
  H   H4        1.0  0.6376638345749015  0.3757306013233119  0.2055597694733322  1.0000
  H   H5        1.0  0.0810809556506555  0.5495079068278486  0.6810438344938137  1.0000
  H   H6        1.0  0.9189192304519127  0.45049109163097983  0.3189538506251425  1.0000
  H   H7        1.0  0.8738845073967813  0.6359527911699275  0.5365821583661372  1.0000
  H   H8        1.0  0.1261108360475589  0.3640377340844126  0.46341860735043394  1.0000
  H   H9        1.0  0.6692891655366396  0.8160699470859853  0.2775754076271113  1.0000
  H   H10       1.0  0.3307030155430297  0.18391633604775146  0.7224261986206388  1.0000
  H   H11       1.0  0.16330485812780185  0.8219533685399585  0.5351383533619443  1.0000
  H   H12       1.0  0.836689356519237  0.1780456489102846  0.46486385016465465  1.0000
  H   H13       1.0  0.45893769710922083  0.9250940040052172  0.1396600768582772  1.0000
  H   H14       1.0  0.5410561543014509  0.07489652478277972  0.8603416239111967  1.0000
  H   H15       1.0  0.9499942958016521  0.9260980126278684  0.39832366513119427  1.0000
  H   H16       1.0  0.05000456992289062  0.07390524826610802  0.6016775410073836  1.0000
  H   H17       1.0  0.10132024856088154  0.9812479629923705  0.20045255578038734  1.0000
  H   H18       1.0  0.8986771251299858  0.018755301435270207  0.799549585411086  1.0000
  Pd  Pd1       1.0  3.923978006499259e-06  7.002198756800069e-06  0.9999989355850405  1.0000
  C   C1        1.0  0.21302937864543037  0.8199835949530867  0.9798487950901704  1.0000
  C   C2        1.0  0.7869818249852614  0.1800295734895272  0.020150705148914465  1.0000
  C   C3        1.0  0.8034641144631537  0.7898460492630408  0.020536754802243682  1.0000
  C   C4        1.0  0.19655013488122117  0.21016852527037605  0.9794606997252234  1.0000
  C   C5        1.0  0.828241450325706  0.5419354813380082  0.8116261463170675  1.0000
  C   C6        1.0  0.17176201811336972  0.4580705904144368  0.18837112525510957  1.0000
  C   C7        1.0  0.5209131854505387  0.6084637841643072  0.7669471622137681  1.0000
  C   C8        1.0  0.47908842107681693  0.39153381217312955  0.23305209804628646  1.0000
  C   C9        1.0  0.9209914288690016  0.5673170890171519  0.7024628730253328  1.0000
  C   C10       1.0  0.0790101809792034  0.432680502463491  0.2975356090386754  1.0000
  C   C11       1.0  0.6049123927953559  0.6420700249095078  0.6558571513022217  1.0000
  C   C12       1.0  0.3950844943664721  0.3579219245396601  0.3441448383437873  1.0000
  C   C13       1.0  0.8088917698482945  0.6161642817589551  0.6228167226230641  1.0000
  C   C14       1.0  0.1911037134929572  0.3838290455276552  0.37717980090157976  1.0000
  C   C15       1.0  0.4271278812313001  0.8110373853296126  0.4141150093644584  1.0000
  C   C16       1.0  0.5728675888265756  0.18895596138415977  0.5858846269443988  1.0000
  C   C17       1.0  0.5118671510276656  0.8421573839670419  0.3025915367225097  1.0000
  C   C18       1.0  0.4881268269965418  0.1578359662803877  0.6974090346392431  1.0000
  C   C19       1.0  0.22448795714657174  0.843684565326676  0.44843009252343796  1.0000
  C   C20       1.0  0.7755107236389377  0.15631445609297154  0.5515716404326342  1.0000
  C   C21       1.0  0.39408123672890844  0.9023754215139593  0.22609783681636492  1.0000
  C   C22       1.0  0.6059143466591125  0.09762076608640773  0.7739037828689991  1.0000
  C   C23       1.0  0.10802410092681923  0.9036384643658482  0.3718848928998782  1.0000
  C   C24       1.0  0.8919732727640479  0.09636480006178519  0.6281172482915949  1.0000
  C   C25       1.0  0.19266784418876176  0.9330237773066019  0.26068960719680234  1.0000
  C   C26       1.0  0.8073292862375823  0.06697382963180591  0.7393124582219388  1.0000
  N   N1        1.0  0.3291668226966351  0.7014252128882179  0.9787916107509533  1.0000
  N   N2        1.0  0.6708443809340565  0.2985879555544032  0.021207889488138693  1.0000
  N   N3        1.0  0.6878850406717872  0.6697154785395726  0.022364444221644016  1.0000
  N   N4        1.0  0.3121276583134219  0.3302976815126045  0.9776333427684991  1.0000
  N   N5        1.0  0.6297412098339876  0.5576014471932426  0.8437872263747227  1.0000
  N   N6        1.0  0.3702636690673558  0.44240323700817913  0.15621395492671303  1.0000
  N   N7        1.0  0.4719973071793717  0.6990582130526235  0.5853879284585376  1.0000
  N   N8        1.0  0.5280010170114764  0.3009323099912039  0.414611745348296  1.0000
  N   N9        1.0  0.5564044998911797  0.7494829334456912  0.48594725229552455  1.0000
  N   N10       1.0  0.4435896014257068  0.2505132431179576  0.5140529678545676  1.0000
