data_image0
_chemical_formula_structural       Zn4H84C110Br4N4O16
_chemical_formula_sum              "Zn4 H84 C110 Br4 N4 O16"
_cell_length_a       16.521811534130613
_cell_length_b       17.938558150473227
_cell_length_c       33.27293641211253
_cell_angle_alpha    90.21845600438502
_cell_angle_beta     89.86305676352387
_cell_angle_gamma    89.97630425939252

_space_group_name_H-M_alt    "P 1"
_space_group_IT_number       1

loop_
  _space_group_symop_operation_xyz
  'x, y, z'

loop_
  _atom_site_type_symbol
  _atom_site_label
  _atom_site_symmetry_multiplicity
  _atom_site_fract_x
  _atom_site_fract_y
  _atom_site_fract_z
  _atom_site_occupancy
  Zn  Zn1       1.0  0.5844843107499216  0.4999261065571689  0.5004859113171066  1.0000
  Zn  Zn2       1.0  0.4155150551841302  0.499946529763598  0.5006538534848348  1.0000
  Zn  Zn3       1.0  0.41553410595774654  0.5022002383042193  0.9616449504257649  1.0000
  Zn  Zn4       1.0  0.5844967289922136  0.5021374430383077  0.9614991670448209  1.0000
  H   H1        1.0  0.28697383230291246  0.5809795356218431  0.5447474023076071  1.0000
  H   H2        1.0  0.2879735162220172  0.4188287868085895  0.4563943201209853  1.0000
  H   H3        1.0  0.7124101820369191  0.5810639966624225  0.5445818371089716  1.0000
  H   H4        1.0  0.7125716678700228  0.41876261222527944  0.4563093730484341  1.0000
  H   H5        1.0  0.6292914529036223  0.7374883684852733  0.5006090086489865  1.0000
  H   H6        1.0  0.3704975908193688  0.7376190293960222  0.5004289512822098  1.0000
  H   H7        1.0  0.6294945429057605  0.2622247486945498  0.4999957657058405  1.0000
  H   H8        1.0  0.3706994226278439  0.2624284050551537  0.49999078068922403  1.0000
  H   H9        1.0  0.37075626040985543  0.5004063310921651  0.6288265774287538  1.0000
  H   H10       1.0  0.6290423185000052  0.5002757138223262  0.6284169657008223  1.0000
  H   H11       1.0  0.629392055259764  0.5011045773915229  0.8333803734469571  1.0000
  H   H12       1.0  0.37110543350257064  0.501166625653326  0.8337955515936104  1.0000
  H   H13       1.0  0.3703868099025911  0.5024676687384827  0.08981941853168253  1.0000
  H   H14       1.0  0.6291678971775737  0.5024591882165412  0.08946538041929131  1.0000
  H   H15       1.0  0.37083929026472623  0.5001521537994762  0.37265017519194293  1.0000
  H   H16       1.0  0.6296135664010762  0.50039732776321  0.3722425820025564  1.0000
  H   H17       1.0  0.7127554469039479  0.583081327632442  0.9174583957036193  1.0000
  H   H18       1.0  0.7122925494940375  0.4218424631941886  0.005619875319951001  1.0000
  H   H19       1.0  0.28766885507867107  0.5831351659244463  0.917600096032864  1.0000
  H   H20       1.0  0.28734171063170066  0.42161426895082604  0.005616859582815402  1.0000
  H   H21       1.0  0.370641944848785  0.7398650400554986  0.9609236847864582  1.0000
  H   H22       1.0  0.6294316110616976  0.7396674858563587  0.9610885788249635  1.0000
  H   H23       1.0  0.37069003811000556  0.26464185107771954  0.9616469314556328  1.0000
  H   H24       1.0  0.6294651319609343  0.2645274006413487  0.9615730850404777  1.0000
  H   H25       1.0  0.1433892244731823  0.3411055207077851  0.45171195379991513  1.0000
  H   H26       1.0  0.060150909360793  0.40332814615825197  0.4473856152430927  1.0000
  H   H27       1.0  0.1442662759568734  0.4108889794578517  0.4142515324479917  1.0000
  H   H28       1.0  0.1421724080545772  0.6589902445594262  0.5487076595332852  1.0000
  H   H29       1.0  0.0592324834230098  0.5965341657147862  0.5533459732599583  1.0000
  H   H30       1.0  0.14339659038049038  0.5895899931552648  0.586360256116244  1.0000
  H   H31       1.0  0.8572033766471989  0.41099692736331417  0.4142408274048395  1.0000
  H   H32       1.0  0.9404755186623885  0.4027302680244774  0.4476509964202152  1.0000
  H   H33       1.0  0.856741060952423  0.3410011476764154  0.4515921146810485  1.0000
  H   H34       1.0  0.8560276850108579  0.5892770243653588  0.5863147631515989  1.0000
  H   H35       1.0  0.9400770055186316  0.596959950690632  0.5530875465410221  1.0000
  H   H36       1.0  0.8566463395294972  0.6589790657061982  0.5488280276690818  1.0000
  H   H37       1.0  0.30905475600000193  0.8715815229981416  0.5264875541950859  1.0000
  H   H38       1.0  0.3523735152108927  0.9468271197437802  0.49942608818854967  1.0000
  H   H39       1.0  0.3094610113333687  0.870030414127804  0.4732447385011939  1.0000
  H   H40       1.0  0.6904794433369119  0.8703439072736787  0.47332962527071504  1.0000
  H   H41       1.0  0.6475430380139217  0.9466736654629742  0.500017216719826  1.0000
  H   H42       1.0  0.69068456133882  0.8708035813970626  0.5265721215415413  1.0000
  H   H43       1.0  0.3095692787281905  0.1286802471268517  0.4730962585341914  1.0000
  H   H44       1.0  0.3523794433482337  0.05325600217021532  0.5001390768936036  1.0000
  H   H45       1.0  0.30917887242718217  0.13004683784775753  0.5263389669347307  1.0000
  H   H46       1.0  0.6903202434097792  0.12924315810383297  0.526604684717995  1.0000
  H   H47       1.0  0.6476404235800645  0.053026348117924706  0.49984934105542334  1.0000
  H   H48       1.0  0.6911113185543841  0.12889621814099428  0.4733579424765751  1.0000
  H   H49       1.0  0.6901118066162155  0.5519068163508578  0.16139838221471345  1.0000
  H   H50       1.0  0.6474317424868657  0.5018783970748402  0.20223242938530467  1.0000
  H   H51       1.0  0.6908394831473431  0.4531402007907772  0.16093979671673256  1.0000
  H   H52       1.0  0.30926369485564453  0.4526503124598094  0.16176554636012955  1.0000
  H   H53       1.0  0.3523660344965762  0.502478208115477  0.20264774147356235  1.0000
  H   H54       1.0  0.30917094194082745  0.5514288201912478  0.16164876512418405  1.0000
  H   H55       1.0  0.690818488137431  0.45153661171509896  0.2999019333011718  1.0000
  H   H56       1.0  0.6475499268935393  0.5018478858645848  0.259423751369134  1.0000
  H   H57       1.0  0.6906833507326198  0.5503110299971042  0.3007796954994646  1.0000
  H   H58       1.0  0.3096290866835433  0.5501842036805088  0.3011250234443921  1.0000
  H   H59       1.0  0.3524967038059685  0.5008265876349114  0.25988912712922746  1.0000
  H   H60       1.0  0.3093326632584876  0.4514074002883817  0.300798063501425  1.0000
  H   H61       1.0  0.8568034877090582  0.3444991143942032  0.010182708721721704  1.0000
  H   H62       1.0  0.9400702623488966  0.4066620224591945  0.014617732282786703  1.0000
  H   H63       1.0  0.8559854456125394  0.4145529392969323  0.0477867670627532  1.0000
  H   H64       1.0  0.8576034986063732  0.6612917581053707  0.9134945099603444  1.0000
  H   H65       1.0  0.9405141486229807  0.5987117424028555  0.9087578615659313  1.0000
  H   H66       1.0  0.8562491431254671  0.5914238670869665  0.8758035491082412  1.0000
  H   H67       1.0  0.1427680928424877  0.41447228069723974  0.04774797057123691  1.0000
  H   H68       1.0  0.05950735087218109  0.40598440277869235  0.014313577241615904  1.0000
  H   H69       1.0  0.1433126505702162  0.34426120233538887  0.010222646613605902  1.0000
  H   H70       1.0  0.14406829190146914  0.5908605679753904  0.8758127004337768  1.0000
  H   H71       1.0  0.05995184345417931  0.5990106967133643  0.9090051606064622  1.0000
  H   H72       1.0  0.1432712934424814  0.6611496696291539  0.9132810833487854  1.0000
  H   H73       1.0  0.690613710803582  0.8732303152141158  0.9345142687196247  1.0000
  H   H74       1.0  0.6476516736734014  0.9488960406623549  0.9617014979798315  1.0000
  H   H75       1.0  0.6908595613064746  0.8723989111397545  0.9877545953752719  1.0000
  H   H76       1.0  0.3092037088834942  0.8732108533941841  0.9876770430453662  1.0000
  H   H77       1.0  0.352603177657592  0.9490913177581034  0.961122336345625  1.0000
  H   H78       1.0  0.30968482204502823  0.8729753673563254  0.9344272957362991  1.0000
  H   H79       1.0  0.6905193695205226  0.13096215839338757  0.9882751746404144  1.0000
  H   H80       1.0  0.6476594372149903  0.05533240636522411  0.961123661408195  1.0000
  H   H81       1.0  0.6909035810653705  0.1318198433607023  0.9350320547279909  1.0000
  H   H82       1.0  0.3097901111338004  0.13152921513950133  0.9348325205071932  1.0000
  H   H83       1.0  0.352391234234922  0.055493478806070605  0.9614832880468716  1.0000
  H   H84       1.0  0.3090076124157831  0.1317072453130379  0.9880773936996265  1.0000
  C   C1        1.0  0.49988985713606826  0.6461689546928397  0.5013547421758348  1.0000
  C   C2        1.0  0.4998606654789057  0.5006657615240471  0.5797223993082528  1.0000
  C   C3        1.0  0.5001216008482456  0.35371701258064553  0.500056728724971  1.0000
  C   C4        1.0  0.5002492947596408  0.4994760948454912  0.4216822816768656  1.0000
  C   C5        1.0  0.49999612624364426  0.6483767235679424  0.9606027812255891  1.0000
  C   C6        1.0  0.500246489613488  0.5018457925049519  0.8824566558744354  1.0000
  C   C7        1.0  0.500054088779379  0.35596331817809107  0.9618407489407803  1.0000
  C   C8        1.0  0.4997846462060167  0.5019394935722377  0.04042981913737981  1.0000
  C   C9        1.0  0.25029816211404204  0.5454290578598346  0.5252912983324977  1.0000
  C   C10       1.0  0.16605847806996374  0.5481988006121981  0.5265739608843776  1.0000
  C   C11       1.0  0.1229136959950878  0.5000339297077901  0.5002861601567901  1.0000
  C   C12       1.0  0.1666271072553656  0.4518030813384614  0.4741377747551356  1.0000
  C   C13       1.0  0.2508356294300071  0.45440396360208984  0.47572465307212053  1.0000
  C   C14       1.0  0.03698339909411169  0.500050403778161  0.5001822099106834  1.0000
  C   C15       1.0  0.9629801438798608  0.5000308595720427  0.5001892441962568  1.0000
  C   C16       1.0  0.8770486580772285  0.5000066080066503  0.5002532138851451  1.0000
  C   C17       1.0  0.8335597966785497  0.5482385826941324  0.5264945050109873  1.0000
  C   C18       1.0  0.7493489434906876  0.5454815625384484  0.5251702766857067  1.0000
  C   C19       1.0  0.7494579273105587  0.4543861680371963  0.4756352463712475  1.0000
  C   C20       1.0  0.8336842316040745  0.4517290752628044  0.4741108988155248  1.0000
  C   C21       1.0  0.4998863012852863  0.7296635930252934  0.5008239341710025  1.0000
  C   C22       1.0  0.5728660460070715  0.7690676373794789  0.5005914343637416  1.0000
  C   C23       1.0  0.574506310452513  0.8467040787704934  0.500217038909348  1.0000
  C   C24       1.0  0.49992222026029504  0.8865978691569795  0.5000371002866119  1.0000
  C   C25       1.0  0.425326678217985  0.8467833592941931  0.5000984327038298  1.0000
  C   C26       1.0  0.4269354619470889  0.7691456539478594  0.5004849133034811  1.0000
  C   C27       1.0  0.499935811962871  0.9657726741786733  0.4998157398326912  1.0000
  C   C28       1.0  0.4999861201130783  0.034084079383767105  0.49971917506672997  1.0000
  C   C29       1.0  0.5000281504026702  0.11326777487330733  0.49967572211996736  1.0000
  C   C30       1.0  0.5746382234430598  0.15307111693672232  0.4997258510060121  1.0000
  C   C31       1.0  0.5730481894630727  0.2307176659117331  0.4997667412541561  1.0000
  C   C32       1.0  0.5000991472006291  0.27021973180081466  0.49977729377122426  1.0000
  C   C33       1.0  0.42711758399374844  0.23082799815887262  0.4997540582674704  1.0000
  C   C34       1.0  0.4254609881300836  0.1531871730907213  0.4997013899645497  1.0000
  C   C35       1.0  0.42675704317973384  0.5007012783071191  0.6459235919414967  1.0000
  C   C36       1.0  0.42512317070738  0.5008433278329819  0.6880423344992794  1.0000
  C   C37       1.0  0.35057435260345926  0.5009429212862315  0.7107349336696701  1.0000
  C   C38       1.0  0.5731082720373663  0.5006540365438924  0.6456954750569467  1.0000
  C   C39       1.0  0.5748723094666843  0.5008494767413936  0.6878018979175241  1.0000
  C   C40       1.0  0.6495066620910706  0.5010343097125088  0.7102407707854468  1.0000
  C   C41       1.0  0.5734066750677441  0.5013592906865512  0.8162817949159733  1.0000
  C   C42       1.0  0.5750180876936852  0.5013242706304267  0.7741660095089176  1.0000
  C   C43       1.0  0.6495717123187461  0.5012832115723215  0.751472325911877  1.0000
  C   C44       1.0  0.4270391273901311  0.5013680641494888  0.8165170630425181  1.0000
  C   C45       1.0  0.4252665722769535  0.5012450936084392  0.7744074970812137  1.0000
  C   C46       1.0  0.35065034030272096  0.5011215845803535  0.7519645244833982  1.0000
  C   C47       1.0  0.4998924732506538  0.5007137957614773  0.6249697471176747  1.0000
  C   C48       1.0  0.5000359812492547  0.5009893070557254  0.7097513745912708  1.0000
  C   C49       1.0  0.5002578248893883  0.5015184708200666  0.8372315095025515  1.0000
  C   C50       1.0  0.500102233266915  0.5012072796239906  0.7524540286984804  1.0000
  C   C51       1.0  0.4997723018081216  0.5019424120475833  0.0854348850906561  1.0000
  C   C52       1.0  0.42681171362648473  0.5020480299292984  0.10676535466610203  1.0000
  C   C53       1.0  0.425243966808523  0.5019481975543911  0.14861842868090497  1.0000
  C   C54       1.0  0.49984892711228207  0.5017296210476873  0.16997843227206746  1.0000
  C   C55       1.0  0.5744193174215155  0.5019525954957589  0.1484111255563434  1.0000
  C   C56       1.0  0.5727755470820171  0.502045331452095  0.10656333598144845  1.0000
  C   C57       1.0  0.4999136752049225  0.5014358489679295  0.21264634802935234  1.0000
  C   C58       1.0  0.5000227556872758  0.5010784869267726  0.24946187360057348  1.0000
  C   C59       1.0  0.5001014812301889  0.5006921792087056  0.2921220640858665  1.0000
  C   C60       1.0  0.4255553246903006  0.50043074181432  0.313695271935039  1.0000
  C   C61       1.0  0.42722591612658783  0.500026388077977  0.3555402688685875  1.0000
  C   C62       1.0  0.5002360212773596  0.4997970599621766  0.3766719181047692  1.0000
  C   C63       1.0  0.5731654588401298  0.5001563668966611  0.3553151162070309  1.0000
  C   C64       1.0  0.5747257264898948  0.5006113014136915  0.3134658052983356  1.0000
  C   C65       1.0  0.7495395258488601  0.5478580221975521  0.9369024767769647  1.0000
  C   C66       1.0  0.8337721065114322  0.550797815770139  0.9355997042902119  1.0000
  C   C67       1.0  0.8770901862441464  0.5030997402663646  0.9618898208291288  1.0000
  C   C68       1.0  0.8335237072494266  0.4550317131843046  0.9879849348398723  1.0000
  C   C69       1.0  0.7493103564339378  0.45738556226402954  0.9863817620123999  1.0000
  C   C70       1.0  0.9630107304221838  0.50319643276967  0.9619780923823102  1.0000
  C   C71       1.0  0.03700978811588839  0.5031507498649149  0.9619898598192765  1.0000
  C   C72       1.0  0.1229286807434846  0.5029826788314014  0.9619059640630997  1.0000
  C   C73       1.0  0.16647960810824  0.5507508164650475  0.9356605648572229  1.0000
  C   C74       1.0  0.25070358788730823  0.5478468011237326  0.9370004901039766  1.0000
  C   C75       1.0  0.25049751170733703  0.45722328544908925  0.9864045939053628  1.0000
  C   C76       1.0  0.1662627827004215  0.4548225116096064  0.987961564105014  1.0000
  C   C77       1.0  0.5000343192167449  0.7318717878109741  0.9608202807186219  1.0000
  C   C78       1.0  0.4270870974674707  0.7713638060859155  0.9609047438575191  1.0000
  C   C79       1.0  0.4254994872400886  0.8490008484442912  0.9611100090678523  1.0000
  C   C80       1.0  0.5000944274235266  0.8888030542127228  0.9612665462223335  1.0000
  C   C81       1.0  0.574662184674125  0.8489015004223788  0.9612105603030374  1.0000
  C   C82       1.0  0.5730152742023404  0.7712634923048043  0.9610025049524328  1.0000
  C   C83       1.0  0.5001080033941606  0.9679900421301046  0.9614897168825041  1.0000
  C   C84       1.0  0.5000735724167099  0.03629748727274771  0.96165081063338  1.0000
  C   C85       1.0  0.5000599039739058  0.11550122073145275  0.9617366999500023  1.0000
  C   C86       1.0  0.42548729835284865  0.1554150497342874  0.9617290020395193  1.0000
  C   C87       1.0  0.4271142330750024  0.23306032503221988  0.9618129714267458  1.0000
  C   C88       1.0  0.5000806578077146  0.2724620830598923  0.9618801254719928  1.0000
  C   C89       1.0  0.5730411777702641  0.23299961604989516  0.961773468630341  1.0000
  C   C90       1.0  0.5746348474555631  0.1553469394039837  0.9617109219540158  1.0000
  C   C91       1.0  0.12611075898831098  0.3990990133522345  0.445403184284011  1.0000
  C   C92       1.0  0.1251609457936524  0.6010018586043984  0.5552150640872713  1.0000
  C   C93       1.0  0.8745357723724183  0.3989131959094081  0.4454364625010145  1.0000
  C   C94       1.0  0.8741269275152063  0.6010430158093458  0.5551447940691576  1.0000
  C   C95       1.0  0.3449928637704289  0.8862421827089764  0.49979153352316547  1.0000
  C   C96       1.0  0.6548648280883782  0.8860722563215904  0.500022024085425  1.0000
  C   C97       1.0  0.34507944675114993  0.11386025771216886  0.4998261915914385  1.0000
  C   C98       1.0  0.65498958635375  0.11362347093316323  0.49989089597848146  1.0000
  C   C99       1.0  0.6547733552632308  0.5022476504708919  0.16955713827697855  1.0000
  C   C100      1.0  0.3449390601119972  0.5021621422784791  0.16999056855962644  1.0000
  C   C101      1.0  0.6550126561398741  0.5010958586044153  0.2920753236911225  1.0000
  C   C102      1.0  0.345185187655808  0.5007310519919557  0.29256586149070074  1.0000
  C   C103      1.0  0.8741082474504865  0.40250802791514684  0.016611941321187408  1.0000
  C   C104      1.0  0.8745856809809708  0.6032085988079104  0.9069395323841791  1.0000
  C   C105      1.0  0.1254462749463414  0.4021960101565085  0.016529505759258708  1.0000
  C   C106      1.0  0.12591329115070235  0.6031033778349126  0.9069696483396827  1.0000
  C   C107      1.0  0.6550073631726718  0.8882986079531395  0.9613239809736174  1.0000
  C   C108      1.0  0.3451831926291645  0.8885042156310096  0.9611064325678815  1.0000
  C   C109      1.0  0.6549940683452746  0.1159272315996702  0.9615255815936624  1.0000
  C   C110      1.0  0.3451069668706949  0.11609934421005622  0.9615232268582337  1.0000
  Br  Br1       1.0  0.25160471446041305  0.5010674795792697  0.78123252202861  1.0000
  Br  Br2       1.0  0.2514295199438052  0.5005972982850652  0.6818170068578484  1.0000
  Br  Br3       1.0  0.7487149114309801  0.5013289179259602  0.7803983380005024  1.0000
  Br  Br4       1.0  0.7485797139971311  0.5007756725229484  0.6810222722661267  1.0000
  N   N1        1.0  0.29147266010405554  0.4998734451246849  0.5005905631902012  1.0000
  N   N2        1.0  0.7085116313280293  0.49990834047896043  0.5004528535929327  1.0000
  N   N3        1.0  0.7085292715161343  0.5024875866865488  0.9615555396190134  1.0000
  N   N4        1.0  0.2914957524643  0.5024460097810463  0.9616532562544793  1.0000
  O   O1        1.0  0.5685626578532775  0.6137321487373557  0.5015631043710871  1.0000
  O   O2        1.0  0.43121713826124625  0.613766639440314  0.5015325984820649  1.0000
  O   O3        1.0  0.4311249416103563  0.500740484312317  0.5625741982475745  1.0000
  O   O4        1.0  0.5685674392013026  0.5004880722705991  0.5624168906875157  1.0000
  O   O5        1.0  0.43144213089910727  0.3861570709672152  0.5003487879658339  1.0000
  O   O6        1.0  0.5687876620253078  0.38611259930112857  0.5000874440257519  1.0000
  O   O7        1.0  0.5689389413527195  0.4995217376856971  0.43905199182694343  1.0000
  O   O8        1.0  0.4315530486058705  0.49925571826953796  0.4391997239827462  1.0000
  O   O9        1.0  0.4313240060576717  0.6159928499928001  0.9605327264503958  1.0000
  O   O10       1.0  0.5686635030307483  0.6159093034723924  0.9605541196765659  1.0000
  O   O11       1.0  0.5689717639270312  0.5020341899986178  0.8996093312205746  1.0000
  O   O12       1.0  0.4315155542714776  0.5019437653479601  0.8997412873832717  1.0000
  O   O13       1.0  0.568734685555718  0.38835002547685354  0.9616628504080968  1.0000
  O   O14       1.0  0.431367976791705  0.3883844644224936  0.9619007557524244  1.0000
  O   O15       1.0  0.4311075506847502  0.5021564196508025  0.023047123334038105  1.0000
  O   O16       1.0  0.568487762057515  0.5018114561055358  0.022916142163389004  1.0000
