data_image0
_chemical_formula_structural       CdCu2H72C56N4Cl2O12
_chemical_formula_sum              "Cd1 Cu2 H72 C56 N4 Cl2 O12"
_cell_length_a       7.823891112366039
_cell_length_b       15.452407647218863
_cell_length_c       15.452358402536909
_cell_angle_alpha    90.41620125813171
_cell_angle_beta     101.11781267115786
_cell_angle_gamma    101.118170613506

_space_group_name_H-M_alt    "P 1"
_space_group_IT_number       1

loop_
  _space_group_symop_operation_xyz
  'x, y, z'

loop_
  _atom_site_type_symbol
  _atom_site_label
  _atom_site_symmetry_multiplicity
  _atom_site_fract_x
  _atom_site_fract_y
  _atom_site_fract_z
  _atom_site_occupancy
  Cd  Cd1       1.0  3.4406653499999985e-08  1.7715802869999994e-07  5.567809467e-07  1.0000
  Cu  Cu1       1.0  2.0062797993479582e-07  0.49999986297869  0.9999997615226448  1.0000
  Cu  Cu2       1.0  0.9999999702827866  8.724078170998337e-07  0.5000009766202425  1.0000
  H   H1        1.0  0.1407279713747869  0.6718240771952679  0.7922965958780068  1.0000
  H   H2        1.0  0.8592751903096104  0.20770042934470465  0.3281833876046107  1.0000
  H   H3        1.0  0.8592733156069559  0.3281760620274524  0.20770226887947274  1.0000
  H   H4        1.0  0.14072505632609722  0.7923003712332173  0.6718166738185473  1.0000
  H   H5        1.0  0.37434274767523606  0.7107105243933916  0.835138993004847  1.0000
  H   H6        1.0  0.6256534421264848  0.16486049109230544  0.28929370276760125  1.0000
  H   H7        1.0  0.6256574989604788  0.28929027618452346  0.1648610684183112  1.0000
  H   H8        1.0  0.3743475793020181  0.835138988132769  0.710705778646222  1.0000
  H   H9        1.0  0.21528313070923843  0.7625687574955577  0.870887298710656  1.0000
  H   H10       1.0  0.7847192844262312  0.12911196848265397  0.2374334856399543  1.0000
  H   H11       1.0  0.7847168527607454  0.23743138261970387  0.12911208529846627  1.0000
  H   H12       1.0  0.21528122656896184  0.8708894923254106  0.7625666061620535  1.0000
  H   H13       1.0  0.560547591217187  0.6182205873845277  0.1726217672232266  1.0000
  H   H14       1.0  0.4394611499952391  0.8273777935190478  0.38177919789750797  1.0000
  H   H15       1.0  0.4394510887410378  0.3817795536232822  0.827378136037531  1.0000
  H   H16       1.0  0.5605403977647117  0.17262300663133345  0.6182216383443873  1.0000
  H   H17       1.0  0.6663015504226736  0.5771840737282757  0.09410716334484451  1.0000
  H   H18       1.0  0.33370312319655693  0.9058916422021637  0.4228164872892037  1.0000
  H   H19       1.0  0.3336981686878247  0.4228154061568431  0.905892190285428  1.0000
  H   H20       1.0  0.6662968578859108  0.0941084983781124  0.577184190790291  1.0000
  H   H21       1.0  0.5318125549322091  0.5018912324098181  0.15342437362284042  1.0000
  H   H22       1.0  0.4681994763820825  0.8465768699324128  0.4981102929309671  1.0000
  H   H23       1.0  0.4681848227080253  0.49810890925803614  0.8465754018543663  1.0000
  H   H24       1.0  0.5318010334193559  0.15342459110815548  0.501890445906227  1.0000
  H   H25       1.0  0.38288054779640385  0.8004545098891567  0.0447309929206199  1.0000
  H   H26       1.0  0.6171188591411649  0.9552717268690498  0.1995440419082755  1.0000
  H   H27       1.0  0.6171139596545817  0.1995449731011334  0.9552691436458218  1.0000
  H   H28       1.0  0.3828837277710592  0.04472841215863349  0.8004562447031348  1.0000
  H   H29       1.0  0.6312047883237994  0.9310655960254123  0.0516379172728634  1.0000
  H   H30       1.0  0.36879797997082875  0.948363628477196  0.06893404455005478  1.0000
  H   H31       1.0  0.36879492720542845  0.06893388455721809  0.9483633774629752  1.0000
  H   H32       1.0  0.6312033046233979  0.051636511210531894  0.9310661142778045  1.0000
  H   H33       1.0  0.9428858426383685  0.7817910830089401  0.9554974919528904  1.0000
  H   H34       1.0  0.057113216463811504  0.04449756238653889  0.2182101890185564  1.0000
  H   H35       1.0  0.05711570512158199  0.21820971714144113  0.044503344289005  1.0000
  H   H36       1.0  0.9428859715402  0.9555005975032953  0.7817903979243965  1.0000
  H   H37       1.0  0.7149611148018095  0.6424045667345977  0.950315148750036  1.0000
  H   H38       1.0  0.2850372407976566  0.049680465444822595  0.357596474111503  1.0000
  H   H39       1.0  0.2850367903636269  0.35759689562605257  0.04968533452004922  1.0000
  H   H40       1.0  0.7149619484001164  0.9503176942125007  0.6424034657962635  1.0000
  H   H41       1.0  0.9283359967988647  0.5983969277931181  0.24725219187057232  1.0000
  H   H42       1.0  0.07166711657267642  0.7527486498835569  0.4016035712117088  1.0000
  H   H43       1.0  0.07166632694763561  0.4016025507719121  0.7527474173268018  1.0000
  H   H44       1.0  0.9283331324505542  0.2472521502293502  0.5983951961410697  1.0000
  H   H45       1.0  0.038898147502536104  0.5167008713646908  0.21235345485658289  1.0000
  H   H46       1.0  0.9611044322156418  0.7876463951196085  0.4833014831825153  1.0000
  H   H47       1.0  0.9611031370916907  0.48329926832303716  0.7876467039712765  1.0000
  H   H48       1.0  0.03889555244810341  0.21235374476315627  0.5166972537914205  1.0000
  H   H49       1.0  0.3256499742842607  0.6063514085294271  0.2711780437573593  1.0000
  H   H50       1.0  0.6743529382350103  0.7288224209184119  0.3936494234446712  1.0000
  H   H51       1.0  0.6743502723514467  0.39364939204848776  0.7288220176657988  1.0000
  H   H52       1.0  0.3256480843872539  0.2711770580741585  0.6063494109339658  1.0000
  H   H53       1.0  0.2090564768519201  0.6590953130026662  0.3364908353522083  1.0000
  H   H54       1.0  0.7909468558594527  0.6635103776757062  0.3409052645070645  1.0000
  H   H55       1.0  0.790945072101785  0.3409054869152114  0.6635093538545007  1.0000
  H   H56       1.0  0.2090541643752886  0.3364891017818792  0.6590948639419452  1.0000
  H   H57       1.0  0.25784230935531843  0.787418376625439  0.2520572491475122  1.0000
  H   H58       1.0  0.7421570284171822  0.7479439420437684  0.21258141296735292  1.0000
  H   H59       1.0  0.7421568993218771  0.2125830848426701  0.7479427148709376  1.0000
  H   H60       1.0  0.2578437286518351  0.25205487695116346  0.7874180380676279  1.0000
  H   H61       1.0  0.373089685611106  0.7314231364069103  0.1892017648283613  1.0000
  H   H62       1.0  0.6269097407129323  0.810798550820401  0.26857598397906196  1.0000
  H   H63       1.0  0.6269105598308473  0.26857766440350866  0.8107989436299833  1.0000
  H   H64       1.0  0.3730897140380875  0.18920026883456834  0.7314233392723679  1.0000
  H   H65       1.0  0.9860544713200528  0.7470423233048961  0.14962160584708076  1.0000
  H   H66       1.0  0.013945808708775992  0.8503784390936177  0.2529584561637321  1.0000
  H   H67       1.0  0.013945512149931  0.2529578168103725  0.8503777781620343  1.0000
  H   H68       1.0  0.9860554770792122  0.1496217003615996  0.747041055628941  1.0000
  H   H69       1.0  0.1225264333387273  0.7309144706241212  0.073235810469285  1.0000
  H   H70       1.0  0.8774717567256828  0.9267639132465813  0.2690859155918446  1.0000
  H   H71       1.0  0.8774745868960141  0.2690850088334642  0.9267643179797319  1.0000
  H   H72       1.0  0.12252666006681781  0.07323556729857468  0.730913310254877  1.0000
  C   C1        1.0  0.24117279030542  0.6983867310754803  0.8508771971434684  1.0000
  C   C2        1.0  0.758828930797371  0.14912694581401095  0.301611002161259  1.0000
  C   C3        1.0  0.7588284966763227  0.3016134081472329  0.14912166761401827  1.0000
  C   C4        1.0  0.24117261935010256  0.8508738538713629  0.6983885400102636  1.0000
  C   C5        1.0  0.22580543508148315  0.6349193841187386  0.9237318560954435  1.0000
  C   C6        1.0  0.7741911030666275  0.07626903678212218  0.36508117848092075  1.0000
  C   C7        1.0  0.7741945483885077  0.365080755996523  0.07626752791367149  1.0000
  C   C8        1.0  0.2258104458870847  0.9237317631357553  0.6349190107257883  1.0000
  C   C9        1.0  0.3755817894541239  0.6333966541887365  0.9919653925338778  1.0000
  C   C10       1.0  0.62440668831335  0.008034276516362097  0.3666027633621951  1.0000
  C   C11       1.0  0.6244181928221055  0.36660348615902894  0.008034638510430616  1.0000
  C   C12       1.0  0.3755948570590775  0.9919665240990267  0.6333993669500799  1.0000
  C   C13       1.0  0.3789355751184048  0.5659656908261109  0.05343821219592829  1.0000
  C   C14       1.0  0.6210637073865187  0.9465628715680693  0.4340388969309855  1.0000
  C   C15       1.0  0.6210644095453406  0.4340344490566465  0.9465605247780077  1.0000
  C   C16       1.0  0.3789349701841901  0.05343726990475519  0.5659623004001516  1.0000
  C   C17       1.0  0.545301727875682  0.5654054250851388  0.12184544931961482  1.0000
  C   C18       1.0  0.45469584355483056  0.8781485505161369  0.4345966724566637  1.0000
  C   C19       1.0  0.4546969532763114  0.43459471569016717  0.8781538069059566  1.0000
  C   C20       1.0  0.5453044018871228  0.12185225029428887  0.5654040360016809  1.0000
  C   C21       1.0  0.5282613576315002  0.7091715161858544  0.9987378923186371  1.0000
  C   C22       1.0  0.4717290598650764  0.0012604016155393  0.2908259746670723  1.0000
  C   C23       1.0  0.471737584298694  0.2908292855171126  0.0012633353913428893  1.0000
  C   C24       1.0  0.5282719603696646  0.9987390778420387  0.7091741537819444  1.0000
  C   C25       1.0  0.5073970554653615  0.7922332154370864  0.02727297518840291  1.0000
  C   C26       1.0  0.4926081149395145  0.9727295018274088  0.20776775761940766  1.0000
  C   C27       1.0  0.4926000554278717  0.20776626646563295  0.9727280639803267  1.0000
  C   C28       1.0  0.5073944731664712  0.027270636967777796  0.7922318819568233  1.0000
  C   C29       1.0  0.643346694535886  0.8653512787812048  0.03040896769290672  1.0000
  C   C30       1.0  0.3566573349843267  0.9695920545575729  0.13464879687421666  1.0000
  C   C31       1.0  0.3566501531916161  0.13464754265885395  0.9695913940617942  1.0000
  C   C32       1.0  0.6433439508036545  0.030408084897651094  0.8653507149184564  1.0000
  C   C33       1.0  0.8181992624997678  0.7817238302177216  0.9772863083860271  1.0000
  C   C34       1.0  0.1818042174321377  0.0227100222952998  0.21827799437848938  1.0000
  C   C35       1.0  0.1818007221639775  0.21827630966503614  0.0227124285879086  1.0000
  C   C36       1.0  0.8181949717656354  0.9772881373620306  0.7817219455292843  1.0000
  C   C37       1.0  0.6897452325278549  0.7047397322801741  0.9736703553411701  1.0000
  C   C38       1.0  0.3102565565964355  0.02632705902566809  0.2952624125416108  1.0000
  C   C39       1.0  0.3102537105961007  0.295261069190289  0.026330225333616408  1.0000
  C   C40       1.0  0.6897426326013376  0.9736711006316554  0.7047375273661558  1.0000
  C   C41       1.0  0.04099333427203794  0.5877024658841421  0.2175735858835424  1.0000
  C   C42       1.0  0.9590080858583434  0.7824270158217385  0.41229799059712496  1.0000
  C   C43       1.0  0.9590092526401934  0.41229767314354143  0.7824267007278749  1.0000
  C   C44       1.0  0.04099163444591619  0.21757246383086934  0.5877007159979614  1.0000
  C   C45       1.0  0.21753926351934885  0.6428200428933051  0.2683058054760821  1.0000
  C   C46       1.0  0.7824633674718909  0.7316953152229001  0.3571798680479361  1.0000
  C   C47       1.0  0.7824607187568733  0.35718009745446005  0.7316942255682264  1.0000
  C   C48       1.0  0.217537918316097  0.26830482423232377  0.6428196437447369  1.0000
  C   C49       1.0  0.24925868953405944  0.7260372120046198  0.2138156986740896  1.0000
  C   C50       1.0  0.7507410905070773  0.7861850499423183  0.2739629136083579  1.0000
  C   C51       1.0  0.7507402535898963  0.27396358946584337  0.7861848820007038  1.0000
  C   C52       1.0  0.24926019528090396  0.21381508951290576  0.7260365981843151  1.0000
  C   C53       1.0  0.08878800837745622  0.7113441099384088  0.1368637573182809  1.0000
  C   C54       1.0  0.9112114032345887  0.8631372752085508  0.28865685875759084  1.0000
  C   C55       1.0  0.9112122382582516  0.2886566906395061  0.8631363041048772  1.0000
  C   C56       1.0  0.0887872779173975  0.13686286556675495  0.7113423974679735  1.0000
  N   N1        1.0  0.7972902572623826  0.860696679235616  0.006073613164765809  1.0000
  N   N2        1.0  0.20270991418167492  0.9939243505502658  0.13930290557807012  1.0000
  N   N3        1.0  0.20270945946059984  0.1393028011145105  0.9939270345358793  1.0000
  N   N4        1.0  0.7972908416935809  0.0060744686771698995  0.860697192492097  1.0000
  Cl  Cl1       1.0  0.18481270159728783  0.9162216547224417  0.9162223352523781  1.0000
  Cl  Cl2       1.0  0.815184674849178  0.08377848717791636  0.08377808726001494  1.0000
  O   O1        1.0  0.07223787124441829  0.5849842874088793  0.916842748043173  1.0000
  O   O2        1.0  0.9277682627535316  0.08316325619171037  0.41501829906019344  1.0000
  O   O3        1.0  0.9277634145435628  0.4150158520463447  0.0831567637494999  1.0000
  O   O4        1.0  0.07223171952269071  0.9168368841560621  0.5849817319841151  1.0000
  O   O5        1.0  0.2477652088294918  0.5028275628285569  0.05718553208748742  1.0000
  O   O6        1.0  0.7522315714679523  0.9428091145891812  0.4971847479331473  1.0000
  O   O7        1.0  0.752234774640492  0.49717257728670444  0.9428138519216347  1.0000
  O   O8        1.0  0.24776816354069106  0.05719366780422769  0.5028165709133745  1.0000
  O   O9        1.0  0.018895069622452406  0.6181202269745397  0.129261057990341  1.0000
  O   O10       1.0  0.9811055104424187  0.8707395155945006  0.3818799580283283  1.0000
  O   O11       1.0  0.9811059518060505  0.3818792522505347  0.8707384234234894  1.0000
  O   O12       1.0  0.01889317070956759  0.12926062518080528  0.6181192981972429  1.0000
