data_image0
_chemical_formula_structural       Cu2H28C40N8O12
_chemical_formula_sum              "Cu2 H28 C40 N8 O12"
_cell_length_a       9.53277588059133
_cell_length_b       8.425583146892453
_cell_length_c       13.85134869794163
_cell_angle_alpha    84.40648702691244
_cell_angle_beta     69.78735299426938
_cell_angle_gamma    73.92402568388368

_space_group_name_H-M_alt    "P 1"
_space_group_IT_number       1

loop_
  _space_group_symop_operation_xyz
  'x, y, z'

loop_
  _atom_site_type_symbol
  _atom_site_label
  _atom_site_symmetry_multiplicity
  _atom_site_fract_x
  _atom_site_fract_y
  _atom_site_fract_z
  _atom_site_occupancy
  Cu  Cu1       1.0  0.9999971976109664  0.9999899485945674  0.4999990319238422  1.0000
  Cu  Cu2       1.0  0.5000031766516884  0.4999976644704135  0.4999984787691787  1.0000
  H   H1        1.0  0.81633599538182  0.900852498462015  0.39443929343995177  1.0000
  H   H2        1.0  0.7902640959231348  0.5976161571243991  0.3933622446184586  1.0000
  H   H3        1.0  0.18364719874740834  0.09915371325969599  0.6055564005114534  1.0000
  H   H4        1.0  0.20973511444473283  0.40239273567406303  0.6066412762161946  1.0000
  H   H5        1.0  0.8137025179309632  0.9058201213622183  0.211591903073078  1.0000
  H   H6        1.0  0.975779055081773  0.5924643789052483  0.21024488306320424  1.0000
  H   H7        1.0  0.18629668009419473  0.0941833609056744  0.7884008180544981  1.0000
  H   H8        1.0  0.0242199090879041  0.40754193513344456  0.78975740036622  1.0000
  H   H9        1.0  0.9945363242816685  0.03562414908788012  0.07416527183938379  1.0000
  H   H10       1.0  0.9311406721134221  0.4636699855336346  0.07349505691234985  1.0000
  H   H11       1.0  0.00546733050495626  0.9643759117239769  0.9258284793496756  1.0000
  H   H12       1.0  0.06886868329905123  0.5363220620942785  0.9265100165850839  1.0000
  H   H13       1.0  0.16376838188762827  0.1432954974082676  0.3065243840311567  1.0000
  H   H14       1.0  0.5285604100281489  0.3571851777468639  0.3069023397835339  1.0000
  H   H15       1.0  0.8362276922782707  0.8566905007851133  0.6934790143794274  1.0000
  H   H16       1.0  0.4714546207940272  0.6428109316933047  0.6930991510944154  1.0000
  H   H17       1.0  0.23926057581837767  0.2544185732522095  0.13521131374168496  1.0000
  H   H18       1.0  0.6239498556346348  0.24614109024527414  0.13570000123716136  1.0000
  H   H19       1.0  0.7607442885059826  0.7455707406778629  0.864796873332381  1.0000
  H   H20       1.0  0.37607291511368857  0.7538341542822805  0.8643010349421658  1.0000
  H   H21       1.0  0.41479163682640063  0.1492942208715249  0.802921150998614  1.0000
  H   H22       1.0  0.7838456071017105  0.3500190195155141  0.8029834817517312  1.0000
  H   H23       1.0  0.5851905821733823  0.8507347740396227  0.19707999844004584  1.0000
  H   H24       1.0  0.21616249103858104  0.6499689729714931  0.19701616989434712  1.0000
  H   H25       1.0  0.6471030570748724  0.24948302673441705  0.708256017429818  1.0000
  H   H26       1.0  0.35289070637637826  0.7505253194240494  0.29174301565467436  1.0000
  H   H27       1.0  0.45484148064880964  0.2503041181198498  0.08913474258038433  1.0000
  H   H28       1.0  0.545156838795769  0.7496946949511172  0.9108704462850243  1.0000
  C   C1        1.0  0.8939989312369078  0.9546459468458012  0.33078308351871755  1.0000
  C   C2        1.0  0.7757368699077746  0.5443061607133401  0.329956183156476  1.0000
  C   C3        1.0  0.10598827928916413  0.04535690464172149  0.669216329820472  1.0000
  C   C4        1.0  0.22425998254173868  0.4556873819702005  0.6700452918994627  1.0000
  C   C5        1.0  0.893521664205366  0.9581105281834325  0.2302623599107179  1.0000
  C   C6        1.0  0.8767686227153108  0.540745096337524  0.22932374075748646  1.0000
  C   C7        1.0  0.10647550845803981  0.0418915566246127  0.7697305733420235  1.0000
  C   C8        1.0  0.12323688097174557  0.4592580655033203  0.770683032812805  1.0000
  C   C9        1.0  0.994452081684564  0.030665375941275413  0.15268080244554486  1.0000
  C   C10       1.0  0.8528167108898117  0.4685764974673888  0.1521385845977932  1.0000
  C   C11       1.0  0.005544524566758602  0.969325587982496  0.8473194352051722  1.0000
  C   C12       1.0  0.14718969444532332  0.5314240502148379  0.8478635370773233  1.0000
  C   C13       1.0  0.09506404618664284  0.0987644290366916  0.1785424438881051  1.0000
  C   C14       1.0  0.7256785087055351  0.40117214666638995  0.17848691687853355  1.0000
  C   C15       1.0  0.9049338516635215  0.9012367451818762  0.8214590719758592  1.0000
  C   C16       1.0  0.27433332798975807  0.5988250924276672  0.8215174738570853  1.0000
  C   C17       1.0  0.08756773667807487  0.0933211975752499  0.2817211547637655  1.0000
  C   C18       1.0  0.6299926879014563  0.4067532810076813  0.2817454535722348  1.0000
  C   C19       1.0  0.912427279213709  0.9066746546098657  0.7182780976180113  1.0000
  C   C20       1.0  0.370015661799414  0.5932309432960423  0.7182539435468627  1.0000
  C   C21       1.0  0.278119031127801  0.1324759474646342  0.004427553200798726  1.0000
  C   C22       1.0  0.7170077666733476  0.3677383056599978  0.00453717628552405  1.0000
  C   C23       1.0  0.7218771529983599  0.8675402736640548  0.9955757059347479  1.0000
  C   C24       1.0  0.28299151717587284  0.6322504181076382  0.9954655409570492  1.0000
  C   C25       1.0  0.41821236982669024  0.19534394345642173  0.9522651376287927  1.0000
  C   C26       1.0  0.6296286607253447  0.30469351810114625  0.9523322621550818  1.0000
  C   C27       1.0  0.5817738762947399  0.8046689973344313  0.047736747333232216  1.0000
  C   C28       1.0  0.3703618608645769  0.6953011556885329  0.047678684820738185  1.0000
  C   C29       1.0  0.4750100318877698  0.1932674348017045  0.8444830933608998  1.0000
  C   C30       1.0  0.681680402854589  0.3062642554228603  0.8445347395987638  1.0000
  C   C31       1.0  0.5249808313692413  0.8067594217931314  0.15551106295282574  1.0000
  C   C32       1.0  0.31831977191792055  0.6937345480722712  0.15546630961304692  1.0000
  C   C33       1.0  0.6050666643052053  0.24972118015156752  0.7914699720706795  1.0000
  C   C34       1.0  0.3949261422524513  0.7502861167265353  0.20853712978965427  1.0000
  C   C35       1.0  0.4971218391042244  0.2502014049564991  0.0053240929459619215  1.0000
  C   C36       1.0  0.5028882162788546  0.7498018070781285  0.9946746582348283  1.0000
  C   C37       1.0  0.781773274906989  0.30927736035359044  0.5380550013606182  1.0000
  C   C38       1.0  0.6798665592843206  0.19045118015377233  0.5385193698769086  1.0000
  C   C39       1.0  0.21822932911657494  0.6907214158662852  0.4619402009526254  1.0000
  C   C40       1.0  0.3201312446963769  0.8095497587531924  0.4614755283354057  1.0000
  N   N1        1.0  0.9899931971655535  0.022440417820519098  0.35499917029889627  1.0000
  N   N2        1.0  0.6549173213472486  0.47710923496460106  0.354697527537148  1.0000
  N   N3        1.0  0.01000263884755257  0.977557995424945  0.644999612243126  1.0000
  N   N4        1.0  0.34508594510651835  0.5228961058105098  0.6453040771149717  1.0000
  N   N5        1.0  0.2050699317163875  0.17049748251588437  0.10684426191384232  1.0000
  N   N6        1.0  0.6869416148785774  0.32988583054610393  0.10709671555702015  1.0000
  N   N7        1.0  0.7949316027739218  0.8294977091862918  0.8931587538513454  1.0000
  N   N8        1.0  0.313069504141012  0.6701011805537365  0.8929046897203748  1.0000
  O   O1        1.0  0.23563993371480754  0.0470255598392342  0.957436150321378  1.0000
  O   O2        1.0  0.8067020529608726  0.4533092571914211  0.9573751697189435  1.0000
  O   O3        1.0  0.764350798132341  0.9529964615925125  0.04256411299622441  1.0000
  O   O4        1.0  0.1932923021186141  0.5466981348551413  0.04263146389543952  1.0000
  O   O5        1.0  0.926741935522898  0.24389134468100337  0.5198491438322463  1.0000
  O   O6        1.0  0.5528886685869309  0.25594631063169265  0.5206086410920889  1.0000
  O   O7        1.0  0.07325985374174583  0.7560985235354706  0.4801450363885351  1.0000
  O   O8        1.0  0.44711066299674934  0.7440572151586409  0.4793850621168261  1.0000
  O   O9        1.0  0.7152121893571248  0.4588805630732082  0.5587890270335052  1.0000
  O   O10       1.0  0.7254743025213414  0.0408805289247525  0.5596504381461571  1.0000
  O   O11       1.0  0.28479341998928465  0.5411133765313493  0.4412057102213965  1.0000
  O   O12       1.0  0.2745165998903831  0.9591200034853671  0.44034705821359665  1.0000
