data_image0
_chemical_formula_structural       Cd4H36C16O28
_chemical_formula_sum              "Cd4 H36 C16 O28"
_cell_length_a       7.003358651747879
_cell_length_b       8.41987056010808
_cell_length_c       13.876245847322963
_cell_angle_alpha    89.99939802548252
_cell_angle_beta     90.00062801971937
_cell_angle_gamma    100.01375548763913

_space_group_name_H-M_alt    "P 1"
_space_group_IT_number       1

loop_
  _space_group_symop_operation_xyz
  'x, y, z'

loop_
  _atom_site_type_symbol
  _atom_site_label
  _atom_site_symmetry_multiplicity
  _atom_site_fract_x
  _atom_site_fract_y
  _atom_site_fract_z
  _atom_site_occupancy
  Cd  Cd1       1.0  0.09990012859910993  0.4570244716736057  0.8219040080132844  1.0000
  Cd  Cd2       1.0  0.4000929338255333  0.04296883054301049  0.32190357211739246  1.0000
  Cd  Cd3       1.0  0.9000934733801743  0.5429765166035382  0.17809920032644305  1.0000
  Cd  Cd4       1.0  0.5998979827489848  0.9570200981706307  0.6780945916641985  1.0000
  H   H1        1.0  0.7025271187554125  0.3336402579212177  0.8774650496427797  1.0000
  H   H2        1.0  0.7974488642247336  0.16636401956768052  0.37746537112030154  1.0000
  H   H3        1.0  0.29746567755459796  0.6663571125198331  0.12253167280302082  1.0000
  H   H4        1.0  0.20252933239706292  0.8336383273206422  0.6225291893006004  1.0000
  H   H5        1.0  0.7538405620631183  0.505889045555243  0.9364164239191981  1.0000
  H   H6        1.0  0.7461529330925318  0.9941102162945725  0.4364192666798773  1.0000
  H   H7        1.0  0.24615116009746882  0.4941035010518107  0.06357957788416972  1.0000
  H   H8        1.0  0.253841825166667  0.0058895522032216  0.5635760144510442  1.0000
  H   H9        1.0  0.17608858167123026  0.6702452999993935  0.9693309692364737  1.0000
  H   H10       1.0  0.3239039333206223  0.8297492575971503  0.4693295959906153  1.0000
  H   H11       1.0  0.823901364889835  0.3297520981621673  0.030669356481517706  1.0000
  H   H12       1.0  0.6760825441718838  0.170251800060079  0.5306707297053919  1.0000
  H   H13       1.0  0.2672578165501918  0.7715662258433441  0.875161308742925  1.0000
  H   H14       1.0  0.23274374837167505  0.7284270571623068  0.3751630142171792  1.0000
  H   H15       1.0  0.7327421864672274  0.22842503154217303  0.12483901702351832  1.0000
  H   H16       1.0  0.7672510099221911  0.2715727113115988  0.6248358701938059  1.0000
  H   H17       1.0  0.4557254994466433  0.348218990887986  0.7561822434667322  1.0000
  H   H18       1.0  0.04427094564547221  0.1517896401407839  0.2561892104443899  1.0000
  H   H19       1.0  0.5442723990193984  0.651801292801558  0.24381231694653854  1.0000
  H   H20       1.0  0.9557241634462487  0.848205290588716  0.7438147185761964  1.0000
  H   H21       1.0  0.47676175858564573  0.5215391773836302  0.7038267690382443  1.0000
  H   H22       1.0  0.023230108226627567  0.9784661077342707  0.2038335471462034  1.0000
  H   H23       1.0  0.5232290154213572  0.4784811756669072  0.2961677913553445  1.0000
  H   H24       1.0  0.9767670450487813  0.021525177366981996  0.7961711025484491  1.0000
  H   H25       1.0  0.157680337346001  0.9569774218168874  0.9695727987808384  1.0000
  H   H26       1.0  0.342322156492699  0.5430170355026434  0.46956628206609713  1.0000
  H   H27       1.0  0.8423460371656972  0.04302324738537779  0.030432571617431806  1.0000
  H   H28       1.0  0.6576602325284285  0.4569913134827388  0.5304217924415938  1.0000
  H   H29       1.0  0.2260145835246306  0.08878060676136099  0.06994069943297632  1.0000
  H   H30       1.0  0.27399704771823963  0.4112121818488319  0.5699344715739161  1.0000
  H   H31       1.0  0.774021765243603  0.9112199653259692  0.9300661123048641  1.0000
  H   H32       1.0  0.7260025222390993  0.5887899569851882  0.4300557649699287  1.0000
  H   H33       1.0  0.5442510140280277  0.18495101474104558  0.9965124553754237  1.0000
  H   H34       1.0  0.9557530723861518  0.31503934756036495  0.4965183880923405  1.0000
  H   H35       1.0  0.45578256709399767  0.8150435414725619  0.003486429159316601  1.0000
  H   H36       1.0  0.0442400746870462  0.6849531851601611  0.5034797756830045  1.0000
  C   C1        1.0  0.1896322924106144  0.21020288141245658  0.9375509298278645  1.0000
  C   C2        1.0  0.3103639873428108  0.28979975532457297  0.43754399091824336  1.0000
  C   C3        1.0  0.8103964167981347  0.7898146850356155  0.06246380904710951  1.0000
  C   C4        1.0  0.6896255261928346  0.7102085242616026  0.5624498488572129  1.0000
  C   C5        1.0  0.2465394331411019  0.07074224644823353  0.9924655505200238  1.0000
  C   C6        1.0  0.25346742278159706  0.42925110961703444  0.4924616705215286  1.0000
  C   C7        1.0  0.7534938795215782  0.9292511037531315  0.007541261234251801  1.0000
  C   C8        1.0  0.7465338406031709  0.5707522213044812  0.507528566022863  1.0000
  C   C9        1.0  0.46326093156026354  0.06832427162053283  0.9727936822240579  1.0000
  C   C10       1.0  0.036740465552739486  0.43166576893463565  0.4727929270938064  1.0000
  C   C11       1.0  0.5367624890526415  0.9316631320298823  0.02721096755553991  1.0000
  C   C12       1.0  0.963246548990213  0.5683377006563147  0.527205236627367  1.0000
  C   C13       1.0  0.4957575022472654  0.054176472587698817  0.8648899945546662  1.0000
  C   C14       1.0  0.004239774245327527  0.4458186439699078  0.36489040655563093  1.0000
  C   C15       1.0  0.504254601396326  0.9458049984030693  0.1351096106222727  1.0000
  C   C16       1.0  0.9957466210265552  0.5541884573627627  0.6351091984634537  1.0000
  O   O1        1.0  0.09239207654453449  0.1824114055423109  0.8590042988858004  1.0000
  O   O2        1.0  0.4076001926028214  0.3175874624894703  0.3589919350822727  1.0000
  O   O3        1.0  0.9076287847426558  0.8175965687647705  0.1410032334404647  1.0000
  O   O4        1.0  0.5923659854331548  0.6824186272423488  0.640985329548734  1.0000
  O   O5        1.0  0.2497913756888792  0.3530469489900412  0.9665649368018521  1.0000
  O   O6        1.0  0.2502178315941351  0.14694672267470574  0.4665608094134655  1.0000
  O   O7        1.0  0.7502280388258313  0.6469417022080037  0.033444036898622215  1.0000
  O   O8        1.0  0.7498148835880016  0.8530695963117126  0.5334366337323999  1.0000
  O   O9        1.0  0.5780599358257916  0.17637330751404787  0.8174771211695601  1.0000
  O   O10       1.0  0.9219054337427579  0.3236149372104648  0.317481369289311  1.0000
  O   O11       1.0  0.4219429991334636  0.8236118784946173  0.1825174393775626  1.0000
  O   O12       1.0  0.07805370222814642  0.676385178087493  0.6825146323992544  1.0000
  O   O13       1.0  0.4393168117063199  0.9171803761171163  0.8245712277282993  1.0000
  O   O14       1.0  0.06068555528058542  0.582808725962991  0.3245686671629855  1.0000
  O   O15       1.0  0.5607097272327621  0.0828082057438237  0.17543414271178656  1.0000
  O   O16       1.0  0.9393052790941072  0.4171862464117666  0.6754309379097236  1.0000
  O   O17       1.0  0.8037896197553209  0.40909284885433556  0.9141133085348586  1.0000
  O   O18       1.0  0.6961941929485892  0.0909108734449333  0.4141157559347023  1.0000
  O   O19       1.0  0.19620255727668484  0.590908153333217  0.08588413455283471  1.0000
  O   O20       1.0  0.3037911281669281  0.9090914040585217  0.5858824077859383  1.0000
  O   O21       1.0  0.1526716464013518  0.6956011904930364  0.9006004133525637  1.0000
  O   O22       1.0  0.3473223957817596  0.8043942504400833  0.4006022240592416  1.0000
  O   O23       1.0  0.8473245368189949  0.3043985640847922  0.09940207434242151  1.0000
  O   O24       1.0  0.6526663944439193  0.19560436753903332  0.5994002636194651  1.0000
  O   O25       1.0  0.38772468358808965  0.43695958513447414  0.7401565264933014  1.0000
  O   O26       1.0  0.11228446337216273  0.0630563831744553  0.24015438274508233  1.0000
  O   O27       1.0  0.6122862254549875  0.5630678231780238  0.2598618155794838  1.0000
  O   O28       1.0  0.8877129585082032  0.9369361078387255  0.7598574735063013  1.0000
