data_image0
_chemical_formula_structural       Zn4H72C100N16O20
_chemical_formula_sum              "Zn4 H72 C100 N16 O20"
_cell_length_a       14.091242777778868
_cell_length_b       16.321075587036216
_cell_length_c       19.735181359843036
_cell_angle_alpha    104.54448345662077
_cell_angle_beta     89.99890453401261
_cell_angle_gamma    89.99979182954591

_space_group_name_H-M_alt    "P 1"
_space_group_IT_number       1

loop_
  _space_group_symop_operation_xyz
  'x, y, z'

loop_
  _atom_site_type_symbol
  _atom_site_label
  _atom_site_symmetry_multiplicity
  _atom_site_fract_x
  _atom_site_fract_y
  _atom_site_fract_z
  _atom_site_occupancy
  Zn  Zn1       1.0  0.5670396036300717  0.7433051921448238  0.6638205646214743  1.0000
  Zn  Zn2       1.0  0.9329469422339828  0.24331527558937432  0.1638234562277532  1.0000
  Zn  Zn3       1.0  0.43297593341387147  0.2567021122132118  0.33618221286164385  1.0000
  Zn  Zn4       1.0  0.0670267248269667  0.7566920289167172  0.8361798282816724  1.0000
  H   H1        1.0  0.7304271852647446  0.9444880088029847  0.2916722063480037  1.0000
  H   H2        1.0  0.44467248124521325  0.43880508972726046  0.5785638276846043  1.0000
  H   H3        1.0  0.9181625811488346  0.4617139576057169  0.07615504976015328  1.0000
  H   H4        1.0  0.3256621578365611  0.3955028200066976  0.49710352262038543  1.0000
  H   H5        1.0  0.7695536688693637  0.444492284674048  0.7916689632159617  1.0000
  H   H6        1.0  0.5114673998621058  0.9196139553207556  0.7495027358834321  1.0000
  H   H7        1.0  0.6183658104084133  0.0646444112393993  0.5059684896916821  1.0000
  H   H8        1.0  0.7578874589149864  0.648355421353365  0.9790548851923262  1.0000
  H   H9        1.0  0.7209007764009812  0.5435953246718767  0.7213488067088251  1.0000
  H   H10       1.0  0.7929268203053895  0.8771236761635278  0.3685703609946103  1.0000
  H   H11       1.0  0.055316420423380905  0.9388103997872859  0.0785668958463859  1.0000
  H   H12       1.0  0.8816306821176526  0.5646490918654975  0.005962911752227682  1.0000
  H   H13       1.0  0.1743377376876083  0.8955045650271173  0.9971001007030011  1.0000
  H   H14       1.0  0.17444508661284894  0.22180650290994208  0.34665004663858673  1.0000
  H   H15       1.0  0.7471878328904396  0.27397619791882016  0.9378055496368064  1.0000
  H   H16       1.0  0.4278032927746622  0.674034393922696  0.7420327402417257  1.0000
  H   H17       1.0  0.7790815313237047  0.04359647255930809  0.22135093273386267  1.0000
  H   H18       1.0  0.0721965562362001  0.17404410800995854  0.2420349140117537  1.0000
  H   H19       1.0  0.7871332698866311  0.2478900298972205  0.4065469418800589  1.0000
  H   H20       1.0  0.08991321442880458  0.47874262011135466  0.35432294138144027  1.0000
  H   H21       1.0  0.7421322227164778  0.1483467276433572  0.47906307317902735  1.0000
  H   H22       1.0  0.23719336448106532  0.32997563906939575  0.4291821832051355  1.0000
  H   H23       1.0  0.7128928953191791  0.7479022372659114  0.9065390855399187  1.0000
  H   H24       1.0  0.2031488087280025  0.12275198370018359  0.993519836949247  1.0000
  H   H25       1.0  0.0917798017255578  0.23200283207227557  0.0615291215681495  1.0000
  H   H26       1.0  0.32554963370014184  0.7217899852364908  0.8466488712439855  1.0000
  H   H27       1.0  0.9497651565009377  0.05612305405013269  0.14291104400373913  1.0000
  H   H28       1.0  0.9885324288454954  0.4196185443439829  0.2494976458229772  1.0000
  H   H29       1.0  0.4082217882652158  0.7320014986116232  0.5615284495375406  1.0000
  H   H30       1.0  0.41007879017079324  0.9787216492450596  0.8543282992976416  1.0000
  H   H31       1.0  0.2628008187330835  0.8299842940836654  0.9291926680699732  1.0000
  H   H32       1.0  0.5818246713706116  0.961700594660492  0.5761507681231137  1.0000
  H   H33       1.0  0.7528203538303232  0.7739787115110556  0.43781040368383367  1.0000
  H   H34       1.0  0.7070898761286416  0.37711830840731847  0.8685639423195894  1.0000
  H   H35       1.0  0.5502206144756557  0.5561156329613014  0.6429064017980863  1.0000
  H   H36       1.0  0.296846663593719  0.6227573211417337  0.4935211284930503  1.0000
  H   H37       1.0  0.5917760071394937  0.2680089705393484  0.4384830927582968  1.0000
  H   H38       1.0  0.9100980648930773  0.5212748127153191  0.645660151361902  1.0000
  H   H39       1.0  0.4181610600598448  0.038292151166409404  0.4238444253037912  1.0000
  H   H40       1.0  0.0502141877385114  0.9438810852280209  0.8571007038014216  1.0000
  H   H41       1.0  0.6744779676326048  0.27820402626685586  0.1533516518767399  1.0000
  H   H42       1.0  0.2528120916448131  0.7260260425782687  0.06219617616501687  1.0000
  H   H43       1.0  0.8256650255719508  0.10449894162353249  0.002895300844592401  1.0000
  H   H44       1.0  0.572222179498695  0.3259754423433988  0.2579710697721325  1.0000
  H   H45       1.0  0.24718808664552236  0.22601530002402365  0.5621916397023838  1.0000
  H   H46       1.0  0.5553487330726271  0.5612003155957409  0.42144007544899154  1.0000
  H   H47       1.0  0.21285530031686759  0.7520843592884745  0.5934413985098245  1.0000
  H   H48       1.0  0.24212098156591821  0.3516347922123018  0.02094738275616239  1.0000
  H   H49       1.0  0.90822083231933  0.768002573089589  0.9384833957308346  1.0000
  H   H50       1.0  0.7031653251206293  0.37725124916790514  0.5064834320864193  1.0000
  H   H51       1.0  0.29291217751005405  0.6228757033792076  0.13142999381366846  1.0000
  H   H52       1.0  0.2070929748260539  0.12286527153363377  0.6314260701470006  1.0000
  H   H53       1.0  0.927780659068567  0.825966994338451  0.7579721995591697  1.0000
  H   H54       1.0  0.488510525339521  0.0804028444891074  0.2504857994096739  1.0000
  H   H55       1.0  0.23044128810957426  0.5555029930211501  0.20832878286619655  1.0000
  H   H56       1.0  0.2578769275308161  0.8516301932107876  0.5209333935493063  1.0000
  H   H57       1.0  0.2791026964392955  0.45640375083222284  0.2786532751032311  1.0000
  H   H58       1.0  0.0114696248240307  0.580391292423748  0.7504914698853825  1.0000
  H   H59       1.0  0.9446544080055546  0.061197537748320506  0.9214355067470805  1.0000
  H   H60       1.0  0.8255342576828113  0.7782096634225011  0.6533555851848618  1.0000
  H   H61       1.0  0.6743413150158731  0.6045006864995058  0.5028969459853911  1.0000
  H   H62       1.0  0.22091484505457265  0.9563842463704259  0.7786432827043726  1.0000
  H   H63       1.0  0.5898970060974804  0.021282490741121804  0.14565861992295484  1.0000
  H   H64       1.0  0.7372154278859568  0.1700211111027201  0.07081680887154822  1.0000
  H   H65       1.0  0.38162063091066756  0.9353432710883777  0.4940104507383865  1.0000
  H   H66       1.0  0.08183734324253321  0.5382996765304142  0.9238556297757085  1.0000
  H   H67       1.0  0.7627902379602035  0.6700158407570597  0.5708137607006166  1.0000
  H   H68       1.0  0.11837775855747171  0.4353512500531166  0.9940232183684755  1.0000
  H   H69       1.0  0.26957061047760794  0.05548258226419728  0.7083204121845413  1.0000
  H   H70       1.0  0.44978640650545293  0.44389167114635336  0.35710650987732623  1.0000
  H   H71       1.0  0.2871354156660146  0.2520962051942846  0.09346134448819042  1.0000
  H   H72       1.0  0.7968326645923584  0.8772540547669649  0.00648419796309699  1.0000
  C   C1        1.0  0.6814476334034795  0.711930661396245  0.7679573073127629  1.0000
  C   C2        1.0  0.1379895130497459  0.021236205622685092  0.029918170715198807  1.0000
  C   C3        1.0  0.0657646777437364  0.0032297538325422996  0.07359750874653771  1.0000
  C   C4        1.0  0.7294017078202374  0.5661757686558886  0.7778133575612003  1.0000
  C   C5        1.0  0.7914631997089998  0.4785040950269702  0.932163469196027  1.0000
  C   C6        1.0  0.36664198350946725  0.7676887525040923  0.8272671231537457  1.0000
  C   C7        1.0  0.776420555859275  0.3378340041004222  0.9521015937931027  1.0000
  C   C8        1.0  0.7705953166426127  0.06616938643374229  0.277815555808381  1.0000
  C   C9        1.0  0.7235805906415109  0.8378304145494864  0.4520979793000707  1.0000
  C   C10       1.0  0.1402922151532309  0.3548141095334857  0.3595156447082672  1.0000
  C   C11       1.0  0.7548586238797625  0.39557750531141517  0.9132962135778655  1.0000
  C   C12       1.0  0.1479239274751336  0.10578084064462698  0.025802415521177097  1.0000
  C   C13       1.0  0.8350638233847222  0.36127959215727395  0.01125580288606191  1.0000
  C   C14       1.0  0.7736707636630628  0.18117130756794353  0.38233817990850133  1.0000
  C   C15       1.0  0.3520720570854223  0.605781208222055  0.5258033712186858  1.0000
  C   C16       1.0  0.4229018769635573  0.7409809943960112  0.7687733548507582  1.0000
  C   C17       1.0  0.7438712134482445  0.0107560967709617  0.3175481261014212  1.0000
  C   C18       1.0  0.2639641812872995  0.9587158160730948  0.944715306552787  1.0000
  C   C19       1.0  0.8552461437434078  0.29885945125060687  0.053152120684089296  1.0000
  C   C20       1.0  0.6278737783962072  0.9437018808311136  0.5304509305901703  1.0000
  C   C21       1.0  0.7672102663400296  0.5390607100823742  0.8905428918023546  1.0000
  C   C22       1.0  0.7451454437798759  0.8955712165674397  0.4132968107032227  1.0000
  C   C23       1.0  0.006931073320352301  0.06748419638132219  0.1090647660335762  1.0000
  C   C24       1.0  0.6447431252008897  0.7988411700938299  0.5531368364642617  1.0000
  C   C25       1.0  0.08673083844344379  0.4110502810125992  0.3312723987695847  1.0000
  C   C26       1.0  0.7140681710075256  0.6520044701002021  0.8097817356574382  1.0000
  C   C27       1.0  0.4342233679768698  0.503225053873038  0.5735962885714159  1.0000
  C   C28       1.0  0.6492924400968789  0.0013630383993969999  0.4913494049797222  1.0000
  C   C29       1.0  0.8185561321319597  0.2119194765021888  0.2679624126767379  1.0000
  C   C30       1.0  0.031293002915560905  0.37818455831691733  0.27278385019194223  1.0000
  C   C31       1.0  0.13334383440977862  0.2677024235646003  0.32727232289023794  1.0000
  C   C32       1.0  0.35969733838561524  0.8548004922435196  0.8595125779580641  1.0000
  C   C33       1.0  0.23602691093188355  0.4587008394752273  0.44472886005806345  1.0000
  C   C34       1.0  0.41431292194300084  0.6659010419243855  0.5633038262382684  1.0000
  C   C35       1.0  0.7263478161907103  0.681182144667261  0.8823298549339427  1.0000
  C   C36       1.0  0.08568180468689231  0.165901789592148  0.0633054733473912  1.0000
  C   C37       1.0  0.7477279948208492  0.12548139118409546  0.4222630958592434  1.0000
  C   C38       1.0  0.7561221454752741  0.5107603729567741  0.817545125042983  1.0000
  C   C39       1.0  0.8507069571013658  0.5013665817172067  0.9913439450519165  1.0000
  C   C40       1.0  0.3619989143028874  0.5212326983509286  0.5299166656771419  1.0000
  C   C41       1.0  0.4687108342848206  0.8781726281197705  0.7727867373294971  1.0000
  C   C42       1.0  0.7085407209216683  0.9785006217303334  0.4321707254062305  1.0000
  C   C43       1.0  0.785948214340671  0.15199606978913488  0.309791412296761  1.0000
  C   C44       1.0  0.6649277197290006  0.8612700162243668  0.5112506648695074  1.0000
  C   C45       1.0  0.4132663279094615  0.9110337165537955  0.8312730545668856  1.0000
  C   C46       1.0  0.8721211593551957  0.44370673878067624  0.030451541736169888  1.0000
  C   C47       1.0  0.49305433198673404  0.5674796735176456  0.6090632849290358  1.0000
  C   C48       1.0  0.07709555348774438  0.2409913034743525  0.268776598620633  1.0000
  C   C49       1.0  0.7327973429956458  0.0390501897884477  0.3905472809883861  1.0000
  C   C50       1.0  0.752289044502092  0.6254926602681364  0.9222539991919518  1.0000
  C   C51       1.0  0.9143017976000537  0.8341004508548265  0.9367003062300441  1.0000
  C   C52       1.0  0.28596013999969483  0.34799777038608676  0.1902164429829512  1.0000
  C   C53       1.0  0.8597069998041461  0.6451988920827815  0.6404781820480352  1.0000
  C   C54       1.0  0.5069604953596284  0.43252826376247794  0.3909421575663856  1.0000
  C   C55       1.0  0.24387777912796343  0.48923490471918285  0.1824526210012181  1.0000
  C   C56       1.0  0.9930383358195131  0.9325199432470368  0.8909358343075696  1.0000
  C   C57       1.0  0.16492971408453636  0.6387334090559305  0.9887532251044392  1.0000
  C   C58       1.0  0.23280385147548802  0.4609345675385865  0.10945485413338928  1.0000
  C   C59       1.0  0.6380180421486302  0.4787708082022205  0.4700802558810794  1.0000
  C   C60       1.0  0.5771108214483788  0.2590269429915394  0.23122854071640833  1.0000
  C   C61       1.0  0.2561358078900042  0.9892170262637093  0.6824434981418506  1.0000
  C   C62       1.0  0.37213253311558253  0.05629402973942631  0.4695494804120983  1.0000
  C   C63       1.0  0.22632774175231424  0.8187967515357711  0.6176539127183247  1.0000
  C   C64       1.0  0.291450687872377  0.021478831309131897  0.5678206935880042  1.0000
  C   C65       1.0  0.1492929675157342  0.49863692494443507  0.008651456517370112  1.0000
  C   C66       1.0  0.9228951454530688  0.7590191660016642  0.7312243028958535  1.0000
  C   C67       1.0  0.21404816203051522  0.8479764201690755  0.690204640910018  1.0000
  C   C68       1.0  0.5657978464253547  0.4967797186298029  0.42640140261077875  1.0000
  C   C69       1.0  0.7360300660573672  0.04130035057000469  0.0552771507914116  1.0000
  C   C70       1.0  0.1814324379527221  0.7880542794382918  0.7320349169525642  1.0000
  C   C71       1.0  0.2736748175411563  0.3188112339076594  0.117669016630586  1.0000
  C   C72       1.0  0.8619827348169552  0.9787673011745212  0.9700762176528459  1.0000
  C   C73       1.0  0.22356588498801952  0.6621739331338218  0.04790942268920159  1.0000
  C   C74       1.0  0.8666560901706718  0.7323099449737284  0.6727244126237295  1.0000
  C   C75       1.0  0.26720187207274654  0.9609235662666433  0.6094444747896118  1.0000
  C   C76       1.0  0.9342047314570863  0.996774385923345  0.9263985312373607  1.0000
  C   C77       1.0  0.2548651257982755  0.10441203426802298  0.586697930526853  1.0000
  C   C78       1.0  0.2764328174795239  0.1621648630033832  0.5479023001729005  1.0000
  C   C79       1.0  0.33507575314710886  0.13872589437134755  0.4887492394480972  1.0000
  C   C80       1.0  0.9687076313864652  0.6218278103461826  0.7272083249593635  1.0000
  C   C81       1.0  0.5867236614731581  0.08897105616920702  0.16872108990938273  1.0000
  C   C82       1.0  0.2706060229794859  0.43382140783283757  0.22218934320581246  1.0000
  C   C83       1.0  0.12787166846415232  0.5562999324909725  0.9695576916280899  1.0000
  C   C84       1.0  0.24771442837230506  0.37449945234398296  0.0777466363942807  1.0000
  C   C85       1.0  0.24514059104481592  0.6044228363028948  0.08670207756598808  1.0000
  C   C86       1.0  0.8520568362001127  0.8942220328743671  0.9742009620212144  1.0000
  C   C87       1.0  0.3185686132539161  0.28806967989703475  0.23205010441544266  1.0000
  C   C88       1.0  0.6479441896211  0.3942229311539974  0.4741997622963651  1.0000
  C   C89       1.0  0.5856962281116723  0.33410689536356836  0.43670212300690275  1.0000
  C   C90       1.0  0.35071103284892763  0.9986297073587663  0.5086457883116183  1.0000
  C   C91       1.0  0.2522875423993156  0.8744885667391601  0.5777324313008307  1.0000
  C   C92       1.0  0.6403047151628127  0.1452036473008746  0.14048650201455365  1.0000
  C   C93       1.0  0.20855446651934534  0.5214867518331799  0.0678267692043875  1.0000
  C   C94       1.0  0.3552688635303626  0.20115980429114436  0.4468676665333859  1.0000
  C   C95       1.0  0.5312876709899116  0.1218365754731607  0.2272093408199467  1.0000
  C   C96       1.0  0.913275473164383  0.5889633536655411  0.6687180124630459  1.0000
  C   C97       1.0  0.14473178103687453  0.7011617786545513  0.9468672306098184  1.0000
  C   C98       1.0  0.76397585215296  0.5412982358332596  0.55528031564846  1.0000
  C   C99       1.0  0.6333593603642241  0.2323141210201811  0.17273321399322583  1.0000
  C   C100      1.0  0.229405317718772  0.9338018375701224  0.722178714296632  1.0000
  N   N1        1.0  0.015673988248899203  0.14822013831541617  0.1040074426300777  1.0000
  N   N2        1.0  0.026449458914456207  0.2949606949219969  0.24116764473514965  1.0000
  N   N3        1.0  0.19301805642001574  0.9551680642429188  0.9934281608584216  1.0000
  N   N4        1.0  0.47354848041062786  0.794949360277023  0.7411680558390472  1.0000
  N   N5        1.0  0.2001917293661606  0.37857361358179986  0.4162784517469476  1.0000
  N   N6        1.0  0.3069752969801769  0.4551677300776333  0.4934285843154457  1.0000
  N   N7        1.0  0.2997997539508576  0.878571221253196  0.9162790421855435  1.0000
  N   N8        1.0  0.48431901567910535  0.6482131512371012  0.6040045557690163  1.0000
  N   N9        1.0  0.799803937218698  0.621435589922946  0.5837211733687084  1.0000
  N   N10       1.0  0.5156915536826858  0.3517935200224827  0.39600265063423734  1.0000
  N   N11       1.0  0.9843089043686889  0.8517852670993733  0.8959984876217889  1.0000
  N   N12       1.0  0.973541240083648  0.705049141677186  0.7588290716553772  1.0000
  N   N13       1.0  0.5264578310693295  0.20505857716361217  0.2588328263642056  1.0000
  N   N14       1.0  0.6930374014848013  0.5448376754342165  0.5065697451132607  1.0000
  N   N15       1.0  0.7002008802422212  0.12143988118867098  0.08372148402374081  1.0000
  N   N16       1.0  0.8069619977196468  0.04483417654368789  0.0065659644998277  1.0000
  O   O1        1.0  0.6758444415182226  0.7239116222432642  0.532130328581097  1.0000
  O   O2        1.0  0.9034759897664132  0.32596373596733486  0.1100609682008482  1.0000
  O   O3        1.0  0.20998030329274542  0.5238389673190722  0.4294536337003266  1.0000
  O   O4        1.0  0.6512915299837518  0.6742497872457064  0.7047922800093502  1.0000
  O   O5        1.0  0.8487098263806916  0.1742409007753025  0.2047928900708271  1.0000
  O   O6        1.0  0.5964939012170802  0.825933801937822  0.6100388561169936  1.0000
  O   O7        1.0  0.6821915649789149  0.7897881977110329  0.7931739510704291  1.0000
  O   O8        1.0  0.8178175826466473  0.28977511949098295  0.2931822202817926  1.0000
  O   O9        1.0  0.8241684163691332  0.22392064932662234  0.032148676161092696  1.0000
  O   O10       1.0  0.29000168960146055  0.023826627172070392  0.9294405792495867  1.0000
  O   O11       1.0  0.40356208619378015  0.174088060584232  0.3899831595872953  1.0000
  O   O12       1.0  0.348704846095174  0.32575055395453484  0.29522121234701615  1.0000
  O   O13       1.0  0.15129222724831243  0.8257315891042365  0.7952051899180148  1.0000
  O   O14       1.0  0.7099634617634794  0.9761680179176365  0.0705474081643942  1.0000
  O   O15       1.0  0.09645012943298782  0.6740790152804126  0.8899816017768103  1.0000
  O   O16       1.0  0.17585137857810204  0.7760879208819274  0.9678584178905326  1.0000
  O   O17       1.0  0.3178289397141397  0.21021404270631894  0.2068277745741369  1.0000
  O   O18       1.0  0.32413987062430044  0.2760798576654508  0.4678625750810639  1.0000
  O   O19       1.0  0.1821816324347267  0.7101973705979175  0.7068087658396891  1.0000
  O   O20       1.0  0.7900302661003809  0.4761696029960659  0.570550926889986  1.0000
