data_image0
_chemical_formula_structural       Ag12H90C96N18O36
_chemical_formula_sum              "Ag12 H90 C96 N18 O36"
_cell_length_a       12.35341828000342
_cell_length_b       16.499710444961444
_cell_length_c       16.49973185014496
_cell_angle_alpha    120.00025997306219
_cell_angle_beta     89.99992448669765
_cell_angle_gamma    90.00000360446829

_space_group_name_H-M_alt    "P 1"
_space_group_IT_number       1

loop_
  _space_group_symop_operation_xyz
  'x, y, z'

loop_
  _atom_site_type_symbol
  _atom_site_label
  _atom_site_symmetry_multiplicity
  _atom_site_fract_x
  _atom_site_fract_y
  _atom_site_fract_z
  _atom_site_occupancy
  Ag  Ag1       1.0  0.5833411001821674  0.6969332863577762  0.3484665722693308  1.0000
  Ag  Ag2       1.0  0.4166768249309882  0.34847340244873926  0.6515381561886142  1.0000
  Ag  Ag3       1.0  0.2500066790066313  0.6515360828579234  0.30306462325641814  1.0000
  Ag  Ag4       1.0  0.0833350782926701  0.30306525711564797  0.6515322778905528  1.0000
  Ag  Ag5       1.0  0.9166698906566636  0.6515336816842916  0.34846970640029434  1.0000
  Ag  Ag6       1.0  0.7500055775194241  0.3484651345605839  0.6969360869906821  1.0000
  Ag  Ag7       1.0  0.5833335643358879  0.21311567455671107  0.6065585198936104  1.0000
  Ag  Ag8       1.0  0.41666654129107167  0.6065583739135008  0.3934429450245532  1.0000
  Ag  Ag9       1.0  0.24999652629529123  0.39344257059403276  0.7868818748439849  1.0000
  Ag  Ag10      1.0  0.08333370971594431  0.7868866677618416  0.3934462285985065  1.0000
  Ag  Ag11      1.0  0.9166647939396028  0.39344558609985814  0.6065631931108796  1.0000
  Ag  Ag12      1.0  0.7500011593691055  0.6065573660372152  0.21311405547636744  1.0000
  H   H1        1.0  0.6666685031886886  0.49718724662790226  0.4971879882079263  1.0000
  H   H2        1.0  0.5000008302964645  0.4971790477029001  0.9999867711344662  1.0000
  H   H3        1.0  0.3333356346830954  6.8962733053351265e-06  0.5028123074141887  1.0000
  H   H4        1.0  0.1666635719238556  0.5028060231018755  0.5028111298367292  1.0000
  H   H5        1.0  0.9999953060035695  0.5028136280535519  3.8267670206441395e-06  1.0000
  H   H6        1.0  0.8333292333138759  1.063188523173956e-05  0.49719344486856426  1.0000
  H   H7        1.0  0.6497631801756684  0.19599380270529557  0.34578273542802407  1.0000
  H   H8        1.0  0.48307589321468214  0.3457908487664411  0.1497962421979864  1.0000
  H   H9        1.0  0.3164356003090774  0.14979179256182806  0.804005109187592  1.0000
  H   H10       1.0  0.14975881982793737  0.80400370128833  0.6542073316892497  1.0000
  H   H11       1.0  0.983099644536182  0.6542328155556801  0.8502288549571659  1.0000
  H   H12       1.0  0.8164240967224077  0.8502073791633933  0.19599630924047068  1.0000
  H   H13       1.0  0.35023855513072993  0.8502140162571904  0.6542148198694945  1.0000
  H   H14       1.0  0.6835693469798442  0.34578172031849164  0.19599396238958633  1.0000
  H   H15       1.0  0.0169045386617981  0.8040057248679418  0.14980406618103373  1.0000
  H   H16       1.0  0.5168877721201923  0.1959897712919199  0.850219775288991  1.0000
  H   H17       1.0  0.8502372446799383  0.14978413560865522  0.3457778574499314  1.0000
  H   H18       1.0  0.18356470832721067  0.654221474157893  0.8040024719061377  1.0000
  H   H19       1.0  0.436785653360829  0.05791018424842052  0.3818132941823718  1.0000
  H   H20       1.0  0.27012091865414334  0.38181597822234886  0.32390399639898254  1.0000
  H   H21       1.0  0.10345071280825378  0.32390354115568687  0.9420867778357758  1.0000
  H   H22       1.0  0.9367879847570323  0.9420877280377199  0.6181818836613148  1.0000
  H   H23       1.0  0.770117450902525  0.6181822904859261  0.676092351721806  1.0000
  H   H24       1.0  0.6034507692009826  0.676094990218381  0.05791204646462939  1.0000
  H   H25       1.0  0.5632144482290969  0.6760936621562054  0.6181813255461323  1.0000
  H   H26       1.0  0.89654857795243  0.3818174834439318  0.05791003793339663  1.0000
  H   H27       1.0  0.22987945170948618  0.9420883807759637  0.32390463492036764  1.0000
  H   H28       1.0  0.7298807880318848  0.05790991213930853  0.6760917649370626  1.0000
  H   H29       1.0  0.06321457041232749  0.3239045435079859  0.38181790040152913  1.0000
  H   H30       1.0  0.3965477398406563  0.6181828773429243  0.942087615938284  1.0000
  H   H31       1.0  0.5562546694646215  0.02044191783014071  0.31302836618982605  1.0000
  H   H32       1.0  0.38958990024197254  0.313029511148649  0.2925863988253212  1.0000
  H   H33       1.0  0.22292044500325398  0.29258591063848616  0.9795546375245862  1.0000
  H   H34       1.0  0.05625593436393932  0.9795570856077305  0.686968862975519  1.0000
  H   H35       1.0  0.8895839552730395  0.6869724158880857  0.7074121262283198  1.0000
  H   H36       1.0  0.7229205704285988  0.707412198949875  0.020444383083997944  1.0000
  H   H37       1.0  0.4437462413265862  0.7074115634621164  0.6869673916756014  1.0000
  H   H38       1.0  0.7770796505239163  0.3130314381112527  0.020444245221888563  1.0000
  H   H39       1.0  0.11041052387447081  0.9795558390204204  0.2925865976394347  1.0000
  H   H40       1.0  0.6104126109236175  0.02044010147069722  0.7074075315306414  1.0000
  H   H41       1.0  0.9437466210946538  0.29258797534407677  0.3130322072417471  1.0000
  H   H42       1.0  0.27707875282951017  0.6869682009585033  0.9795555679848248  1.0000
  H   H43       1.0  0.5565257565357484  0.12547323346277753  0.42404033051186457  1.0000
  H   H44       1.0  0.3898626991942821  0.424042130025562  0.298567868027405  1.0000
  H   H45       1.0  0.223191717901841  0.29856721380167534  0.874524142231344  1.0000
  H   H46       1.0  0.0565296357760872  0.8745264696415518  0.5759561984747421  1.0000
  H   H47       1.0  0.8898591827713673  0.5759609152364858  0.7014331747213447  1.0000
  H   H48       1.0  0.7231916575349971  0.7014308956235453  0.12547487802857674  1.0000
  H   H49       1.0  0.44347434943783526  0.7014301798217346  0.5759549597370396  1.0000
  H   H50       1.0  0.7768083831466442  0.4240442037079291  0.12547477561040674  1.0000
  H   H51       1.0  0.11014014313300889  0.874524457308823  0.2985684997124737  1.0000
  H   H52       1.0  0.6101390126720007  0.12547285789439389  0.7014291038419386  1.0000
  H   H53       1.0  0.9434745339943403  0.29856814700109163  0.42404342738408457  1.0000
  H   H54       1.0  0.276808469695304  0.575956485270211  0.8745239882016802  1.0000
  H   H55       1.0  0.5965140759614727  0.8505497314354357  0.23920047048352439  1.0000
  H   H56       1.0  0.42984749528803695  0.23920130007598317  0.3886487540470823  1.0000
  H   H57       1.0  0.26318210271790576  0.3886492559074243  0.1494444385495655  1.0000
  H   H58       1.0  0.09651594180217421  0.14944924778302487  0.7607967069186399  1.0000
  H   H59       1.0  0.9298506311192013  0.7607968725420944  0.6113473887039191  1.0000
  H   H60       1.0  0.7631831836061379  0.6113473611547561  0.8505523621595542  1.0000
  H   H61       1.0  0.4034803935306925  0.6113505265296123  0.7607962679831813  1.0000
  H   H62       1.0  0.7368107084257929  0.23920149757933723  0.8505542586896978  1.0000
  H   H63       1.0  0.07014785980523189  0.14944157242829448  0.38864441069870986  1.0000
  H   H64       1.0  0.5701461471477387  0.8505537862116554  0.6113491641678194  1.0000
  H   H65       1.0  0.9034784840891917  0.3886473806813838  0.23920382637652435  1.0000
  H   H66       1.0  0.2368120911448344  0.7607958351775608  0.1494418760972495  1.0000
  H   H67       1.0  0.4570142037410676  0.8754740070409354  0.265462845521043  1.0000
  H   H68       1.0  0.2903476451061523  0.26546367648442265  0.389989540808969  1.0000
  H   H69       1.0  0.1236822745161277  0.3899895668061149  0.12452440825826736  1.0000
  H   H70       1.0  0.9570162527771445  0.12452536138152227  0.7345344744474929  1.0000
  H   H71       1.0  0.7903507808210508  0.734536048359203  0.6100089494345866  1.0000
  H   H72       1.0  0.623682501836811  0.6100090461538487  0.8754730841281884  1.0000
  H   H73       1.0  0.542981076355801  0.6100100640375171  0.7345348441083386  1.0000
  H   H74       1.0  0.8763113474231403  0.2654634400457139  0.8754738584771714  1.0000
  H   H75       1.0  0.20964770768162566  0.12452420908763173  0.3899902082567266  1.0000
  H   H76       1.0  0.7096468092397431  0.8754731400106549  0.6100059614560179  1.0000
  H   H77       1.0  0.042979790987985204  0.3899871978104271  0.2654641516962002  1.0000
  H   H78       1.0  0.3763127716107774  0.7345338087904664  0.1245220969493488  1.0000
  H   H79       1.0  0.515123626982394  0.7731890171689813  0.2589502385988069  1.0000
  H   H80       1.0  0.3484602206457624  0.2589512420780409  0.48576061661140096  1.0000
  H   H81       1.0  0.18179403964840907  0.48576054273107877  0.22680719139521  1.0000
  H   H82       1.0  0.015125534954428598  0.22680966109712122  0.7410473933638712  1.0000
  H   H83       1.0  0.8484619068901081  0.7410456735975613  0.5142357245382883  1.0000
  H   H84       1.0  0.6817952478044093  0.5142361232924414  0.7731897139570449  1.0000
  H   H85       1.0  0.48486921528992616  0.5142397530575096  0.7410474604664897  1.0000
  H   H86       1.0  0.818197158025079  0.25895077763568236  0.77319170653665  1.0000
  H   H87       1.0  0.15153172979623264  0.22680767858994946  0.4857582001019124  1.0000
  H   H88       1.0  0.6515318000860904  0.77318944931109  0.5142370883445507  1.0000
  H   H89       1.0  0.9848672801871103  0.48575784903333397  0.2589515732618112  1.0000
  H   H90       1.0  0.3182000214304992  0.7410486742960033  0.22680579191285233  1.0000
  C   C1        1.0  0.6666685582774221  0.43118073855801947  0.4311808373991751  1.0000
  C   C2        1.0  0.49999758920998977  0.43117026772969763  0.9999880299669781  1.0000
  C   C3        1.0  0.3333355764790866  3.4122220285245226e-06  0.5688195049074307  1.0000
  C   C4        1.0  0.16666594531124454  0.5688143493915021  0.5688200988628224  1.0000
  C   C5        1.0  0.9999969281036486  0.5688210083665907  3.967592569159709e-06  1.0000
  C   C6        1.0  0.8333317199974317  8.123845510936174e-06  0.43118375443425794  1.0000
  C   C7        1.0  0.6602023276940585  0.3464466471921099  0.43133609330914163  1.0000
  C   C8        1.0  0.4935265032362253  0.4313393946473951  0.08489194799933839  1.0000
  C   C9        1.0  0.32687170780062763  0.08489338915378389  0.653551249247158  1.0000
  C   C10       1.0  0.1601989135136748  0.6535499631772693  0.568657272017056  1.0000
  C   C11       1.0  0.9935355611644213  0.5686717920072578  0.9151213641834698  1.0000
  C   C12       1.0  0.8268648019615413  0.9151116997375085  0.34644908090923127  1.0000
  C   C13       1.0  0.339800227267446  0.9151142506083686  0.5686622391457874  1.0000
  C   C14       1.0  0.6731324309722383  0.43133580575331365  0.34644593064427903  1.0000
  C   C15       1.0  0.0064613254727419  0.6535550074106737  0.08489989373958214  1.0000
  C   C16       1.0  0.5064582200527071  0.3464445567201295  0.9151126265974054  1.0000
  C   C17       1.0  0.8397979503153296  0.08489022443050938  0.4313374683120584  1.0000
  C   C18       1.0  0.173128859069827  0.5686623588997718  0.6535482802890512  1.0000
  C   C19       1.0  0.6575415966784702  0.2618329251621104  0.3463123455113147  1.0000
  C   C20       1.0  0.4908576026743887  0.34630985127871844  0.08447111938756542  1.0000
  C   C21       1.0  0.3242132596498096  0.0844842789531766  0.7381692784214661  1.0000
  C   C22       1.0  0.15753804053623102  0.7381607937298044  0.6536851284514783  1.0000
  C   C23       1.0  0.9908739533270179  0.6536961635883712  0.9155328238609001  1.0000
  C   C24       1.0  0.8242040745935243  0.9155257287706747  0.2618394715283686  1.0000
  C   C25       1.0  0.3424641922791452  0.9155269408616249  0.6536863677475679  1.0000
  C   C26       1.0  0.6757949225483771  0.3463124938674582  0.2618341909061428  1.0000
  C   C27       1.0  0.009125369790183399  0.738172737120223  0.08449251072603674  1.0000
  C   C28       1.0  0.50911254175913  0.261818152868308  0.9155141329733637  1.0000
  C   C29       1.0  0.8424596367578374  0.08448450576644713  0.34631121169314116  1.0000
  C   C30       1.0  0.17578959046006298  0.6536885806829104  0.7381692265630518  1.0000
  C   C31       1.0  0.6666695080044674  0.263152667363272  0.2631522117056235  1.0000
  C   C32       1.0  0.4999798447033895  0.2631609833215975  2.1337900243226362e-05  1.0000
  C   C33       1.0  0.33334109476638935  7.084158538702729e-07  0.7368436723758974  1.0000
  C   C34       1.0  0.16666256711830132  0.7368527556403847  0.7368359652415676  1.0000
  C   C35       1.0  1.6537433112e-06  0.7368569076295941  1.8790951763619016e-05  1.0000
  C   C36       1.0  0.8333326776599603  0.9999876528758448  0.26314760947364135  1.0000
  C   C37       1.0  0.6550886849869711  0.3409718758548549  0.519842780107801  1.0000
  C   C38       1.0  0.48841933608012067  0.5198427377029162  0.178869979428491  1.0000
  C   C39       1.0  0.3217573335077617  0.17887460409897926  0.6590291953246846  1.0000
  C   C40       1.0  0.15508785588691862  0.6590214259520407  0.48015147913110207  1.0000
  C   C41       1.0  0.9884277419086305  0.48016477205085545  0.8211312614015326  1.0000
  C   C42       1.0  0.821756094901815  0.8211288069361585  0.34097645876523325  1.0000
  C   C43       1.0  0.3449073893372869  0.8211276934119526  0.4801589226172568  1.0000
  C   C44       1.0  0.6782395284446988  0.519842576908239  0.34096767270401057  1.0000
  C   C45       1.0  0.011576426251274101  0.6590354886715772  0.17888075852515342  1.0000
  C   C46       1.0  0.5115751050450398  0.3409580116466272  0.82112569450436  1.0000
  C   C47       1.0  0.8449090126375013  0.1788796465193555  0.5198415467477772  1.0000
  C   C48       1.0  0.1782407954749416  0.4801601519885067  0.6590352979480371  1.0000
  C   C49       1.0  0.5256080292662588  0.05371390431049142  0.3850603699680589  1.0000
  C   C50       1.0  0.3589441007036953  0.38506186632722017  0.3313467265209979  1.0000
  C   C51       1.0  0.19227389791692676  0.33134680087178464  0.946284893118644  1.0000
  C   C52       1.0  0.025611037043312  0.946285467478404  0.6149365486852718  1.0000
  C   C53       1.0  0.8589406457689819  0.6149393793143217  0.6686525377618294  1.0000
  C   C54       1.0  0.692273961009178  0.6686521893847441  0.053715728953406636  1.0000
  C   C55       1.0  0.47439207177330905  0.6686508915828637  0.6149354670031286  1.0000
  C   C56       1.0  0.807725393345592  0.38506360254749683  0.0537149016227901  1.0000
  C   C57       1.0  0.1410570663780604  0.9462859746283742  0.3313473631373329  1.0000
  C   C58       1.0  0.6410584154305141  0.05371307155093761  0.6686484510933396  1.0000
  C   C59       1.0  0.974392328168264  0.3313474166404831  0.38506288036604985  1.0000
  C   C60       1.0  0.3077253570200185  0.6149363680013166  0.9462845222669073  1.0000
  C   C61       1.0  0.5292492557972821  0.8470707317481186  0.281153003370143  1.0000
  C   C62       1.0  0.3625851026767322  0.2811545923309708  0.4340815833897195  1.0000
  C   C63       1.0  0.19591812827807334  0.43408217415625927  0.15292538432182562  1.0000
  C   C64       1.0  0.029252005445158602  0.15292768186171898  0.7188436544429989  1.0000
  C   C65       1.0  0.862586695685927  0.7188442268247356  0.5659152519166354  1.0000
  C   C66       1.0  0.6959184015240892  0.5659154393594361  0.8470717590299514  1.0000
  C   C67       1.0  0.4707444018941729  0.5659182839640947  0.7188435920683884  1.0000
  C   C68       1.0  0.8040738774973947  0.28115388016393444  0.8470729759372233  1.0000
  C   C69       1.0  0.1374085554496176  0.1529254518264621  0.434080220265514  1.0000
  C   C70       1.0  0.6374093510680937  0.847072640559226  0.5659153424978101  1.0000
  C   C71       1.0  0.9707432322480685  0.4340802826123706  0.28115571597885486  1.0000
  C   C72       1.0  0.3040760596093435  0.718844018202077  0.152923678439791  1.0000
  C   C73       1.0  0.5564926402744632  0.9012308035110549  0.382848211847687  1.0000
  C   C74       1.0  0.38982934664669944  0.382850044492727  0.481617162983106  1.0000
  C   C75       1.0  0.22316084038011752  0.48161789627617685  0.09876538801055557  1.0000
  C   C76       1.0  0.05649475466297099  0.09876819978340007  0.6171490170111439  1.0000
  C   C77       1.0  0.8898285854096456  0.6171479646869499  0.5183816430259611  1.0000
  C   C78       1.0  0.7231593946380528  0.5183811691566972  0.9012338884486653  1.0000
  C   C79       1.0  0.4435026367144772  0.5183823508570311  0.6171486339334888  1.0000
  C   C80       1.0  0.776832791421235  0.38285071172016666  0.9012352358036039  1.0000
  C   C81       1.0  0.11016665836855569  0.09876630242290212  0.4816160951924714  1.0000
  C   C82       1.0  0.6101667334390797  0.9012321562663317  0.518379152682833  1.0000
  C   C83       1.0  0.94350210170213  0.481615882192166  0.3828510590532089  1.0000
  C   C84       1.0  0.2768342499571901  0.6171485775822207  0.09876492763324062  1.0000
  C   C85       1.0  0.5564027476265707  0.9998253689693826  0.432325885380223  1.0000
  C   C86       1.0  0.3897387291265488  0.432327752367385  0.43250080273931246  1.0000
  C   C87       1.0  0.2230686428506132  0.43250138863518134  0.00017100437877106968  1.0000
  C   C88       1.0  0.056404939966569104  0.0001743342094540598  0.5676706437656234  1.0000
  C   C89       1.0  0.8897378766007478  0.5676713066123255  0.5674969536435625  1.0000
  C   C90       1.0  0.7230678373625635  0.567495952389322  0.9998251480782014  1.0000
  C   C91       1.0  0.44359658379820394  0.5674954585920701  0.5676683736313988  1.0000
  C   C92       1.0  0.7769274174491655  0.43232901667107626  0.9998254058038681  1.0000
  C   C93       1.0  0.11026059815853269  0.0001729090299988181  0.43250210520507437  1.0000
  C   C94       1.0  0.61026221490458  0.9998255496022564  0.5674931425484644  1.0000
  C   C95       1.0  0.9435967663816599  0.43250312431555216  0.43233096931978565  1.0000
  C   C96       1.0  0.27692823569569924  0.5676682919526074  0.00017067740412114363  1.0000
  N   N1        1.0  0.5833288959764859  0.8539551029351032  0.4269758241692615  1.0000
  N   N2        1.0  0.41666475548300497  0.4269779006566877  0.5730205280762418  1.0000
  N   N3        1.0  0.24999629035806953  0.5730210950288425  0.1460414734442281  1.0000
  N   N4        1.0  0.08332947366468349  0.14604362805734877  0.5730204141991065  1.0000
  N   N5        1.0  0.9166641512768976  0.5730207922096398  0.42697754360108314  1.0000
  N   N6        1.0  0.7499957288570727  0.42697613603963447  0.853955950292331  1.0000
  N   N7        1.0  0.5833328201455928  0.04725206901345285  0.5236241082309402  1.0000
  N   N8        1.0  0.41666727374433776  0.5236252623376672  0.4763722049971476  1.0000
  N   N9        1.0  0.2499988124322243  0.47637280840288543  0.9527445904915054  1.0000
  N   N10       1.0  0.0833328349276456  0.9527469181351406  0.4763730861199706  1.0000
  N   N11       1.0  0.9166672994617145  0.47637394284361534  0.523627778650976  1.0000
  N   N12       1.0  0.7499980637378274  0.5236263346414418  0.04725334555935487  1.0000
  N   N13       1.0  0.6666671542123481  0.17365791838502534  0.17366383859592097  1.0000
  N   N14       1.0  0.49999603034846973  0.1736617908100655  9.739115256186992e-07  1.0000
  N   N15       1.0  0.33333534940390314  7.961108032274648e-06  0.8263387739610902  1.0000
  N   N16       1.0  0.1666722063332884  0.8263343953539035  0.8263350232853384  1.0000
  N   N17       1.0  2.4674715533e-06  0.8263387868549259  4.345935537073693e-06  1.0000
  N   N18       1.0  0.8333424704758768  2.618967691585165e-06  0.17366422921512026  1.0000
  O   O1        1.0  0.68876351084662  0.40910618791634323  0.5960726449336419  1.0000
  O   O2        1.0  0.5221031268239713  0.5960719017218779  0.18696020410961015  1.0000
  O   O3        1.0  0.35542823637143073  0.18696960833278095  0.5908917954285541  1.0000
  O   O4        1.0  0.18876119076513484  0.5908902177572202  0.40392329547277933  1.0000
  O   O5        1.0  0.0221008770921003  0.4039326020355175  0.8130376499327737  1.0000
  O   O6        1.0  0.8554325432904051  0.8130374691102701  0.40910770442054195  1.0000
  O   O7        1.0  0.31123013783410874  0.8130376028910077  0.40392858907218004  1.0000
  O   O8        1.0  0.6445662010837765  0.5960704469537389  0.4091040640977752  1.0000
  O   O9        1.0  0.9779024747660968  0.590889022360237  0.18696920552442012  1.0000
  O   O10       1.0  0.4779067014753906  0.4091031727908571  0.8130328239824108  1.0000
  O   O11       1.0  0.8112397223832416  0.18696852003828482  0.5960755851333701  1.0000
  O   O12       1.0  0.14456515260950198  0.40392432948864593  0.5908923768035165  1.0000
  O   O13       1.0  0.6170579228730304  0.26369191311056983  0.5076190118410436  1.0000
  O   O14       1.0  0.4503917468599781  0.5076242789072225  0.24392947451886476  1.0000
  O   O15       1.0  0.2837321656360459  0.243931783214819  0.7363095465196422  1.0000
  O   O16       1.0  0.11706031747721822  0.7363076598224723  0.4923787452198666  1.0000
  O   O17       1.0  0.9504059350191553  0.4923898267730065  0.756079787904852  1.0000
  O   O18       1.0  0.7837286287022635  0.7560724442833261  0.26369415073193647  1.0000
  O   O19       1.0  0.38292195488558184  0.7560705125281544  0.4923797153085017  1.0000
  O   O20       1.0  0.7162622703322583  0.5076182123691098  0.26368719110407574  1.0000
  O   O21       1.0  0.049597427869414894  0.7363089333178718  0.24393510696401674  1.0000
  O   O22       1.0  0.5495937856204948  0.26368011410026776  0.7560696664743601  1.0000
  O   O23       1.0  0.8829236058793554  0.2439342864835651  0.5076195867895804  1.0000
  O   O24       1.0  0.21626178324778073  0.4923833066196507  0.7363096448244517  1.0000
  O   O25       1.0  0.631921301525125  0.10376598546196897  0.1746730654138346  1.0000
  O   O26       1.0  0.46523716746971644  0.1746840608567339  0.07093408416938021  1.0000
  O   O27       1.0  0.29858458566834406  0.0709032054264396  0.8962283144085389  1.0000
  O   O28       1.0  0.13191745761225354  0.8962424888120211  0.8253181865730851  1.0000
  O   O29       1.0  0.9652583673631767  0.8253361769987321  0.9291162917211294  1.0000
  O   O30       1.0  0.7985886325399676  0.929076301410646  0.10375765033060713  1.0000
  O   O31       1.0  0.3680925755410556  0.929088434272657  0.8253224420771088  1.0000
  O   O32       1.0  0.7014203498291564  0.17467366058595957  0.10376308438513596  1.0000
  O   O33       1.0  0.0347701130272497  0.896247254539091  0.07093029279609207  1.0000
  O   O34       1.0  0.5347459132294574  0.10377231141364263  0.9291155067384124  1.0000
  O   O35       1.0  0.8680875119427186  0.0708949233518794  0.17466802572429427  1.0000
  O   O36       1.0  0.20142123112755428  0.8253307855212951  0.8962247917180546  1.0000
