data_image0
_chemical_formula_structural       Co4H52C72N12O16
_chemical_formula_sum              "Co4 H52 C72 N12 O16"
_cell_length_a       11.349904278504557
_cell_length_b       17.661853107355224
_cell_length_c       17.839998280002618
_cell_angle_alpha    89.9999563100482
_cell_angle_beta     89.99996360402399
_cell_angle_gamma    99.47376200481715

_space_group_name_H-M_alt    "P 1"
_space_group_IT_number       1

loop_
  _space_group_symop_operation_xyz
  'x, y, z'

loop_
  _atom_site_type_symbol
  _atom_site_label
  _atom_site_symmetry_multiplicity
  _atom_site_fract_x
  _atom_site_fract_y
  _atom_site_fract_z
  _atom_site_occupancy
  Co  Co1       1.0  0.9652602108404051  0.07271987566142711  0.9201663480404463  1.0000
  Co  Co2       1.0  0.03474101133929254  0.42728015269749875  0.4201674716271312  1.0000
  Co  Co3       1.0  0.03474032650329664  0.9272842133452031  0.07983204646446039  1.0000
  Co  Co4       1.0  0.965259419674375  0.5727130343499739  0.5798314834201219  1.0000
  H   H1        1.0  0.012027703005898702  0.7776700844419014  0.9874123524728515  1.0000
  H   H2        1.0  0.00798883325575166  0.6859352064947758  0.9518383937793898  1.0000
  H   H3        1.0  0.953866353295972  0.9226107572232821  0.7665460564463514  1.0000
  H   H4        1.0  0.003834062856398653  0.6547991655439845  0.8230396272414708  1.0000
  H   H5        1.0  0.9566752133621108  0.8275083388199677  0.6615870012929718  1.0000
  H   H6        1.0  0.5250044022179027  0.9727468078062104  0.8496016242723385  1.0000
  H   H7        1.0  0.7446789182453913  0.976805009074944  0.8527080813940414  1.0000
  H   H8        1.0  0.7940881757644505  0.1649856621573988  0.993395053675215  1.0000
  H   H9        1.0  0.5788534055620218  0.1724350871554137  0.9944175154460381  1.0000
  H   H10       1.0  0.3571714243924691  0.9962325468547424  0.8262120725951759  1.0000
  H   H11       1.0  0.1416585286968726  0.0023476868888181  0.8286777412911661  1.0000
  H   H12       1.0  0.18264262616608562  0.15730654768173488  0.0042717649699852995  1.0000
  H   H13       1.0  0.39841197405207396  0.1556623471731413  0.012583943035551198  1.0000
  H   H14       1.0  0.9879655128799741  0.7223273626855758  0.48741437259685233  1.0000
  H   H15       1.0  0.9919926912858016  0.8140576626563742  0.4518409029102201  1.0000
  H   H16       1.0  0.04614239741869852  0.577391502968581  0.2665457605587704  1.0000
  H   H17       1.0  0.9961501079945237  0.8451966917617569  0.32304659528391255  1.0000
  H   H18       1.0  0.043326773478959565  0.6724911348133845  0.16158663404083734  1.0000
  H   H19       1.0  0.474993063617987  0.5272599497395235  0.34961296659717783  1.0000
  H   H20       1.0  0.25531870132867596  0.5231988770686797  0.35271503025449386  1.0000
  H   H21       1.0  0.2059097451031136  0.335008557620597  0.49339337652786247  1.0000
  H   H22       1.0  0.42114405409825645  0.3275642949436773  0.49441743961615  1.0000
  H   H23       1.0  0.642835199974563  0.5037685090282197  0.326217760400823  1.0000
  H   H24       1.0  0.8583447272966963  0.4976495575534869  0.3286812849512443  1.0000
  H   H25       1.0  0.8173576636026569  0.34268811222392515  0.5042744184512458  1.0000
  H   H26       1.0  0.6015945946257374  0.34433977489293716  0.5125878025226098  1.0000
  H   H27       1.0  0.9879719529005939  0.2223340030969041  0.012584920955894998  1.0000
  H   H28       1.0  0.9919923508888644  0.31405852226434666  0.04817009042039899  1.0000
  H   H29       1.0  0.0461358405903738  0.077382432758597  0.23345794344408685  1.0000
  H   H30       1.0  0.9961574090057965  0.34519343279978904  0.1769621304986444  1.0000
  H   H31       1.0  0.04331023320270332  0.17248482326264994  0.33841924075349533  1.0000
  H   H32       1.0  0.4749892027676809  0.02726472876737061  0.1503939675402606  1.0000
  H   H33       1.0  0.255315883344764  0.023200791710593208  0.14729087364953128  1.0000
  H   H34       1.0  0.2059053100756857  0.835018415102347  0.0066039013692744996  1.0000
  H   H35       1.0  0.42114167275691733  0.827575304315765  0.005579757981216498  1.0000
  H   H36       1.0  0.6428362836030246  0.0037790132146114015  0.17377791383289315  1.0000
  H   H37       1.0  0.8583409568136562  0.9976627119255073  0.17131616890618057  1.0000
  H   H38       1.0  0.8173593973242961  0.8426929535756645  0.995728871689053  1.0000
  H   H39       1.0  0.601595601983611  0.844345196228467  0.9874105276994383  1.0000
  H   H40       1.0  0.01202611656938053  0.27766236703276803  0.5125829008389644  1.0000
  H   H41       1.0  0.008002595866642502  0.1859360895970141  0.5481653391340586  1.0000
  H   H42       1.0  0.9538616528657189  0.42261603455995805  0.7334481496387537  1.0000
  H   H43       1.0  0.0038433906537350153  0.15480394284739424  0.676961328372613  1.0000
  H   H44       1.0  0.9566832892811945  0.3275192816171355  0.8384156842269518  1.0000
  H   H45       1.0  0.52500895986892  0.4727395515153674  0.6503932754435695  1.0000
  H   H46       1.0  0.744682019224669  0.47679545801584317  0.6472867274831202  1.0000
  H   H47       1.0  0.7940920144745861  0.6649829103063213  0.5066050179816131  1.0000
  H   H48       1.0  0.5788584293308858  0.6724300430775046  0.5055843181211088  1.0000
  H   H49       1.0  0.3571665596024476  0.49622295889820134  0.6737817551849901  1.0000
  H   H50       1.0  0.14165675555222637  0.5023373196877899  0.6713187911745422  1.0000
  H   H51       1.0  0.18264289936387712  0.6573090914862761  0.4957312630524982  1.0000
  H   H52       1.0  0.3984068497783468  0.6556574302853451  0.4874184395191249  1.0000
  C   C1        1.0  0.9834286239801102  0.8437804092645537  0.8530623445318425  1.0000
  C   C2        1.0  0.999064830511081  0.7672489728500553  0.8710937624488508  1.0000
  C   C3        1.0  0.9948781167406294  0.7142920709513875  0.8114267373560223  1.0000
  C   C4        1.0  0.9807640777890969  0.7358351855694211  0.7374087876085936  1.0000
  C   C5        1.0  0.9674503910656188  0.8116785144467473  0.7198605533930618  1.0000
  C   C6        1.0  0.9667814572175717  0.8637861699056942  0.7777445078585217  1.0000
  C   C7        1.0  0.9845829871359157  0.9039314530931506  0.9107142327650949  1.0000
  C   C8        1.0  0.9787267797722947  0.6775457293711042  0.6767877281523552  1.0000
  C   C9        1.0  0.5296116541351381  0.07288293885989108  0.9217163230277237  1.0000
  C   C10       1.0  0.5802741800537278  0.017526627627546504  0.8818250745548608  1.0000
  C   C11       1.0  0.7029524558927633  0.018785018767417196  0.8833474712454432  1.0000
  C   C12       1.0  0.7310791171839242  0.12381370161636343  0.9618109981878148  1.0000
  C   C13       1.0  0.6096085994787827  0.1268480332065351  0.9625184204628071  1.0000
  C   C14       1.0  0.40006309571593596  0.0747872427614595  0.9202864153020937  1.0000
  C   C15       1.0  0.32333915893707404  0.0319376689369761  0.8681866661479489  1.0000
  C   C16       1.0  0.20199924514768236  0.0351684501979861  0.8688172945926096  1.0000
  C   C17       1.0  0.2245080345622483  0.12116759944827747  0.9665868855823304  1.0000
  C   C18       1.0  0.34641452299278097  0.12055361399591652  0.9701305837839485  1.0000
  C   C19       1.0  0.016570770848318313  0.6562200368552452  0.35306312144545154  1.0000
  C   C20       1.0  0.0009307394965958898  0.7327468605942898  0.37109504781509617  1.0000
  C   C21       1.0  0.005119724381224124  0.7857055408180005  0.3114307833748526  1.0000
  C   C22       1.0  0.01923150026761539  0.7641636359914729  0.23741564710115173  1.0000
  C   C23       1.0  0.03255093167786785  0.6883220536701985  0.21985961784069014  1.0000
  C   C24       1.0  0.033223174785980844  0.6362137783254981  0.2777469749850425  1.0000
  C   C25       1.0  0.015419572469745912  0.5960677993294182  0.410717858678801  1.0000
  C   C26       1.0  0.021271807248538745  0.822454298817256  0.17679622401520584  1.0000
  C   C27       1.0  0.47039219762010026  0.427120535162267  0.42172399917967596  1.0000
  C   C28       1.0  0.4197338259591349  0.4824791839987769  0.3818366525152186  1.0000
  C   C29       1.0  0.29705056196425533  0.48121848808186496  0.3833546148640323  1.0000
  C   C30       1.0  0.26892426339897213  0.376184571866645  0.4618126277164619  1.0000
  C   C31       1.0  0.3903969774141701  0.3731519646372874  0.4625222459357445  1.0000
  C   C32       1.0  0.5999307852684269  0.4252116257038097  0.42029067793345115  1.0000
  C   C33       1.0  0.6766556680355367  0.4680612475636963  0.3681936681625899  1.0000
  C   C34       1.0  0.7979991067966028  0.4648304716133538  0.3688220084484684  1.0000
  C   C35       1.0  0.7754906433710929  0.37882951438503204  0.4665905529036251  1.0000
  C   C36       1.0  0.6535772310033251  0.3794475015887643  0.4701348598695462  1.0000
  C   C37       1.0  0.01657867532609461  0.1562225434509088  0.1469349288958028  1.0000
  C   C38       1.0  0.0009348510206735084  0.23274822939406903  0.1289068742115305  1.0000
  C   C39       1.0  0.005121722378277118  0.2857022626673142  0.18856941500006025  1.0000
  C   C40       1.0  0.019226946951135915  0.2641591333662348  0.2625868042110824  1.0000
  C   C41       1.0  0.03254284367204012  0.18831408683343656  0.2801417648848741  1.0000
  C   C42       1.0  0.033228946341111516  0.13621162397854653  0.22225388664681128  1.0000
  C   C43       1.0  0.015418274064785511  0.09607550601175062  0.08927855635686649  1.0000
  C   C44       1.0  0.021266442154818325  0.3224503145579121  0.3232095452807399  1.0000
  C   C45       1.0  0.47039443575455664  0.9271291922914529  0.07827478447678969  1.0000
  C   C46       1.0  0.4197386717977808  0.9824843672321252  0.11816603294873569  1.0000
  C   C47       1.0  0.29705408111856013  0.9812253917917886  0.11665036271768511  1.0000
  C   C48       1.0  0.268928761206496  0.876191547176717  0.03818403308615359  1.0000
  C   C49       1.0  0.39040234472239654  0.873162384694574  0.037478852961264394  1.0000
  C   C50       1.0  0.599927443457844  0.9252191247033397  0.07970861597491558  1.0000
  C   C51       1.0  0.6766457892562913  0.9680709843276248  0.13180500190028246  1.0000
  C   C52       1.0  0.7979921626489386  0.9648413613807207  0.13117997883559698  1.0000
  C   C53       1.0  0.775482372653457  0.8788347513500201  0.0334098273107486  1.0000
  C   C54       1.0  0.6535749643447062  0.879459063274318  0.029865008029041497  1.0000
  C   C55       1.0  0.9834221487244079  0.34377830168256207  0.6469330309104818  1.0000
  C   C56       1.0  0.9990632062833458  0.26725205342999203  0.628903346693093  1.0000
  C   C57       1.0  0.9948803786500166  0.21429682613091935  0.6885681716689687  1.0000
  C   C58       1.0  0.9807729971370378  0.23584218094393353  0.7625872317076698  1.0000
  C   C59       1.0  0.9674581048754121  0.31168778727409574  0.7801398977366673  1.0000
  C   C60       1.0  0.9667761787654359  0.3637926038215866  0.7222502984428871  1.0000
  C   C61       1.0  0.9845795299826607  0.40392710684060534  0.5892771726008661  1.0000
  C   C62       1.0  0.9787363606749508  0.17755209800811403  0.8232122601743652  1.0000
  C   C63       1.0  0.5296092467853769  0.5728766700170171  0.5782800007093839  1.0000
  C   C64       1.0  0.5802677632167033  0.517518595199405  0.6181679079117615  1.0000
  C   C65       1.0  0.7029488428383746  0.5187741234763693  0.616648263950843  1.0000
  C   C66       1.0  0.7310746942796059  0.6238097602819721  0.538187448406994  1.0000
  C   C67       1.0  0.6096032960109526  0.6268440910346059  0.5374834355684968  1.0000
  C   C68       1.0  0.40006979051247527  0.5747821353603085  0.5797138824952625  1.0000
  C   C69       1.0  0.3233484463123801  0.5319290767284031  0.6318080895758769  1.0000
  C   C70       1.0  0.20200486277991567  0.5351592786590943  0.6311808703665844  1.0000
  C   C71       1.0  0.2245130110363221  0.6211659731420341  0.533412886447472  1.0000
  C   C72       1.0  0.3464249628819758  0.6205456883923618  0.5298708216353986  1.0000
  N   N1        1.0  0.017560735991374206  0.7430845253294225  0.9424538400347514  1.0000
  N   N2        1.0  0.7783837970792007  0.07082207328063822  0.9227280455264263  1.0000
  N   N3        1.0  0.15140130039761598  0.07826380311378502  0.9178077638492681  1.0000
  N   N4        1.0  0.9824304959953095  0.7569083683620194  0.4424552754710334  1.0000
  N   N5        1.0  0.22161992146750015  0.42917738317293447  0.4227324562494985  1.0000
  N   N6        1.0  0.8485965565359663  0.42173335285170316  0.41781080872869575  1.0000
  N   N7        1.0  0.9824342488091132  0.256911521534505  0.05754735716517699  1.0000
  N   N8        1.0  0.2216286332696954  0.9291837568719858  0.07726978843727038  1.0000
  N   N9        1.0  0.8485861601468727  0.9217408378860553  0.0821928728107224  1.0000
  N   N10       1.0  0.01756405449375364  0.2430859564449507  0.5575448006533037  1.0000
  N   N11       1.0  0.7783787466689702  0.5708158009368774  0.5772687409507924  1.0000
  N   N12       1.0  0.15140770258126687  0.5782575454585485  0.5821931911621974  1.0000
  O   O1        1.0  0.9362279957703663  0.9624772485460301  0.8948565952629011  1.0000
  O   O2        1.0  0.03397061755904229  0.8944314476252659  0.9736690287238755  1.0000
  O   O3        1.0  0.9679935016995245  0.6063242885689492  0.6939536783767153  1.0000
  O   O4        1.0  0.9865477136356661  0.698190697322268  0.6080371515558198  1.0000
  O   O5        1.0  0.0637722159033203  0.5375266043349711  0.39485015679812097  1.0000
  O   O6        1.0  0.9660492160742322  0.6055631872073023  0.47367450983535514  1.0000
  O   O7        1.0  0.032060317912346675  0.8936712260956058  0.19396267619474367  1.0000
  O   O8        1.0  0.01340426798554977  0.8018024292022689  0.1080467873669448  1.0000
  O   O9        1.0  0.06378763233868769  0.03753776737485032  0.105155812689091  1.0000
  O   O10       1.0  0.9660446531331176  0.10556119036815664  0.026322078786229493  1.0000
  O   O11       1.0  0.03205186983070973  0.3936724160078954  0.3060497609655854  1.0000
  O   O12       1.0  0.013408040773761358  0.30180700552605105  0.3919601218841251  1.0000
  O   O13       1.0  0.9362107311289096  0.46246712736932966  0.6051392691035176  1.0000
  O   O14       1.0  0.03396587140030499  0.3944392047024721  0.5263261268199741  1.0000
  O   O15       1.0  0.9679774102084551  0.10632661329756844  0.8060564582174337  1.0000
  O   O16       1.0  0.9865697070690375  0.19819415643589622  0.8919656206003879  1.0000
