data_image0
_chemical_formula_structural       Cd2H16C4Br4N4
_chemical_formula_sum              "Cd2 H16 C4 Br4 N4"
_cell_length_a       4.301991612246239
_cell_length_b       7.86644284600425
_cell_length_c       10.104776795578253
_cell_angle_alpha    90.00002949618737
_cell_angle_beta     90.00122299299152
_cell_angle_gamma    89.99988358155802

_space_group_name_H-M_alt    "P 1"
_space_group_IT_number       1

loop_
  _space_group_symop_operation_xyz
  'x, y, z'

loop_
  _atom_site_type_symbol
  _atom_site_label
  _atom_site_symmetry_multiplicity
  _atom_site_fract_x
  _atom_site_fract_y
  _atom_site_fract_z
  _atom_site_occupancy
  Cd  Cd1       1.0  0.9999964065236071  0.9999992288145096  0.49999896933237414  1.0000
  Cd  Cd2       1.0  0.9999936125834451  0.500000834560936  0.9999990206324157  1.0000
  H   H1        1.0  0.18911873639890325  0.2903345375583016  0.36554783632112736  1.0000
  H   H2        1.0  0.18911310070286896  0.70966519495132  0.6344484725227277  1.0000
  H   H3        1.0  0.8108705486480047  0.790337749262939  0.1344471917636696  1.0000
  H   H4        1.0  0.8108806820238711  0.2096625543388484  0.8655537655591417  1.0000
  H   H5        1.0  0.8108739596816433  0.7096635736620769  0.6344483226896571  1.0000
  H   H6        1.0  0.810881920019966  0.2903392723826174  0.365553624285738  1.0000
  H   H7        1.0  0.18911749846574819  0.20966417562848957  0.8655509464887813  1.0000
  H   H8        1.0  0.1891096896785527  0.7903342856617499  0.13444734159565297  1.0000
  H   H9        1.0  0.20465660010034267  0.3914946801984628  0.5927671977936626  1.0000
  H   H10       1.0  0.20464456773801482  0.6085063060416332  0.4072312311805534  1.0000
  H   H11       1.0  0.7953667344399945  0.8914980770062899  0.9072272013995288  1.0000
  H   H12       1.0  0.7953639800906983  0.10850351528277001  0.0927716360147812  1.0000
  H   H13       1.0  0.7953709635540064  0.6085021597796754  0.4072289613749334  1.0000
  H   H14       1.0  0.7953806716034748  0.3914943476080738  0.5927728450260332  1.0000
  H   H15       1.0  0.20463758418225095  0.10850384787568151  0.0927699472957286  1.0000
  H   H16       1.0  0.20463801415574778  0.891495867156813  0.9072304608242093  1.0000
  C   C1        1.0  1.95181533655e-05  0.4103737028777489  0.529282437315274  1.0000
  C   C2        1.0  0.999998747596919  0.5896282219975788  0.4707186699670772  1.0000
  C   C3        1.0  0.9999944492987608  0.9103705521599113  0.9707169180899342  1.0000
  C   C4        1.0  5.2204001832e-06  0.08962501661254414  0.0292831994757776  1.0000
  Br  Br1       1.0  0.4999980149470743  0.926607960088802  0.3198917682075475  1.0000
  Br  Br2       1.0  0.5000086282591736  0.0733914223475551  0.6801083493906007  1.0000
  Br  Br3       1.0  0.5000000687068178  0.42660809803351196  0.18010826654677464  1.0000
  Br  Br4       1.0  0.4999972764780409  0.5733925556306829  0.8198918510094872  1.0000
  N   N1        1.0  0.9999912491886674  0.27632268428967427  0.426967017797118  1.0000
  N   N2        1.0  8.420498630800001e-06  0.7236792405958214  0.5730330997699582  1.0000
  N   N3        1.0  9.7098552772e-06  0.7763204152154373  0.0730319628507488  1.0000
  N   N4        1.0  0.9999829863293781  0.22367515356094003  0.926968154683344  1.0000
