data_image0
_chemical_formula_structural       CuSiH12C24N4Cl4F6
_chemical_formula_sum              "Cu1 Si1 H12 C24 N4 Cl4 F6"
_cell_length_a       7.981567646308291
_cell_length_b       13.754042261458666
_cell_length_c       13.754415419616448
_cell_angle_alpha    89.97591707281045
_cell_angle_beta     90.33986247478428
_cell_angle_gamma    90.34084095697251

_space_group_name_H-M_alt    "P 1"
_space_group_IT_number       1

loop_
  _space_group_symop_operation_xyz
  'x, y, z'

loop_
  _atom_site_type_symbol
  _atom_site_label
  _atom_site_symmetry_multiplicity
  _atom_site_fract_x
  _atom_site_fract_y
  _atom_site_fract_z
  _atom_site_occupancy
  Cu  Cu1       1.0  0.5000121957182344  0.49999223762948475  0.5000008946370329  1.0000
  Si  Si1       1.0  1.090943096219906e-05  0.49999534270181567  0.5000043337764524  1.0000
  H   H1        1.0  0.24092472551098612  0.6561210983623627  0.5000197689514039  1.0000
  H   H2        1.0  0.2330059199177299  0.8367193182751221  0.50002733454901  1.0000
  H   H3        1.0  0.7640337039094975  0.6563071924020178  0.4999239841828  1.0000
  H   H4        1.0  0.23599934137715192  0.3436743933994819  0.5000581902499448  1.0000
  H   H5        1.0  0.7591000079564695  0.34385754617687786  0.5000539993154547  1.0000
  H   H6        1.0  0.7670299431313835  0.1632542605883387  0.5000231883205117  1.0000
  H   H7        1.0  0.2409339198095282  0.5000323528753796  0.6561391899438648  1.0000
  H   H8        1.0  0.23300371103606923  0.5000311241627244  0.8367383442484382  1.0000
  H   H9        1.0  0.7640328707194258  0.49993336276900635  0.6563284474239452  1.0000
  H   H10       1.0  0.23599557333939464  0.5000940132352981  0.34368715372773545  1.0000
  H   H11       1.0  0.759097646017267  0.4998823358847488  0.3438662610902696  1.0000
  H   H12       1.0  0.767019235155594  0.499912632394384  0.1632670861536383  1.0000
  C   C1        1.0  0.35624396332659103  0.6987098577586863  0.4999577035111002  1.0000
  C   C2        1.0  0.352874824769394  0.7993767819004989  0.5000105240158703  1.0000
  C   C3        1.0  0.5035081047793001  0.8532370504649903  0.5000069093557968  1.0000
  C   C4        1.0  0.6541013109148681  0.7995989096316336  0.5000027917990266  1.0000
  C   C5        1.0  0.648690603182054  0.6982859212058656  0.4999598959832525  1.0000
  C   C6        1.0  0.5022755214223126  0.9557041969776918  0.5000208238322017  1.0000
  C   C7        1.0  0.4977339288825036  0.0442744313742125  0.5000049336451298  1.0000
  C   C8        1.0  0.4965075988554731  0.14674231620894312  0.5000159504315107  1.0000
  C   C9        1.0  0.3459168008645507  0.20038410109533092  0.49999753301433  1.0000
  C   C10       1.0  0.35133627905555903  0.3016985588979254  0.5000389893545147  1.0000
  C   C11       1.0  0.6437868617486942  0.30126516798582514  0.5000862671123585  1.0000
  C   C12       1.0  0.6471472448224848  0.20059241062340763  0.5000421574314089  1.0000
  C   C13       1.0  0.3562475164305071  0.4999679457809806  0.6987269306548924  1.0000
  C   C14       1.0  0.35287938385520334  0.5000105679861305  0.7993933230392758  1.0000
  C   C15       1.0  0.5035105699247282  0.4999975262383316  0.8532499155565674  1.0000
  C   C16       1.0  0.6541095764601367  0.4999963601255217  0.799612482994256  1.0000
  C   C17       1.0  0.6486941474036455  0.4999687015383715  0.698301534768902  1.0000
  C   C18       1.0  0.5022763959624541  0.4999888875297388  0.9557164688018888  1.0000
  C   C19       1.0  0.49774415745989853  0.4999744951819665  0.0442911346241388  1.0000
  C   C20       1.0  0.49652012367315024  0.49998477663447716  0.1467613364323341  1.0000
  C   C21       1.0  0.34591870552872456  0.5000026607700079  0.2004002155419755  1.0000
  C   C22       1.0  0.35133043991729107  0.5000426731174699  0.3017111549454654  1.0000
  C   C23       1.0  0.6437742634051418  0.4999823502549461  0.3012886750151864  1.0000
  C   C24       1.0  0.6471524268877786  0.4999419264883898  0.2006215721908831  1.0000
  N   N1        1.0  0.5021247425760579  0.6493642539248297  0.49995559684713003  1.0000
  N   N2        1.0  0.4979085132430897  0.35061732386147776  0.5000672923279694  1.0000
  N   N3        1.0  0.5021277692712616  0.4999673014733688  0.6493833858667201  1.0000
  N   N4        1.0  0.4978953879272296  0.5000091716031322  0.35063003563505646  1.0000
  Cl  Cl1       1.0  0.8450168103475164  0.8579040664344149  0.4999627844193952  1.0000
  Cl  Cl2       1.0  0.15499616195133833  0.1420803950380787  0.5000113578256915  1.0000
  Cl  Cl3       1.0  0.8450305098143361  0.49995440908690353  0.8579209220950972  1.0000
  Cl  Cl4       1.0  0.15500416496468017  0.5000700700387951  0.1420910550330277  1.0000
  F   F1        1.0  0.2175353462980567  0.5002426301480511  0.5002665182851018  1.0000
  F   F2        1.0  0.7824941019097907  0.49974039751423044  0.499745458479893  1.0000
  F   F3        1.0  3.219204336349969e-05  0.5878556631837599  0.4121392072185159  1.0000
  F   F4        1.0  5.899703545299748e-06  0.4121328689267114  0.5878687614019498  1.0000
  F   F5        1.0  0.0005197717206187002  0.587831263759746  0.5878335084249784  1.0000
  F   F6        1.0  0.9994883995694085  0.4121626349073749  0.4121718865465382  1.0000
