data_image0
_chemical_formula_structural       Cu4H32C24N8Cl4
_chemical_formula_sum              "Cu4 H32 C24 N8 Cl4"
_cell_length_a       6.547188248304182
_cell_length_b       9.02666591278935
_cell_length_c       12.464089119099219
_cell_angle_alpha    90.00111422167534
_cell_angle_beta     89.99952060012892
_cell_angle_gamma    89.99916199605806

_space_group_name_H-M_alt    "P 1"
_space_group_IT_number       1

loop_
  _space_group_symop_operation_xyz
  'x, y, z'

loop_
  _atom_site_type_symbol
  _atom_site_label
  _atom_site_symmetry_multiplicity
  _atom_site_fract_x
  _atom_site_fract_y
  _atom_site_fract_z
  _atom_site_occupancy
  Cu  Cu1       1.0  0.6282058310543945  0.603442736592143  0.5020877533354309  1.0000
  Cu  Cu2       1.0  0.8718056819213588  0.3965652638046037  0.0020803338784319  1.0000
  Cu  Cu3       1.0  0.3717977432764742  0.10343954829763648  0.9979172344236246  1.0000
  Cu  Cu4       1.0  0.1281935248108681  0.8965515290348802  0.49791731047663035  1.0000
  H   H1        1.0  0.552466418523835  0.3164010650832693  0.8509945451439832  1.0000
  H   H2        1.0  0.9475317139870258  0.6836387860934963  0.3509854712451316  1.0000
  H   H3        1.0  0.44752806170217957  0.8163826628508488  0.6490002323381603  1.0000
  H   H4        1.0  0.05249338676395612  0.18361866201005478  0.14901677069734376  1.0000
  H   H5        1.0  0.0709926966963579  0.5804526109001102  0.8307233576173588  1.0000
  H   H6        1.0  0.42906633268594163  0.419511757675366  0.3307401786710145  1.0000
  H   H7        1.0  0.9290167706104598  0.08047583095734008  0.6692697744230216  1.0000
  H   H8        1.0  0.570969749493088  0.9194901940627956  0.16926129245675273  1.0000
  H   H9        1.0  0.9716691286329961  0.6548532656483061  0.6428807613188354  1.0000
  H   H10       1.0  0.5283709370292442  0.3451219490567254  0.1428843160206839  1.0000
  H   H11       1.0  0.028340676247815104  0.15487541053636278  0.8571175602255252  1.0000
  H   H12       1.0  0.4716418967865367  0.8450864151198801  0.357112768552561  1.0000
  H   H13       1.0  0.3298949944147581  0.422135650484428  0.5998587301170346  1.0000
  H   H14       1.0  0.1700914869952541  0.5778997155902058  0.0998518538290014  1.0000
  H   H15       1.0  0.6701056721577601  0.9221336950283145  0.9001344303638207  1.0000
  H   H16       1.0  0.8299075719409077  0.07785993159419038  0.4001303419439211  1.0000
  H   H17       1.0  0.33232714016101284  0.2890227981936703  0.7049166689055612  1.0000
  H   H18       1.0  0.16764524496289113  0.7110291111359074  0.2049095524417837  1.0000
  H   H19       1.0  0.6676429368703652  0.7889965222432024  0.7950831688660074  1.0000
  H   H20       1.0  0.8323645474213778  0.2109883142476932  0.2950780013390428  1.0000
  H   H21       1.0  0.3906722020804168  0.15947568942087997  0.5295434410617261  1.0000
  H   H22       1.0  0.10929313039316212  0.8405461368330335  0.0295295074889097  1.0000
  H   H23       1.0  0.6093022095990719  0.6594944938822777  0.9704564536878307  1.0000
  H   H24       1.0  0.8906726154666132  0.3405259634869465  0.47046681528626516  1.0000
  H   H25       1.0  0.6186495903059993  0.15039918372612252  0.6046760379424257  1.0000
  H   H26       1.0  0.8813157605979428  0.8495972117532841  0.10464783542489191  1.0000
  H   H27       1.0  0.3813024283314305  0.6504258695160061  0.8953448080914298  1.0000
  H   H28       1.0  0.1186647428235332  0.3495690530640871  0.39536844939640753  1.0000
  H   H29       1.0  0.5948831533914074  0.2815023925922445  0.499226490726258  1.0000
  H   H30       1.0  0.9050976861688941  0.7184949536745223  0.9992124115295198  1.0000
  H   H31       1.0  0.40511956148053946  0.7815394149069732  0.000782452468826  1.0000
  H   H32       1.0  0.09484128487986251  0.21846896135063787  0.5007957196728015  1.0000
  C   C1        1.0  0.597371458691214  0.4230633608096566  0.6974998681574647  1.0000
  C   C2        1.0  0.9026256575456203  0.5769583493609645  0.19748458684127707  1.0000
  C   C3        1.0  0.40261846354624004  0.9230538420460446  0.8025006672251394  1.0000
  C   C4        1.0  0.097405529270354  0.07694125223157038  0.3025070813325499  1.0000
  C   C5        1.0  0.6481237745487293  0.39029773613573576  0.8034172314230972  1.0000
  C   C6        1.0  0.851863825351842  0.6097159168876091  0.3034094190988839  1.0000
  C   C7        1.0  0.35184968853300086  0.8902869647169138  0.6965810476967675  1.0000
  C   C8        1.0  0.14817465664629742  0.10970621472448978  0.196595736810977  1.0000
  C   C9        1.0  0.9323041500173164  0.5386064955935268  0.7930787485130252  1.0000
  C   C10       1.0  0.567746107695598  0.46136668249964424  0.29309095356543224  1.0000
  C   C11       1.0  0.0677046498360596  0.0386310231797893  0.7069122173621311  1.0000
  C   C12       1.0  0.4323074422456089  0.9613538875849555  0.20691669749587047  1.0000
  C   C13       1.0  0.8792468448197541  0.5776620654716139  0.6894035588670064  1.0000
  C   C14       1.0  0.6207900108649582  0.42232965457663596  0.18941364699519167  1.0000
  C   C15       1.0  0.12076125451084611  0.07767848830248882  0.8105883048323222  1.0000
  C   C16       1.0  0.37924591055954693  0.9223078219801691  0.3105882941477276  1.0000
  C   C17       1.0  0.42673723744958647  0.3425239803827366  0.6432684399598472  1.0000
  C   C18       1.0  0.0732521546668181  0.6574988030574147  0.1432643723411218  1.0000
  C   C19       1.0  0.573243533028645  0.8425215698549592  0.856720266357165  1.0000
  C   C20       1.0  0.9267561090248507  0.1574746680480246  0.35672869524547224  1.0000
  C   C21       1.0  0.5124980908843284  0.2268773972012923  0.5648676502026717  1.0000
  C   C22       1.0  0.9874658645900143  0.7731350588623371  0.0648475186455784  1.0000
  C   C23       1.0  0.48748163971912123  0.7268967107242544  0.9351466966738471  1.0000
  C   C24       1.0  0.0124945630602866  0.27310652544621666  0.43516082584726234  1.0000
  N   N1        1.0  0.7095527325345189  0.5231991459624653  0.6406524398057627  1.0000
  N   N2        1.0  0.7904629015881001  0.4768110016299614  0.1406462090438367  1.0000
  N   N3        1.0  0.290437090871187  0.023208604921585194  0.8593487917559628  1.0000
  N   N4        1.0  0.20956991161578742  0.9767914044383089  0.35934877391505177  1.0000
  N   N5        1.0  0.8136144748508515  0.44756114911918826  0.8527671200697569  1.0000
  N   N6        1.0  0.6864035087410515  0.5524383497212425  0.3527735221186248  1.0000
  N   N7        1.0  0.18638168652682205  0.947556428518368  0.6472254674478252  1.0000
  N   N8        1.0  0.31363213139514556  0.05243096533624939  0.1472293006031222  1.0000
  Cl  Cl1       1.0  0.7688590768295854  0.8529214918514326  0.5140093979104421  1.0000
  Cl  Cl2       1.0  0.731132540277983  0.14709886613277226  0.014007204212425997  1.0000
  Cl  Cl3       1.0  0.23114401103044463  0.3529191091820394  0.9860011002923272  1.0000
  Cl  Cl4       1.0  0.2688549337813129  0.6470651496530023  0.48598493020899264  1.0000
