data_image0
_chemical_formula_structural       Zn8H56C72O30
_chemical_formula_sum              "Zn8 H56 C72 O30"
_cell_length_a       18.640514984165517
_cell_length_b       18.635168869130204
_cell_length_c       21.74265860963706
_cell_angle_alpha    64.6218143676591
_cell_angle_beta     64.63386768373236
_cell_angle_gamma    89.98952195402178

_space_group_name_H-M_alt    "P 1"
_space_group_IT_number       1

loop_
  _space_group_symop_operation_xyz
  'x, y, z'

loop_
  _atom_site_type_symbol
  _atom_site_label
  _atom_site_symmetry_multiplicity
  _atom_site_fract_x
  _atom_site_fract_y
  _atom_site_fract_z
  _atom_site_occupancy
  Zn  Zn1       1.0  0.4666486940809235  0.8809343609454319  0.06711626951627647  1.0000
  Zn  Zn2       1.0  0.03251688246899676  0.44708369707743906  0.9346442802881042  1.0000
  Zn  Zn3       1.0  0.44740404700778674  0.03266356169773166  0.9343754006340816  1.0000
  Zn  Zn4       1.0  0.03255467753686503  0.6182853775012095  0.9346900002254301  1.0000
  Zn  Zn5       1.0  0.6181789727065875  0.03267543245005605  0.9344407089728434  1.0000
  Zn  Zn6       1.0  0.880896682444899  0.46632744646390745  0.06684108303096539  1.0000
  Zn  Zn7       1.0  0.466341186997589  0.05207001070492372  0.06692752525198388  1.0000
  Zn  Zn8       1.0  0.052357008048474506  0.4668609701760219  0.06668332436311891  1.0000
  H   H1        1.0  0.21988709553165356  0.6064986991240037  0.08038296730291716  1.0000
  H   H2        1.0  0.6075794840049227  0.7009202817544279  0.08821799438771194  1.0000
  H   H3        1.0  0.33607268892605907  0.008347082945306436  0.4729676320282437  1.0000
  H   H4        1.0  0.3618952893067018  0.13262317305174084  0.3122610642005768  1.0000
  H   H5        1.0  0.30196256603809973  0.13603740477537957  0.3992631120511732  1.0000
  H   H6        1.0  0.42772413535586656  0.14899007367206726  0.4155564882303294  1.0000
  H   H7        1.0  0.44127691857532625  0.2288348322863246  0.32643357671667417  1.0000
  H   H8        1.0  0.4876229068166539  0.14532695447834962  0.32841999934517213  1.0000
  H   H9        1.0  0.005286325357033666  0.21612857077105493  0.3852646548996717  1.0000
  H   H10       1.0  0.008323571468075407  0.19099131950174833  0.47297968463517037  1.0000
  H   H11       1.0  0.13252414695814713  0.32581525513185045  0.31226073864745973  1.0000
  H   H12       1.0  0.13599406502987682  0.29872760613642424  0.3992475583981019  1.0000
  H   H13       1.0  0.7008186670759216  0.303925756824583  0.08824010642987197  1.0000
  H   H14       1.0  0.14894771962912765  0.1566582877008005  0.4154725709404444  1.0000
  H   H15       1.0  0.2287204968790563  0.23220737408221498  0.3263493136544681  1.0000
  H   H16       1.0  0.14519904236006204  0.18393008780687142  0.3283628656389794  1.0000
  H   H17       1.0  0.30401613022428353  0.21069358991263704  0.08809258696233262  1.0000
  H   H18       1.0  0.2198702324683168  0.312864726703559  0.08049862927796879  1.0000
  H   H19       1.0  0.6062994497711927  0.21993787700864695  0.08044639928954926  1.0000
  H   H20       1.0  0.6993402000689884  0.6062631832501781  0.08063304416618415  1.0000
  H   H21       1.0  0.30400353403631897  0.7007139089186298  0.08836840269172806  1.0000
  H   H22       1.0  0.19326795831999277  0.7588778714406891  0.965792820443987  1.0000
  H   H23       1.0  0.7558744379500696  0.8381447796443531  0.9499365102282765  1.0000
  H   H24       1.0  0.8381133339024628  0.29398745745849975  0.9499284881105226  1.0000
  H   H25       1.0  0.29419043949548745  0.2117989195540066  0.9496734670592345  1.0000
  H   H26       1.0  0.19311622233273343  0.2755086403643012  0.9657738153940159  1.0000
  H   H27       1.0  0.7583850203690475  0.1929709649929025  0.9659862834832253  1.0000
  H   H28       1.0  0.8407165043693253  0.7583803655037332  0.9660542396340048  1.0000
  H   H29       1.0  0.2942610068770008  0.8383074480987323  0.9500552324484772  1.0000
  H   H30       1.0  0.14049310971940104  0.7665750101784855  0.6966372717577228  1.0000
  H   H31       1.0  0.7665486207981684  0.1631813245334829  0.6965025604370823  1.0000
  H   H32       1.0  0.16293586909478822  0.5369576263925215  0.6967177920855078  1.0000
  H   H33       1.0  0.5371099087429058  0.14054365625939672  0.6964379212744162  1.0000
  H   H34       1.0  0.23106376198475695  0.5318807136074214  0.5716408725317663  1.0000
  H   H35       1.0  0.5320509000995628  0.1975509493504791  0.5713666024959138  1.0000
  H   H36       1.0  0.19730881552590768  0.8965632242776495  0.5716877850439205  1.0000
  H   H37       1.0  0.8965391078732311  0.23113403564951096  0.571610950314387  1.0000
  H   H38       1.0  0.358464273437427  0.7326717437742406  0.30488259339066565  1.0000
  H   H39       1.0  0.7328045680787839  0.3368584568697772  0.3046434113434557  1.0000
  H   H40       1.0  0.33684554286893603  0.9626914610275608  0.3049408315801827  1.0000
  H   H41       1.0  0.9626891985038881  0.35849956628725743  0.30482421496294887  1.0000
  H   H42       1.0  0.21616322510116961  0.6093623048690021  0.38523133554439676  1.0000
  H   H43       1.0  0.19106284112781677  0.5187171029333445  0.4730087056943547  1.0000
  H   H44       1.0  0.32590937262301634  0.5550487779659152  0.31235949642995553  1.0000
  H   H45       1.0  0.2988557994324451  0.46466326148043197  0.39939030610113957  1.0000
  H   H46       1.0  0.15685514816804866  0.4354114343126557  0.4155623857959441  1.0000
  H   H47       1.0  0.2324189841091383  0.4446906865860287  0.3264502561374272  1.0000
  H   H48       1.0  0.18409048959630064  0.5262157753270602  0.3284414487292723  1.0000
  H   H49       1.0  0.6095308330393153  0.3987750398045693  0.3850359164482028  1.0000
  H   H50       1.0  0.5189143889195053  0.3361245705252004  0.4727880332063989  1.0000
  H   H51       1.0  0.5551261095199465  0.36200095999198845  0.3121194751773969  1.0000
  H   H52       1.0  0.46480866810666305  0.302064906408255  0.39917837356153996  1.0000
  H   H53       1.0  0.4355917806764821  0.4278483210321867  0.4154549614540671  1.0000
  H   H54       1.0  0.4448086913587375  0.44145663404282975  0.3263335184661003  1.0000
  H   H55       1.0  0.5263402209031299  0.4877727780058126  0.32830640233918007  1.0000
  H   H56       1.0  0.3985753104810214  0.005316419460115247  0.38525977394665745  1.0000
  C   C1        1.0  0.6048695483392594  0.10503235463622974  0.7904751763689504  1.0000
  C   C2        1.0  0.5982842179332123  0.21807001818836402  0.5401148647955337  1.0000
  C   C3        1.0  0.6032001894254151  0.16169099988921  0.6638921946734939  1.0000
  C   C4        1.0  0.16160504166478523  0.7329692837756813  0.6641219646409269  1.0000
  C   C5        1.0  0.7330075681019467  0.17454175085834622  0.6639390055726792  1.0000
  C   C6        1.0  0.17433754979161617  0.6030740368276147  0.6641526268869099  1.0000
  C   C7        1.0  0.14792112246134786  0.6479493311654568  0.7043221886541104  1.0000
  C   C8        1.0  0.6480339308787679  0.14805735601510198  0.7040709869689009  1.0000
  C   C9        1.0  0.21479219974153096  0.6423620399789985  0.5830754174147756  1.0000
  C   C10       1.0  0.21789233210054684  0.8616154455352079  0.5403889710017324  1.0000
  C   C11       1.0  0.6424991052948458  0.2022458935989634  0.582834333086808  1.0000
  C   C12       1.0  0.20211368218428305  0.774686415766944  0.5830541275725096  1.0000
  C   C13       1.0  0.774753808077975  0.21496098266337801  0.5828932656075664  1.0000
  C   C14       1.0  0.22907811833753305  0.7291809044613945  0.5417373154964054  1.0000
  C   C15       1.0  0.7292872828932107  0.2292126426408533  0.541550346779509  1.0000
  C   C16       1.0  0.86163456012531  0.24182941884394193  0.5402750613751054  1.0000
  C   C17       1.0  0.2408983490477539  0.5596022595961049  0.41443884683236126  1.0000
  C   C18       1.0  0.27438224484686907  0.5134564329890382  0.3691611089413343  1.0000
  C   C19       1.0  0.2084392540930509  0.4780036959170605  0.359388739381501  1.0000
  C   C20       1.0  0.5597975158790761  0.3448535709177637  0.41420547395915724  1.0000
  C   C21       1.0  0.513609926290009  0.3567324908899894  0.3689451551352292  1.0000
  C   C22       1.0  0.47816097822682474  0.43248376005498584  0.35924342748027277  1.0000
  C   C23       1.0  0.34473553507687177  0.02599981109992216  0.4144075107825813  1.0000
  C   C24       1.0  0.3566264849665899  0.1174263457121614  0.3690739385839237  1.0000
  C   C25       1.0  0.4323426179642099  0.1625839541342061  0.3593556446387254  1.0000
  C   C26       1.0  0.28011260341943245  0.6373506164125405  0.4613523047119656  1.0000
  C   C27       1.0  0.025965762329150262  0.2408524737939007  0.41440552150913124  1.0000
  C   C28       1.0  0.11736425534684264  0.27425969339334727  0.36905518565827566  1.0000
  C   C29       1.0  0.16249737503170542  0.2082548627724139  0.3592959919529122  1.0000
  C   C30       1.0  0.6375114369385599  0.25863935974494745  0.4610884886068618  1.0000
  C   C31       1.0  0.25848403908677386  0.9014776182920703  0.4613676197456087  1.0000
  C   C32       1.0  0.9014830527334045  0.2802209880496992  0.4612504798744296  1.0000
  C   C33       1.0  0.10488519923890031  0.604775274532074  0.7907677215086792  1.0000
  C   C34       1.0  0.2964884032789428  0.7249906787836058  0.41793204373135506  1.0000
  C   C35       1.0  0.725129630723032  0.28556906195481735  0.4177084229562809  1.0000
  C   C36       1.0  0.28545052213619476  0.8572379549816848  0.4179636390748485  1.0000
  C   C37       1.0  0.8572808207017886  0.2965903943728353  0.4178089416178778  1.0000
  C   C38       1.0  0.2700716972863546  0.7702362688114165  0.4596703841585495  1.0000
  C   C39       1.0  0.7703236802274988  0.27020601769498875  0.4594997615708039  1.0000
  C   C40       1.0  0.3371866212543965  0.7665411212950278  0.3370153585889425  1.0000
  C   C41       1.0  0.7666667155389674  0.32596116515172485  0.3367911497695887  1.0000
  C   C42       1.0  0.32591589432378487  0.8966786086505824  0.3370483416839677  1.0000
  C   C43       1.0  0.8967081974027238  0.33723374194644173  0.33689127941840263  1.0000
  C   C44       1.0  0.3516482898306137  0.8516314040220867  0.2970333087022823  1.0000
  C   C45       1.0  0.8517078846177455  0.35168709472907994  0.29681745562024997  1.0000
  C   C46       1.0  0.3950483253219871  0.8948094609531199  0.2107113070645782  1.0000
  C   C47       1.0  0.8948723576276549  0.3951126083795487  0.21046840087645788  1.0000
  C   C48       1.0  0.6355976083656643  0.8616194439309487  0.9994149996720908  1.0000
  C   C49       1.0  0.2417134686375774  0.5981242631504248  0.5403926191481929  1.0000
  C   C50       1.0  0.8616002811373348  0.3645199351810225  0.9996371107271713  1.0000
  C   C51       1.0  0.36454537912192825  0.1383907583263099  0.9995470619112153  1.0000
  C   C52       1.0  0.1352216690284251  0.6364401936905894  0.0024833199350454706  1.0000
  C   C53       1.0  0.6360031482405051  0.13470209617862858  0.0029383338442201343  1.0000
  C   C54       1.0  0.8619761814544094  0.6359524812869851  0.0028560448229341708  1.0000
  C   C55       1.0  0.36446617657610864  0.8617240144767779  2.9664757150290262e-05  1.0000
  C   C56       1.0  0.13461271066640282  0.3607481550935675  0.002947535616137018  1.0000
  C   C57       1.0  0.22915777205167842  0.6718366630136502  0.04401212738815023  1.0000
  C   C58       1.0  0.671723014914008  0.7268467784166504  0.044915566086416385  1.0000
  C   C59       1.0  0.7268098345601289  0.28317380194700814  0.04485199938237364  1.0000
  C   C60       1.0  0.2832967226743436  0.22810940393076612  0.044673520277868285  1.0000
  C   C61       1.0  0.22907862451369004  0.2840787456704917  0.043988066990827725  1.0000
  C   C62       1.0  0.6715768908056036  0.22905374676202686  0.044072170240951926  1.0000
  C   C63       1.0  0.7265900394972107  0.6715574879104054  0.044232598229818655  1.0000
  C   C64       1.0  0.28331720139173916  0.7268893243968365  0.04493633230319464  1.0000
  C   C65       1.0  0.1886528087074737  0.694954548281345  0.002436622411991629  1.0000
  C   C66       1.0  0.6935192812473475  0.8076402940820562  0.9957316580907543  1.0000
  C   C67       1.0  0.8076112067344284  0.3104811641236729  0.9957853383480281  1.0000
  C   C68       1.0  0.3106560458624656  0.19640554159272522  0.995557673276167  1.0000
  C   C69       1.0  0.1884350058008977  0.3026354719572383  0.002543411706518822  1.0000
  C   C70       1.0  0.6945087847502265  0.18840413127799846  0.002623810915984826  1.0000
  C   C71       1.0  0.8086319760840366  0.6944920867526321  0.0027232100853496464  1.0000
  C   C72       1.0  0.31069494033101824  0.807719317397393  0.9959546102802079  1.0000
  O   O1        1.0  0.4995405197495801  0.9995215279863392  0.0008922860122097103  1.0000
  O   O2        1.0  0.08630563282318345  0.6491113820743101  0.8243147165720899  1.0000
  O   O3        1.0  0.64917402777062  0.0902219636809964  0.8240311023095755  1.0000
  O   O4        1.0  0.09008461070099834  0.5269494199371894  0.8243273847574173  1.0000
  O   O5        1.0  0.4123013357570001  0.850389773708294  0.17729134104313005  1.0000
  O   O6        1.0  0.8504414495186552  0.4114539649878212  0.17705778569614233  1.0000
  O   O7        1.0  0.41141539161998963  0.9726624211053195  0.1772459555290382  1.0000
  O   O8        1.0  0.9726941180914255  0.41242390799558154  0.17699538342964155  1.0000
  O   O9        1.0  0.9995078742243708  0.49956287840820607  0.0008659226509024067  1.0000
  O   O10       1.0  0.6674116202503128  0.9373877310193997  0.9515532953604265  1.0000
  O   O11       1.0  0.9373291245679596  0.38077211911387154  0.9516116888514361  1.0000
  O   O12       1.0  0.3801939717640226  0.11001839447227048  0.9520385308473819  1.0000
  O   O13       1.0  0.10631059305205066  0.6684304112930594  0.9554656084051415  1.0000
  O   O14       1.0  0.6681330887471121  0.10486043673935859  0.9567236069990979  1.0000
  O   O15       1.0  0.9378849220611087  0.6680880492623094  0.956212959061183  1.0000
  O   O16       1.0  0.379688304348548  0.9375950837238072  0.9527223276509246  1.0000
  O   O17       1.0  0.1050550025074699  0.375108093855531  0.956478373819891  1.0000
  O   O18       1.0  0.39060617836526756  0.12137394011897133  0.04868668835786144  1.0000
  O   O19       1.0  0.12237819991859318  0.5605789422793991  0.048018059092669346  1.0000
  O   O20       1.0  0.5604107309202675  0.8295866962078978  0.04861245809782135  1.0000
  O   O21       1.0  0.8296380014667762  0.39020883595303263  0.04909917660814495  1.0000
  O   O22       1.0  0.390831636855303  0.8297017424145354  0.04896064686163739  1.0000
  O   O23       1.0  0.1219844703116308  0.39133383146592854  0.0482452684168706  1.0000
  O   O24       1.0  0.5601058363400216  0.12245094612583085  0.047912978562550224  1.0000
  O   O25       1.0  0.8293536185500016  0.560026196044504  0.048073433779542596  1.0000
  O   O26       1.0  0.5270865935811032  0.08644102390958656  0.8239877460310366  1.0000
  O   O27       1.0  0.30543068180863037  0.5939977242256591  0.42072214750380965  1.0000
  O   O28       1.0  0.5941704332001763  0.2740135438833493  0.4204411258083667  1.0000
  O   O29       1.0  0.27382005936476617  0.985444523615357  0.42074952746975913  1.0000
  O   O30       1.0  0.9854241061114523  0.3054714536727662  0.42068408851997663  1.0000
