data_image0
_chemical_formula_structural       Gd2H22C18N8O16
_chemical_formula_sum              "Gd2 H22 C18 N8 O16"
_cell_length_a       7.046769292762662
_cell_length_b       10.99254945114459
_cell_length_c       11.038743106307901
_cell_angle_alpha    110.77142691059862
_cell_angle_beta     102.06979359706263
_cell_angle_gamma    106.7543705541063

_space_group_name_H-M_alt    "P 1"
_space_group_IT_number       1

loop_
  _space_group_symop_operation_xyz
  'x, y, z'

loop_
  _atom_site_type_symbol
  _atom_site_label
  _atom_site_symmetry_multiplicity
  _atom_site_fract_x
  _atom_site_fract_y
  _atom_site_fract_z
  _atom_site_occupancy
  Gd  Gd1       1.0  0.710528365849683  0.7833734300896892  0.681924459064163  1.0000
  Gd  Gd2       1.0  0.2894683990938772  0.21662557140994917  0.31807763724025045  1.0000
  H   H1        1.0  0.4177299435747057  0.8186284006978113  0.3905583445152913  1.0000
  H   H2        1.0  0.5822787205009377  0.18137127012180804  0.6094435992777605  1.0000
  H   H3        1.0  0.21129033198162975  0.7578887013798267  0.9697214106896865  1.0000
  H   H4        1.0  0.7887205828967794  0.24210910341062697  0.030286487163209613  1.0000
  H   H5        1.0  0.3129254903972267  0.4253393564890332  0.05496204982856061  1.0000
  H   H6        1.0  0.687067268643716  0.5746573600468781  0.9450387609675132  1.0000
  H   H7        1.0  0.29853815371660636  0.7936614158913785  0.7085182503732381  1.0000
  H   H8        1.0  0.7014512483164097  0.20633810495543511  0.291474086572066  1.0000
  H   H9        1.0  0.3245895073881044  0.677191861756903  0.7510512571585791  1.0000
  H   H10       1.0  0.6754030246968413  0.3228109455413205  0.24894533237203118  1.0000
  H   H11       1.0  0.8247279389217894  0.952034515231013  0.5378171969991853  1.0000
  H   H12       1.0  0.17526979955273697  0.04796658810087711  0.46218485122443537  1.0000
  H   H13       1.0  0.908510180802999  0.8326366295017138  0.47406504860565235  1.0000
  H   H14       1.0  0.09148394255336001  0.16736321344676955  0.5259334038742763  1.0000
  H   H15       1.0  0.9529201745106731  0.6382644146357065  0.5339262942784088  1.0000
  H   H16       1.0  0.04707081879374901  0.36173214186136704  0.46606790561620665  1.0000
  H   H17       1.0  0.9976786073433529  0.6268987890275143  0.6787627798923309  1.0000
  H   H18       1.0  0.002317965638127407  0.37310015980051503  0.3212347440221706  1.0000
  H   H19       1.0  0.8401395878714696  0.7212758485267303  0.8974833339847166  1.0000
  H   H20       1.0  0.159863496527116  0.2787214299619336  0.1025152857884564  1.0000
  H   H21       1.0  0.014064389627947014  0.8783346273137981  0.999608041720826  1.0000
  H   H22       1.0  0.9859387540585158  0.1216657439604703  0.00039258257054088346  1.0000
  C   C1        1.0  0.4217824796053477  0.5557550047074074  0.33363251674241207  1.0000
  C   C2        1.0  0.5782177643836731  0.44424214332138945  0.6663693418315332  1.0000
  C   C3        1.0  0.3695659072065709  0.6150297515634122  0.2338324909656038  1.0000
  C   C4        1.0  0.6304383810774752  0.38496969196344116  0.7661715675946681  1.0000
  C   C5        1.0  0.3749235769547781  0.752487998444309  0.2805900851675105  1.0000
  C   C6        1.0  0.62509226492962  0.2475120195936072  0.7194055905795692  1.0000
  C   C7        1.0  0.3161296707809527  0.8027832958085314  0.18477012491030104  1.0000
  C   C8        1.0  0.683884517082376  0.1972218285246825  0.815234403986885  1.0000
  C   C9        1.0  0.308696634227239  0.9455752035336574  0.23459962792721017  1.0000
  C   C10       1.0  0.6913008529973367  0.054422754341011605  0.7653958433883118  1.0000
  C   C11       1.0  0.2558995572622109  0.7174249042382925  0.043183386563079317  1.0000
  C   C12       1.0  0.7440944684138558  0.2825718353902573  0.9568121469206684  1.0000
  C   C13       1.0  0.25212731427415486  0.5801565807569489  0.9958745714681639  1.0000
  C   C14       1.0  0.7478859559475807  0.4198433805613675  0.004130744425566555  1.0000
  C   C15       1.0  0.3106838605359812  0.5306354352723164  0.09230499500209535  1.0000
  C   C16       1.0  0.6893129636954426  0.46936665901292673  0.9076991058205123  1.0000
  C   C17       1.0  0.18106991222931862  0.48559900458188565  0.8486899838651424  1.0000
  C   C18       1.0  0.8189263292555893  0.5144020124514272  0.15131185480289852  1.0000
  N   N1        1.0  0.15517017224401994  0.3484914115068776  0.7981992532062916  1.0000
  N   N2        1.0  0.8448254830958672  0.6515023743062541  0.2017990577047613  1.0000
  N   N3        1.0  0.08863964393793823  0.3007907739176475  0.6611851699574345  1.0000
  N   N4        1.0  0.9113638905329678  0.6992106219369421  0.33881314409857305  1.0000
  N   N5        1.0  0.07467891171507554  0.4034677540801327  0.6286053912137887  1.0000
  N   N6        1.0  0.9253247379330743  0.5965336733774224  0.37139566627616455  1.0000
  N   N7        1.0  0.13137589689252852  0.5218313168477524  0.7444278974771805  1.0000
  N   N8        1.0  0.8686173506131493  0.4781695275884061  0.2555735220797074  1.0000
  O   O1        1.0  0.48894146853577064  0.6371124940563035  0.46204447241714053  1.0000
  O   O2        1.0  0.5110631721403109  0.3628879635165419  0.5379563614297993  1.0000
  O   O3        1.0  0.3926884460534197  0.4254476492337532  0.2827721549154134  1.0000
  O   O4        1.0  0.6073140346398914  0.5745568584510892  0.7172370988830394  1.0000
  O   O5        1.0  0.423331286277559  0.04101744250129969  0.3563811741300923  1.0000
  O   O6        1.0  0.5766734136863931  0.9589861078571573  0.6436216642350415  1.0000
  O   O7        1.0  0.18355891071350056  0.9728240474099222  0.15422411031330088  1.0000
  O   O8        1.0  0.8164411797058616  0.02717305848157988  0.8457740903487191  1.0000
  O   O9        1.0  0.4070855503221367  0.7654543771442307  0.7474542056060188  1.0000
  O   O10       1.0  0.5929043960649878  0.23454621042019144  0.2525394790158586  1.0000
  O   O11       1.0  0.8965247920622659  0.8960211897869853  0.5625477258536407  1.0000
  O   O12       1.0  0.10347043749926138  0.10397771487975405  0.43745324641721334  1.0000
  O   O13       1.0  0.9661769800250821  0.6867779063554948  0.6349706063649376  1.0000
  O   O14       1.0  0.0338166373695827  0.3132208804097019  0.3650274129163974  1.0000
  O   O15       1.0  0.9094132637405251  0.8147997406430391  0.9029034309384157  1.0000
  O   O16       1.0  0.0905909093662771  0.18519967128084153  0.0970978841879102  1.0000
