data_image0
_chemical_formula_structural       Zn2H34C56N6O12
_chemical_formula_sum              "Zn2 H34 C56 N6 O12"
_cell_length_a       16.25501749934814
_cell_length_b       17.197119279144438
_cell_length_c       23.753970872453195
_cell_angle_alpha    88.99554491310643
_cell_angle_beta     85.63548748402489
_cell_angle_gamma    87.05977383976632

_space_group_name_H-M_alt    "P 1"
_space_group_IT_number       1

loop_
  _space_group_symop_operation_xyz
  'x, y, z'

loop_
  _atom_site_type_symbol
  _atom_site_label
  _atom_site_symmetry_multiplicity
  _atom_site_fract_x
  _atom_site_fract_y
  _atom_site_fract_z
  _atom_site_occupancy
  Zn  Zn1       1.0  0.5857177013910473  0.5001728078824929  0.4977623557754569  1.0000
  Zn  Zn2       1.0  0.41456699643005385  0.4975443167147093  0.5073232087531778  1.0000
  H   H1        1.0  0.6547126248326266  0.11485009082201711  0.4384641300722619  1.0000
  H   H2        1.0  0.3389272175485871  0.8875065603997143  0.4596319692252138  1.0000
  H   H3        1.0  0.6003583701294063  0.875820788290284  0.41052956228649146  1.0000
  H   H4        1.0  0.3883446128419408  0.1251900878793464  0.44312530692180724  1.0000
  H   H5        1.0  0.27949895338746705  0.5761754155940652  0.4486512756329191  1.0000
  H   H6        1.0  0.7207745936900025  0.42200344582343535  0.5573889635531657  1.0000
  H   H7        1.0  0.7116562420938805  0.5932896434959006  0.433587286386242  1.0000
  H   H8        1.0  0.2886882069843324  0.40445926905930213  0.5721496844260017  1.0000
  H   H9        1.0  0.9966629432514151  0.5639200158359615  0.4576261291710964  1.0000
  H   H10       1.0  0.0037019461037174958  0.43373620826479004  0.5481644760617357  1.0000
  H   H11       1.0  0.13487681708443228  0.39385749061239045  0.5780344620623623  1.0000
  H   H12       1.0  0.8656012264889982  0.6037608083049266  0.427725726450042  1.0000
  H   H13       1.0  0.8738701554124619  0.42435309909958374  0.5576346236709284  1.0000
  H   H14       1.0  0.1262776746617718  0.5733287907977246  0.4481649708374889  1.0000
  H   H15       1.0  0.5756481816665371  0.3162811453301302  0.9434260155680363  1.0000
  H   H16       1.0  0.4265655188433755  0.6832002397884481  0.0614782364173436  1.0000
  H   H17       1.0  0.6313608663311142  0.5183420415892146  0.7801553208257914  1.0000
  H   H18       1.0  0.37004873680373146  0.48567725410946144  0.22442355636286487  1.0000
  H   H19       1.0  0.6297434824482123  0.51836594616708  0.6744078460321746  1.0000
  H   H20       1.0  0.37197051902694517  0.4843916716208983  0.3302947972628303  1.0000
  H   H21       1.0  0.36808683627354094  0.49245165452526163  0.6898174525868085  1.0000
  H   H22       1.0  0.6349357615720094  0.4999771382805919  0.3149314376016861  1.0000
  H   H23       1.0  0.3692230729367195  0.4917375239298708  0.7956288912128572  1.0000
  H   H24       1.0  0.633740210443463  0.5021720460179822  0.20898935011723552  1.0000
  H   H25       1.0  0.3856733140132604  0.2618444233531322  0.47475364795990765  1.0000
  H   H26       1.0  0.6071484416680805  0.7357919347905267  0.4374302860900343  1.0000
  H   H27       1.0  0.3472951205033609  0.7458951147393905  0.48491414248587716  1.0000
  H   H28       1.0  0.6500144764862057  0.2531003489600465  0.46960334276619886  1.0000
  H   H29       1.0  0.40061361095108344  0.003514019726026199  0.4372503157680256  1.0000
  H   H30       1.0  0.5905269641302694  0.9993910691323297  0.4253583514002344  1.0000
  H   H31       1.0  0.6002961800960451  0.24764404801701556  0.030554060490054307  1.0000
  H   H32       1.0  0.5806555020998586  0.29407745676241615  0.09708159473047571  1.0000
  H   H33       1.0  0.4008956664354528  0.7515369628755126  0.9747140394693758  1.0000
  H   H34       1.0  0.4200635655891531  0.7054701581956236  0.9080284261084088  1.0000
  C   C1        1.0  0.5134318344265835  0.3471724859539266  0.4959201451920237  1.0000
  C   C2        1.0  0.48455821751613826  0.6497164945132924  0.4841177853318612  1.0000
  C   C3        1.0  0.5739904634438561  0.5126479283744132  0.7599649415931536  1.0000
  C   C4        1.0  0.42775945875055743  0.48889005309725786  0.24462294853062622  1.0000
  C   C5        1.0  0.5730931080330635  0.5125224426922872  0.7013903934840187  1.0000
  C   C6        1.0  0.4287471580776767  0.48828302130426954  0.3031531455847158  1.0000
  C   C7        1.0  0.4988658168474415  0.505007196340948  0.6760311302998118  1.0000
  C   C8        1.0  0.503450372592404  0.49259653661577135  0.3283937294949624  1.0000
  C   C9        1.0  0.4253671014027418  0.4978107122459577  0.7101227751629297  1.0000
  C   C10       1.0  0.5774203050558029  0.49721573812155395  0.2944769190557465  1.0000
  C   C11       1.0  0.42601659021458  0.4974738795466466  0.7687001315232892  1.0000
  C   C12       1.0  0.5767135586514557  0.4983774403406401  0.23593422934157357  1.0000
  C   C13       1.0  0.5003721304697066  0.5049024980693988  0.7932607072517897  1.0000
  C   C14       1.0  0.5017971727803285  0.4942373983333115  0.2114390618211033  1.0000
  C   C15       1.0  0.5174340596117374  0.26503104420808665  0.47573728735180504  1.0000
  C   C16       1.0  0.4781642683652338  0.7328594012058574  0.46450456224452097  1.0000
  C   C17       1.0  0.44416513802337226  0.2285965600703791  0.466887824837535  1.0000
  C   C18       1.0  0.5487418029092553  0.7699083697134415  0.442142516770339  1.0000
  C   C19       1.0  0.4462957281500408  0.1521839889333521  0.4490317274054973  1.0000
  C   C20       1.0  0.5445051675573183  0.8483224259908085  0.42737777605382377  1.0000
  C   C21       1.0  0.5220607194371069  0.10870422163767304  0.43996390772089455  1.0000
  C   C22       1.0  0.4694402856519773  0.8931415198414357  0.43555738407597033  1.0000
  C   C23       1.0  0.49802360204250823  0.5039822300979822  0.6128413920742233  1.0000
  C   C24       1.0  0.5042027681796384  0.49303395108147896  0.3914614392563962  1.0000
  C   C25       1.0  0.5953903868288106  0.14707504809901206  0.4464411396494654  1.0000
  C   C26       1.0  0.397940530381561  0.854125182186266  0.45435058456875055  1.0000
  C   C27       1.0  0.5932819192324031  0.22393584672192196  0.4640447297667123  1.0000
  C   C28       1.0  0.4021535805705695  0.7753902503790259  0.4687561061784535  1.0000
  C   C29       1.0  0.5275582703241  0.02537177613190521  0.4296417279756782  1.0000
  C   C30       1.0  0.46354633796133277  0.9777258075633882  0.4317083301766615  1.0000
  C   C31       1.0  0.2441117770960943  0.5368940974715176  0.4764349896544431  1.0000
  C   C32       1.0  0.7561008726957612  0.4611247089104466  0.5294301223012283  1.0000
  C   C33       1.0  0.1589818507282885  0.5347209280243775  0.4767115334870695  1.0000
  C   C34       1.0  0.8412599817081131  0.46304491869704395  0.5291073206327823  1.0000
  C   C35       1.0  0.11649963210881246  0.4830871699992373  0.5137809601120367  1.0000
  C   C36       1.0  0.8838609392092919  0.5145788725721304  0.4920207139499979  1.0000
  C   C37       1.0  0.1643500517674426  0.4351631184614534  0.5486432935280092  1.0000
  C   C38       1.0  0.8360544553652716  0.5625139955889014  0.4571197333807362  1.0000
  C   C39       1.0  0.24952585060893992  0.44063391086341863  0.5458437946202324  1.0000
  C   C40       1.0  0.7508586752353993  0.5571785024821949  0.4599099086117207  1.0000
  C   C41       1.0  0.027135329457081504  0.4772838998882495  0.5177757465978203  1.0000
  C   C42       1.0  0.973229347627594  0.5203434474979646  0.4879931763465705  1.0000
  C   C43       1.0  0.4730187392154548  0.5660313895263089  0.1254167763135499  1.0000
  C   C44       1.0  0.5298054766742694  0.43371616744326513  0.8794034931513933  1.0000
  C   C45       1.0  0.5280828102241557  0.42718046057908776  0.1218650009855153  1.0000
  C   C46       1.0  0.4734492844622127  0.572209383659761  0.8828978041051343  1.0000
  C   C47       1.0  0.5283656212201748  0.4289674391237313  0.0604778053298318  1.0000
  C   C48       1.0  0.47333619644750513  0.5704752862847045  0.9443188138651379  1.0000
  C   C49       1.0  0.5013025350302839  0.4979017196883575  0.032277969023866114  1.0000
  C   C50       1.0  0.5007457820589495  0.5016502509348372  0.972524473295543  1.0000
  C   C51       1.0  0.47367764590514827  0.5657378700756722  0.0630633405311087  1.0000
  C   C52       1.0  0.5286886205260971  0.4338720104412134  0.9417806471251708  1.0000
  C   C53       1.0  0.5556456233557014  0.3618083335239248  0.0287800672345071  1.0000
  C   C54       1.0  0.4460433670462791  0.6375749490298689  0.9760916331910607  1.0000
  C   C55       1.0  0.5550334118682158  0.36664587698766143  0.9690689993276536  1.0000
  C   C56       1.0  0.44712019784482493  0.6328482129736557  0.03578266489518709  1.0000
  N   N1        1.0  0.5009040775595324  0.49593006691993935  0.1507141134222891  1.0000
  N   N2        1.0  0.5012523717971434  0.5035875556910485  0.8540538988648761  1.0000
  N   N3        1.0  0.2886263305280323  0.490867646086791  0.510542259838516  1.0000
  N   N4        1.0  0.7116139384308653  0.5071915421597526  0.4953344018847332  1.0000
  N   N5        1.0  0.5817349951188504  0.2947091333553473  0.053955605296835095  1.0000
  N   N6        1.0  0.4194529278891538  0.7046520786112681  0.9511110044419765  1.0000
  O   O1        1.0  0.5813647384521303  0.3797763615501994  0.5002669460855741  1.0000
  O   O2        1.0  0.4172879361928636  0.6167665058449504  0.49812888171468467  1.0000
  O   O3        1.0  0.44146657257440575  0.3792503106684251  0.5065315265984935  1.0000
  O   O4        1.0  0.5570118047946053  0.6178956139991811  0.4855966752580017  1.0000
  O   O5        1.0  0.5675156815073025  0.5063216050248657  0.5842693041851206  1.0000
  O   O6        1.0  0.4343797729490008  0.49476254989483703  0.41978315127144583  1.0000
  O   O7        1.0  0.42799309533236846  0.5006598496943867  0.5925336086610286  1.0000
  O   O8        1.0  0.5745588952882487  0.4920145141834881  0.4117691299663591  1.0000
  O   O9        1.0  0.4501662128204416  0.6231209066522754  0.15414432364486427  1.0000
  O   O10       1.0  0.5535301625670642  0.37688985674273573  0.8506583139577089  1.0000
  O   O11       1.0  0.5502348938131547  0.3688789403407072  0.1497823846392379  1.0000
  O   O12       1.0  0.45071833003079587  0.6303287669735766  0.8550156852633535  1.0000
