data_image0
_chemical_formula_structural       Sr4H56C48N32
_chemical_formula_sum              "Sr4 H56 C48 N32"
_cell_length_a       10.620189313
_cell_length_b       10.584818717073656
_cell_length_c       13.894
_cell_angle_alpha    95.26858509095848
_cell_angle_beta     90.0
_cell_angle_gamma    90.0

_space_group_name_H-M_alt    "P 1"
_space_group_IT_number       1

loop_
  _space_group_symop_operation_xyz
  'x, y, z'

loop_
  _atom_site_type_symbol
  _atom_site_label
  _atom_site_symmetry_multiplicity
  _atom_site_fract_x
  _atom_site_fract_y
  _atom_site_fract_z
  _atom_site_occupancy
  Sr  Sr1       1.0  0.28907300138633474  0.5053102001812277  0.25226678660828833  1.0000
  Sr  Sr2       1.0  0.7890744461345919  0.9946879138309583  0.2477338371803839  1.0000
  Sr  Sr3       1.0  0.7109251800961758  0.4946888587461018  0.7477329316389569  1.0000
  Sr  Sr4       1.0  0.21092656015631664  0.0053101963387547  0.7522665344321879  1.0000
  H   H1        1.0  0.4099277208430649  0.6837534800793179  0.4813957207213662  1.0000
  H   H2        1.0  0.9099272823857234  0.8162474802056962  0.0186043824415947  1.0000
  H   H3        1.0  0.5900732854478434  0.316246527605621  0.5186047836308275  1.0000
  H   H4        1.0  0.0900746655079914  0.1837515787216333  0.9813974950110663  1.0000
  H   H5        1.0  0.3348066494113695  0.2461826756805721  0.3703337061378775  1.0000
  H   H6        1.0  0.8348052693512287  0.2538163794042845  0.1296657599332676  1.0000
  H   H7        1.0  0.6651934152767397  0.7538192295195856  0.6296690901593393  1.0000
  H   H8        1.0  0.1651938537340811  0.7461817307654286  0.8703310130036215  1.0000
  H   H9        1.0  0.7594224323409692  0.7194836916422247  0.3695933507730373  1.0000
  H   H10       1.0  0.2594219291955113  0.7805087298243123  0.1304083142670578  1.0000
  H   H11       1.0  0.2405785739499464  0.2805144185274955  0.6304048616341262  1.0000
  H   H12       1.0  0.7405781354926049  0.2194836877997517  0.8695938183320775  1.0000
  H   H13       1.0  0.44841667692030285  0.8490137729974236  0.219306635211133  1.0000
  H   H14       1.0  0.948412472051757  0.6509852897723718  0.2806940549473467  1.0000
  H   H15       1.0  0.5515833877678062  0.1509862346875153  0.780696028346469  1.0000
  H   H16       1.0  0.0515828846223485  0.3490137691549506  0.7193042238296243  1.0000
  H   H17       1.0  0.09961121867244321  0.43442187789377573  0.4696527307437179  1.0000
  H   H18       1.0  0.5996107802151016  0.0655781259486972  0.0303468016972417  1.0000
  H   H19       1.0  0.9003888460156662  0.5655781297911631  0.530347053873335  1.0000
  H   H20       1.0  0.4003892844730146  0.9344247280090698  0.9696531820292407  1.0000
  H   H21       1.0  0.15007924557888694  0.584829370439671  0.01748691176844369  1.0000
  H   H22       1.0  0.6500806903271439  0.9151734873605619  0.4825126043989982  1.0000
  H   H23       1.0  0.8499189359036239  0.4151715860028773  0.9825122194832829  1.0000
  H   H24       1.0  0.3499203159637716  0.0848274690819864  0.5174865268527284  1.0000
  H   H25       1.0  0.5201150221718294  0.0619481793358503  0.37053046977550946  1.0000
  H   H26       1.0  0.0201126358207731  0.438052773264225  0.1294691290352574  1.0000
  H   H27       1.0  0.4798850425162868  0.9380537258643072  0.6294694475811582  1.0000
  H   H28       1.0  0.9798846040589382  0.5619472344207068  0.8705306555817955  1.0000
  H   H29       1.0  0.2147485259239446  0.4830314740017201  0.8313006327955605  1.0000
  H   H30       1.0  0.7147490290694023  0.0169704273559645  0.668698312649873  1.0000
  H   H31       1.0  0.7852515387641645  0.5169694824408211  0.168698498456159  1.0000
  H   H32       1.0  0.2852519772215132  0.9830305290865836  0.33130081860185356  1.0000
  H   H33       1.0  0.3002912571526579  0.7132626879986219  0.6450211263719721  1.0000
  H   H34       1.0  0.8002917602981158  0.7867382722863923  0.8549789767909814  1.0000
  H   H35       1.0  0.6997078659326519  0.286737319686317  0.3549786582450807  1.0000
  H   H36       1.0  0.19971018759559914  0.213262684156156  0.14502303340128717  1.0000
  H   H37       1.0  0.5772806697989239  0.5322644038589246  0.3525854894585763  1.0000
  H   H38       1.0  0.0772839330646704  0.9677299151228311  0.1474148688508663  1.0000
  H   H39       1.0  0.4227193948891923  0.4677337063107956  0.6474134426837209  1.0000
  H   H40       1.0  0.922719898034643  0.032265348774061  0.8525860233874241  1.0000
  H   H41       1.0  0.6074995284785061  0.3115653575617685  0.16151468364661528  1.0000
  H   H42       1.0  0.10749902533305541  0.1884346462806974  0.3384848487943444  1.0000
  H   H43       1.0  0.39249959460680384  0.688433701365561  0.8384850346006303  1.0000
  H   H44       1.0  0.8924982145466558  0.8115663101618438  0.6615142824573822  1.0000
  H   H45       1.0  0.4611631540320006  0.3410612828745414  0.03460511664791  1.0000
  H   H46       1.0  0.9611655403830569  0.1589387209679245  0.46539441579304947  1.0000
  H   H47       1.0  0.53883502745051  0.6589396735680069  0.9653947343389505  1.0000
  H   H48       1.0  0.038836407510658  0.8410612867170073  0.5346046490888696  1.0000
  H   H49       1.0  0.10799242520056403  0.5693712627127923  0.6522980200575718  1.0000
  H   H50       1.0  0.6079929283460217  0.9306287488146125  0.8477012970004411  1.0000
  H   H51       1.0  0.892006697884746  0.4306287449721466  0.3477017645594812  1.0000
  H   H52       1.0  0.3920118443560909  0.069373156385538  0.1522986203562269  1.0000
  H   H53       1.0  0.40550030447465707  0.3438022436075556  0.856038402135283  1.0000
  H   H54       1.0  0.905501749222914  0.1561996577501361  0.6439612630452913  1.0000
  H   H55       1.0  0.5944997602134522  0.6561987128349926  0.1439621685867181  1.0000
  H   H56       1.0  0.0944992570680014  0.8438022474500215  0.3560379345762428  1.0000
  C   C1        1.0  0.5765970661656894  0.6261449180479985  0.3269123128445344  1.0000
  C   C2        1.0  0.07659844622583022  0.8738512984489688  0.1730881782045159  1.0000
  C   C3        1.0  0.4234029985224268  0.3738560383945426  0.6730889776126004  1.0000
  C   C4        1.0  0.9234035016678774  0.1261439654479233  0.8269105548283588  1.0000
  C   C5        1.0  0.5108505922167481  0.1405992363818669  0.3259914355839655  1.0000
  C   C6        1.0  0.010850089071290401  0.3594017162182084  0.17400816322680154  1.0000
  C   C7        1.0  0.4891475892657624  0.8593969762726275  0.6740052046133015  1.0000
  C   C8        1.0  0.989144326000023  0.6406030352547774  0.8259933927095702  1.0000
  C   C9        1.0  0.2245214213913513  0.5191051358191601  0.993578715952502  1.0000
  C   C10       1.0  0.7245219245368091  0.9808977219810728  0.5064222396852145  1.0000
  C   C11       1.0  0.7754786432967578  0.48089582062338826  0.006421854769499204  1.0000
  C   C12       1.0  0.2754790817541064  0.0191032344614754  0.4935776113016529  1.0000
  C   C13       1.0  0.5092084369325036  0.787530484890084  0.257428954383002  1.0000
  C   C14       1.0  0.009206992184246601  0.7124676291221022  0.24257382861107857  1.0000
  C   C15       1.0  0.4907944525640104  0.2124676252796363  0.7425692580241616  1.0000
  C   C16       1.0  0.9907949557094684  0.2875323785628368  0.7574302744167979  1.0000
  C   C17       1.0  0.1683623471580944  0.5709205838886291  0.5894144629875342  1.0000
  C   C18       1.0  0.6683619087007528  0.9290803763963851  0.9105856401754264  1.0000
  C   C19       1.0  0.8316367759272156  0.4290803725539121  0.410586107734467  1.0000
  C   C20       1.0  0.3316372143845641  0.0709205800461632  0.0894163700168491  1.0000
  C   C21       1.0  0.1660676611330416  0.5057162684379648  0.49892179429678407  1.0000
  C   C22       1.0  0.6660681642784922  0.9942846918470495  0.0010783088661768063  1.0000
  C   C23       1.0  0.8339324035550746  0.494283739246967  0.5010787100554097  1.0000
  C   C24       1.0  0.3339309588068176  0.0057153158378895  0.9989236349562913  1.0000
  C   C25       1.0  0.5569090932079916  0.2674225122779887  0.21778541158349185  1.0000
  C   C26       1.0  0.0569076484597346  0.2325765428068678  0.2822147742227941  1.0000
  C   C27       1.0  0.44309097148012466  0.7325774954069502  0.7822150927687019  1.0000
  C   C28       1.0  0.943090533022783  0.767423464878064  0.7177842906591252  1.0000
  C   C29       1.0  0.326638245116186  0.6324996965145004  0.5009296230407472  1.0000
  C   C30       1.0  0.8266387482616437  0.8675003150129044  0.9990696940172654  1.0000
  C   C31       1.0  0.6733627611747295  0.3675003111704385  0.4990701615763057  1.0000
  C   C32       1.0  0.1733641412348703  0.1325006414296368  0.0009301569696021  1.0000
  C   C33       1.0  0.2551705925508116  0.47039402264702806  0.9012529191830794  1.0000
  C   C34       1.0  0.7551720372990687  0.0296088274682731  0.5987475321024434  1.0000
  C   C35       1.0  0.7448294721373045  0.5296069337955203  0.09874693180378098  1.0000
  C   C36       1.0  0.24482991059464612  0.9703930777318845  0.4012523852542316  1.0000
  C   C37       1.0  0.3848584878799528  0.3950417958082326  0.0066316171232472035  1.0000
  C   C38       1.0  0.8848599326282098  0.1049582080342333  0.4933664758474308  1.0000
  C   C39       1.0  0.6151406352053571  0.6049591606343085  0.9933675141284724  1.0000
  C   C40       1.0  0.1151420152655049  0.895042748408315  0.5066319356691551  1.0000
  C   C41       1.0  0.6679174721788713  0.7197303686206169  0.334717127723458  1.0000
  C   C42       1.0  0.1679160274306142  0.7802648991187411  0.16528329695579197  1.0000
  C   C43       1.0  0.3320835341120443  0.280269639064322  0.6652833766287359  1.0000
  C   C44       1.0  0.8320830956547027  0.21972941602054158  0.8347160894424162  1.0000
  C   C45       1.0  0.4181384972642804  0.2322672478262646  0.32523473835634314  1.0000
  C   C46       1.0  0.9181371172041396  0.26773465353142  0.17476420708909757  1.0000
  C   C47       1.0  0.5818625090266352  0.7677327598586672  0.6747650462607169  1.0000
  C   C48       1.0  0.0818610642783781  0.732268200426347  0.82523433716711  1.0000
  N   N1        1.0  0.6007322291506157  0.1632223615735171  0.2571724114484155  1.0000
  N   N2        1.0  0.1007336092107565  0.3367766935113465  0.24282849409301116  1.0000
  N   N3        1.0  0.3992640691262964  0.8367766973538124  0.7428287462691044  1.0000
  N   N4        1.0  0.8992655138745533  0.6632242629312017  0.7571713568938561  1.0000
  N   N5        1.0  0.2650583635598878  0.5449274716690695  0.4439046078383697  1.0000
  N   N6        1.0  0.7650588667053455  0.9550734886159447  0.05609477558945029  1.0000
  N   N7        1.0  0.7349417011282213  0.45507253601586933  0.5560951767786833  1.0000
  N   N8        1.0  0.23494213958557  0.0449255703113778  0.9439063821280698  1.0000
  N   N9        1.0  0.2710177676848744  0.650339185840501  0.588973313708081  1.0000
  N   N10       1.0  0.7710182708303323  0.8496608256869038  0.911026723085065  1.0000
  N   N11       1.0  0.7289813554004426  0.3496598730868286  0.41102712427429816  1.0000
  N   N12       1.0  0.22898367706338266  0.1503401307556445  0.08897528710721049  1.0000
  N   N13       1.0  0.47476837289783463  0.6692270523246862  0.2770910627483687  1.0000
  N   N14       1.0  0.9747669928376939  0.8307720104451164  0.2229103471452518  1.0000
  N   N15       1.0  0.5252326333930739  0.3307729553602528  0.7229080021335506  1.0000
  N   N16       1.0  0.0252330718504226  0.1692270484822131  0.7770922500425498  1.0000
  N   N17       1.0  0.6251997779241449  0.822845140620153  0.2900008540298202  1.0000
  N   N18       1.0  0.12519833317588794  0.6771510758768144  0.21000035675437093  1.0000
  N   N19       1.0  0.37480122836676344  0.1771539183071766  0.7099981444822845  1.0000
  N   N20       1.0  0.8748007899094219  0.3228460855352893  0.790001387958668  1.0000
  N   N21       1.0  0.447430818788078  0.3132977889561914  0.2559960303787676  1.0000
  N   N22       1.0  0.9474313219335357  0.1867022148862816  0.244003502062192  1.0000
  N   N23       1.0  0.5525692459000311  0.6867031674863568  0.7440059798135081  1.0000
  N   N24       1.0  0.0525696843573797  0.813296844041048  0.7559940569796453  1.0000
  N   N25       1.0  0.3062374788384332  0.47141109080410365  0.05919293187518089  1.0000
  N   N26       1.0  0.806237981983891  0.0285889130383694  0.4408066005657787  1.0000
  N   N27       1.0  0.6937607026440773  0.5285889168808353  0.9408061330067381  1.0000
  N   N28       1.0  0.19376302430702452  0.9714110946465695  0.5591931840512743  1.0000
  N   N29       1.0  0.35683168052015907  0.3920019764283253  0.9113261224257627  1.0000
  N   N30       1.0  0.8568331252684162  0.10799992492936639  0.5886728230196709  1.0000
  N   N31       1.0  0.6431674425651579  0.6079989800142229  0.0886730088259569  1.0000
  N   N32       1.0  0.14316882262529873  0.8920010315131819  0.4113263082320557  1.0000
