data_image0
_chemical_formula_structural       K4H8C8N24O8
_chemical_formula_sum              "K4 H8 C8 N24 O8"
_cell_length_a       4.883838889020636
_cell_length_b       8.86359681407334
_cell_length_c       14.442830220868942
_cell_angle_alpha    105.53238972535911
_cell_angle_beta     89.99976541208935
_cell_angle_gamma    90.000284037991

_space_group_name_H-M_alt    "P 1"
_space_group_IT_number       1

loop_
  _space_group_symop_operation_xyz
  'x, y, z'

loop_
  _atom_site_type_symbol
  _atom_site_label
  _atom_site_symmetry_multiplicity
  _atom_site_fract_x
  _atom_site_fract_y
  _atom_site_fract_z
  _atom_site_occupancy
  K   K1        1.0  0.21393452231345125  0.4531959055828806  0.6193969337705951  1.0000
  K   K2        1.0  0.713921038564962  0.04677936261480651  0.8805986830857294  1.0000
  K   K3        1.0  0.786066210480982  0.5467964342796137  0.38060253085591  1.0000
  K   K4        1.0  0.2860776466884048  0.9532223561804894  0.11940296037642632  1.0000
  H   H1        1.0  0.7009990362692166  0.3754928037998153  0.7464311855888397  1.0000
  H   H2        1.0  0.20099572075518782  0.12450937699111359  0.7535694068856174  1.0000
  H   H3        1.0  0.2990016965578519  0.6245077208927156  0.2535688837871319  1.0000
  H   H4        1.0  0.7990029645022858  0.8754911476990371  0.24643066249139878  1.0000
  H   H5        1.0  0.6947749012915169  0.5726625598213531  0.8128613445425472  1.0000
  H   H6        1.0  0.19477301394469046  0.9273380672054612  0.6871370811160418  1.0000
  H   H7        1.0  0.3052258315314731  0.42733679395350066  0.18713853926115578  1.0000
  H   H8        1.0  0.8052277188823923  0.07266127497566537  0.3128621084312257  1.0000
  C   C1        1.0  0.090095517559142  0.4633101902683165  0.9611487374257379  1.0000
  C   C2        1.0  0.5900983110135557  0.0366893556854109  0.5388495143429779  1.0000
  C   C3        1.0  0.9099031676983317  0.5366903344218341  0.03885133195128526  1.0000
  C   C4        1.0  0.4099044693953858  0.9633111342283126  0.46114847226264283  1.0000
  C   C5        1.0  0.4072584381732511  0.43329039257126567  0.8495249727470052  1.0000
  C   C6        1.0  0.9072581169297822  0.06671108596616189  0.6504745293459422  1.0000
  C   C7        1.0  0.59274024708013  0.5667101437126121  0.1504757908864462  1.0000
  C   C8        1.0  0.09274261590137912  0.9332894271326424  0.34952484577359405  1.0000
  N   N1        1.0  0.3330920096380297  0.7038950641397361  0.9435211872308358  1.0000
  N   N2        1.0  0.8330927952781764  0.79610473721754  0.5564783001717473  1.0000
  N   N3        1.0  0.6669066756194441  0.2961054605504144  0.056478882146180395  1.0000
  N   N4        1.0  0.16690793754074923  0.20389226312822467  0.4435205182309758  1.0000
  N   N5        1.0  0.2737938353718761  0.544824391151053  0.9191342829029027  1.0000
  N   N6        1.0  0.7737916436473783  0.9551752837266106  0.5808659592896959  1.0000
  N   N7        1.0  0.7262068974470212  0.4551749742175345  0.08086629515722878  1.0000
  N   N8        1.0  0.22620908917970445  0.044824058454509  0.4191332302575717  1.0000
  N   N9        1.0  0.18315321804032442  0.7760472209432903  0.890782201853291  1.0000
  N   N10       1.0  0.68316092501383  0.7239534485971503  0.6092204012025135  1.0000
  N   N11       1.0  0.8168413720779528  0.2239544862535041  0.10921874735451809  1.0000
  N   N12       1.0  0.31684185537873333  0.27604708769150227  0.3907803624288491  1.0000
  N   N13       1.0  0.11007118945214962  0.31186096006838676  0.9186594770505536  1.0000
  N   N14       1.0  0.6100727694168383  0.18813865558274048  0.5813401428403183  1.0000
  N   N15       1.0  0.8899274958012313  0.6881395762154909  0.081341286582898  1.0000
  N   N16       1.0  0.38992591584473507  0.8118618575136834  0.41865923228026247  1.0000
  N   N17       1.0  0.31133327556922563  0.2916551543375973  0.8487016065620026  1.0000
  N   N18       1.0  0.8113362466355838  0.20834491834008867  0.6512971136217516  1.0000
  N   N19       1.0  0.6886654096841556  0.7083453819462875  0.15129915707145614  1.0000
  N   N20       1.0  0.18866448619557727  0.7916555947587156  0.3487022614977917  1.0000
  N   N21       1.0  0.5922834834251135  0.468793539662954  0.7897380255941613  1.0000
  N   N22       1.0  0.0922819062259421  0.031207193891553704  0.7102611037719981  1.0000
  N   N23       1.0  0.4077152018282676  0.5312069966209235  0.21026273803929024  1.0000
  N   N24       1.0  0.9077188266011262  0.9687933308009844  0.2897389656039735  1.0000
  O   O1        1.0  0.017357504050856704  0.708516549782061  0.8254548186973665  1.0000
  O   O2        1.0  0.517358886341782  0.79148369893106  0.6745458708379813  1.0000
  O   O3        1.0  0.9826452763498995  0.29148396331913057  0.17454455642112518  1.0000
  O   O4        1.0  0.4826418464934576  0.2085179850854217  0.3254536898538234  1.0000
  O   O5        1.0  0.2178969077948949  0.9238262297232536  0.911812625580481  1.0000
  O   O6        1.0  0.7179137947561642  0.5761757496114227  0.5881935988584459  1.0000
  O   O7        1.0  0.782091539610491  0.0761766715715311  0.08818989771560841  1.0000
  O   O8        1.0  0.28208898562003537  0.4238236505407399  0.41180906196994727  1.0000
