data_image0
_chemical_formula_structural       Ag4H30C42S4N6O14
_chemical_formula_sum              "Ag4 H30 C42 S4 N6 O14"
_cell_length_a       8.241390080719455
_cell_length_b       10.913370153685063
_cell_length_c       12.082880431384478
_cell_angle_alpha    70.18108893423423
_cell_angle_beta     83.41382769362576
_cell_angle_gamma    82.6869827504043

_space_group_name_H-M_alt    "P 1"
_space_group_IT_number       1

loop_
  _space_group_symop_operation_xyz
  'x, y, z'

loop_
  _atom_site_type_symbol
  _atom_site_label
  _atom_site_symmetry_multiplicity
  _atom_site_fract_x
  _atom_site_fract_y
  _atom_site_fract_z
  _atom_site_occupancy
  Ag  Ag1       1.0  0.3466024372455863  0.0196974223235529  0.667319524248924  1.0000
  Ag  Ag2       1.0  0.653399019278133  0.98030300896032  0.3326794829366192  1.0000
  Ag  Ag3       1.0  0.15735812329963042  0.4035512412128028  0.4285134437409752  1.0000
  Ag  Ag4       1.0  0.8426408912795864  0.5964491309838706  0.5714865904091511  1.0000
  H   H1        1.0  0.8021807189331653  0.7122427639691934  0.0504073920658713  1.0000
  H   H2        1.0  0.1978160034779179  0.2877565711412302  0.9495939526809565  1.0000
  H   H3        1.0  0.8791732634400519  0.18756062898075504  0.5761800412426936  1.0000
  H   H4        1.0  0.12082938511835553  0.8124398090878345  0.42382218585995435  1.0000
  H   H5        1.0  0.1752813474905963  0.12969630856794365  0.4309972063674934  1.0000
  H   H6        1.0  0.8247176735191959  0.8703040686862663  0.5690019981383259  1.0000
  H   H7        1.0  0.4764551552115321  0.731301027607401  0.7882945717373887  1.0000
  H   H8        1.0  0.5235460081900386  0.2687013647321166  0.2117030385396035  1.0000
  H   H9        1.0  0.5481326340685015  0.0739545818189384  0.8438678568434169  1.0000
  H   H10       1.0  0.451860259573053  0.9260456300159134  0.1561368188289548  1.0000
  H   H11       1.0  0.43893734073562746  0.3804170752250401  0.7990881304124926  1.0000
  H   H12       1.0  0.5610610811687168  0.6195872140253941  0.20090993956485897  1.0000
  H   H13       1.0  0.8675725799531335  0.2061128337460474  0.9882819066405802  1.0000
  H   H14       1.0  0.13243251054976915  0.793887663409748  0.011719293497478167  1.0000
  H   H15       1.0  0.06663631622498654  0.9946947057984233  0.3317708022357451  1.0000
  H   H16       1.0  0.93336297861525  0.005303695227546296  0.6682322881115468  1.0000
  H   H17       1.0  0.9080393341564844  0.1017964920333227  0.15736222687417722  1.0000
  H   H18       1.0  0.09196027952818042  0.8981999681671269  0.8426389418044093  1.0000
  H   H19       1.0  0.3707675923417781  0.31098418721401805  0.6361008268570812  1.0000
  H   H20       1.0  0.6292358567973579  0.6890192371542271  0.3638963024675235  1.0000
  H   H21       1.0  0.7431557585515876  0.9546742532093405  0.9994649960066366  1.0000
  H   H22       1.0  0.256838665260787  0.04532403975728981  0.0005384889812063015  1.0000
  H   H23       1.0  0.5945956289962879  0.5566514205764223  0.7853162914692859  1.0000
  H   H24       1.0  0.4054107178469979  0.44334913393938524  0.2146798321427639  1.0000
  H   H25       1.0  0.9590143447505424  0.4724313872975899  0.19998785688336798  1.0000
  H   H26       1.0  0.0409848260356043  0.5275680119575626  0.8000116312545628  1.0000
  H   H27       1.0  0.150855181682175  0.44103705272813437  0.6385856246946202  1.0000
  H   H28       1.0  0.8491429146927987  0.558961336455596  0.36141507537987383  1.0000
  H   H29       1.0  0.2691297479500606  0.5512861695943699  0.568337016794537  1.0000
  H   H30       1.0  0.7308678926652662  0.44871514852899713  0.4316636620279155  1.0000
  C   C1        1.0  0.8203047630182995  0.2563575404948537  0.7243799370378524  1.0000
  C   C2        1.0  0.17969604913162135  0.7436389315478421  0.27562362191353873  1.0000
  C   C3        1.0  0.718326938636288  0.7673348538486097  0.9833937715851986  1.0000
  C   C4        1.0  0.2816733001304713  0.23266555042043544  0.016605334260482607  1.0000
  C   C5        1.0  0.9193480571356931  0.2978859653797059  0.1638260255567942  1.0000
  C   C6        1.0  0.0806509574435239  0.7021144068169746  0.8361740085933319  1.0000
  C   C7        1.0  0.7819413260337171  0.22433660026899815  0.6286708406252615  1.0000
  C   C8        1.0  0.21806041075101493  0.7756618598441777  0.3713312227574475  1.0000
  C   C9        1.0  0.1005110797109054  0.17470607630988877  0.3564335748244645  1.0000
  C   C10       1.0  0.8994902398975881  0.8252953430881079  0.6435634894403391  1.0000
  C   C11       1.0  0.6972855043363354  0.31689093516016  0.7859089442223703  1.0000
  C   C12       1.0  0.3027137969344693  0.6831074709233393  0.2140933164806141  1.0000
  C   C13       1.0  0.5384160027891696  0.7764469072734813  0.8374265180680921  1.0000
  C   C14       1.0  0.4615862093012881  0.22355647490733335  0.16257319884957866  1.0000
  C   C15       1.0  0.6459076594546859  0.7018707381808723  0.9227447136617144  1.0000
  C   C16       1.0  0.3540950276871371  0.29812973023290107  0.07725253557506313  1.0000
  C   C17       1.0  0.8298647754025765  0.36844583231707884  0.057368387592561  1.0000
  C   C18       1.0  0.17013301498910488  0.6315545078072377  0.9426325748620099  1.0000
  C   C19       1.0  0.5773104603332371  0.9684258066632623  0.8687629473324989  1.0000
  C   C20       1.0  0.42268458856123203  0.031576430371963206  0.13123847482243178  1.0000
  C   C21       1.0  0.5355686633291868  0.33465723276629694  0.7523722294295325  1.0000
  C   C22       1.0  0.4644303512500373  0.6653431394303837  0.24762780472058665  1.0000
  C   C23       1.0  0.6913141067310136  0.5602705153594343  0.9441818707800208  1.0000
  C   C24       1.0  0.30868828085808536  0.4397319090524476  0.0558148111925192  1.0000
  C   C25       1.0  0.8121797851569356  0.30523347643798365  0.9763207224476317  1.0000
  C   C26       1.0  0.18782288269317599  0.6947669768032015  0.023679015722080983  1.0000
  C   C27       1.0  0.041436154493162305  0.10018426694276879  0.2997969232812423  1.0000
  C   C28       1.0  0.9585642276193835  0.8998151542696889  0.7002032958408647  1.0000
  C   C29       1.0  0.9507598662118614  0.16137189996253912  0.20256229937343304  1.0000
  C   C30       1.0  0.04923957840473751  0.8386255230643795  0.7974410746059772  1.0000
  C   C31       1.0  0.4962801993262858  0.2970787661167336  0.6604553234390309  1.0000
  C   C32       1.0  0.5037224749543938  0.7029216921819811  0.3395435850863677  1.0000
  C   C33       1.0  0.6213924793479181  0.24494643052874215  0.5969579115554992  1.0000
  C   C34       1.0  0.3786092574368141  0.7550520295844266  0.40304415182720277  1.0000
  C   C35       1.0  0.6840512144046401  0.901961625625667  0.9555976785845883  1.0000
  C   C36       1.0  0.31594535823008135  0.09803868748381458  0.04440338253012038  1.0000
  C   C37       1.0  0.6607283903493624  0.5016831015788766  0.862835663233639  1.0000
  C   C38       1.0  0.33927232989932327  0.4983143939806496  0.13716014528682755  1.0000
  C   C39       1.0  0.7254552307641975  0.3726730452275007  0.8773826511443161  1.0000
  C   C40       1.0  0.2745452946941356  0.6273253929283626  0.12261868125421663  1.0000
  C   C41       1.0  0.9805607107093621  0.3662895683138103  0.22710287319423364  1.0000
  C   C42       1.0  0.019437398526754603  0.633708830984979  0.7728961675916394  1.0000
  S   S1        1.0  0.03145380392233222  0.21791523942973606  0.7582429815343588  1.0000
  S   S2        1.0  0.9685480697776258  0.7820822325693159  0.24176102476908304  1.0000
  S   S3        1.0  0.5826028953444933  0.2237717596056115  0.46325133029866816  1.0000
  S   S4        1.0  0.41739749319862085  0.7762276666643758  0.5367480591791249  1.0000
  N   N1        1.0  0.7723961540619088  0.4940177340810764  0.04062084543137697  1.0000
  N   N2        1.0  0.22760515268544887  0.505983675201854  0.9593778781220476  1.0000
  N   N3        1.0  0.07000130404275498  0.306392182314518  0.3206132073111831  1.0000
  N   N4        1.0  0.9299962125184892  0.6936101340380321  0.6793838693019153  1.0000
  N   N5        1.0  0.5042610350728083  0.9067014930424264  0.8109615558390074  1.0000
  N   N6        1.0  0.4957366184036547  0.0932998351959995  0.18903746369482374  1.0000
  O   O1        1.0  0.08653390355326002  0.33847863393398814  0.765896600123824  1.0000
  O   O2        1.0  0.9134641735300093  0.6615197400771465  0.2341065888836056  1.0000
  O   O3        1.0  0.035479401479200603  0.10895168530378638  0.868873808705004  1.0000
  O   O4        1.0  0.9645249334569571  0.8910458609550604  0.13112668170091962  1.0000
  O   O5        1.0  0.116716653218397  0.18460075665271353  0.6558664055085401  1.0000
  O   O6        1.0  0.8832846406678249  0.8154006425151579  0.3441339773335058  1.0000
  O   O7        1.0  0.4099811412307162  0.19416631405250226  0.4765123100541544  1.0000
  O   O8        1.0  0.590019091105468  0.8058340851590132  0.523487625435834  1.0000
  O   O9        1.0  0.7016071616509478  0.11659662468800042  0.4495821857222637  1.0000
  O   O10       1.0  0.2983932204615982  0.8834027965244502  0.5504180333998434  1.0000
  O   O11       1.0  0.608734190143089  0.3522870509632199  0.3735462349215696  1.0000
  O   O12       1.0  0.3912665172444534  0.6477104344812474  0.6264512328875183  1.0000
  O   O13       1.0  0.1856621416052063  0.49949160565192596  0.5576827717216588  1.0000
  O   O14       1.0  0.8143370163198114  0.5005077834881674  0.44231837570489324  1.0000
