data_image0
_chemical_formula_structural       Al2H12C20N4O14
_chemical_formula_sum              "Al2 H12 C20 N4 O14"
_cell_length_a       6.824346931268131
_cell_length_b       11.151835889924868
_cell_length_c       11.232422390626954
_cell_angle_alpha    77.95261102946557
_cell_angle_beta     71.23443764173119
_cell_angle_gamma    71.07452003032529

_space_group_name_H-M_alt    "P 1"
_space_group_IT_number       1

loop_
  _space_group_symop_operation_xyz
  'x, y, z'

loop_
  _atom_site_type_symbol
  _atom_site_label
  _atom_site_symmetry_multiplicity
  _atom_site_fract_x
  _atom_site_fract_y
  _atom_site_fract_z
  _atom_site_occupancy
  Al  Al1       1.0  0.49728273294016395  0.49320329806523927  0.5087008404019641  1.0000
  Al  Al2       1.0  0.9952205931346757  0.4980975491636027  0.508014182993456  1.0000
  H   H1        1.0  0.23766448966627968  0.37633902927075263  0.6414551945166522  1.0000
  H   H2        1.0  0.6991345998586668  0.6502772902648885  0.43370014681278946  1.0000
  H   H3        1.0  0.7715748576112987  0.4528757105920249  0.12460303300668579  1.0000
  H   H4        1.0  0.223621195760906  0.5331635066485131  0.8934397909158207  1.0000
  H   H5        1.0  0.26156538189348316  0.24440083907767723  0.3266599339257183  1.0000
  H   H6        1.0  0.4671239155602298  0.7773263219033876  0.30960722527606777  1.0000
  H   H7        1.0  0.7552033787875703  0.8744497875135333  0.5995744277381476  1.0000
  H   H8        1.0  0.6462057232044033  0.11089024556714826  0.5993493719202547  1.0000
  H   H9        1.0  0.5866371475741232  0.24719622618270162  0.1621825126536081  1.0000
  H   H10       1.0  0.7177928961700959  0.12159284092931698  0.07870833825964496  1.0000
  H   H11       1.0  0.8027868965317141  0.7993199368093681  0.1594413467003051  1.0000
  H   H12       1.0  0.8755134117468806  0.9336290890829129  0.1463200310679368  1.0000
  C   C1        1.0  0.8772000893065839  0.2713137528957573  0.49779079732844866  1.0000
  C   C2        1.0  0.6204073944242127  0.49802819592419906  0.7338615042647872  1.0000
  C   C3        1.0  0.1289723219860265  0.724542612262425  0.492607918783456  1.0000
  C   C4        1.0  0.3746055549880651  0.49015723818773427  0.28367263458698483  1.0000
  C   C5        1.0  0.557119700053299  0.49918714890996074  0.8749173542881009  1.0000
  C   C6        1.0  0.438065260273092  0.48741269323037517  0.14295226995277938  1.0000
  C   C7        1.0  0.7078459649571658  0.47858632615240987  0.942049416243975  1.0000
  C   C8        1.0  0.2874082266908362  0.5074870186944762  0.07577730900153766  1.0000
  C   C9        1.0  0.6527467736869427  0.47136983376491043  0.07290085710431533  1.0000
  C   C10       1.0  0.34268510448183076  0.5150800897469094  0.944946238132971  1.0000
  C   C11       1.0  0.95188081647985  0.13305063818810933  0.481175482754665  1.0000
  C   C12       1.0  0.16098558751016873  0.07284767036158257  0.4044753575645643  1.0000
  C   C13       1.0  0.8064190983631864  0.06204956971171779  0.5453424252315313  1.0000
  C   C14       1.0  0.30670124485777717  0.14181369225087784  0.32601065748295344  1.0000
  C   C15       1.0  0.4995857009004966  0.08409412743504419  0.24445920744274469  1.0000
  C   C16       1.0  0.07165775017564623  0.8663500059330286  0.4764898453354078  1.0000
  C   C17       1.0  0.8664168751978425  0.9300198440162  0.5443108026653433  1.0000
  C   C18       1.0  0.2204443533165732  0.9364521804007564  0.39945532699081104  1.0000
  C   C19       1.0  0.42056489729877483  0.8793360268026827  0.3157739872086864  1.0000
  C   C20       1.0  0.5604267341966606  0.9489885202265138  0.24037639133139513  1.0000
  N   N1        1.0  0.9329862027689092  0.474239621223546  0.8739216869271685  1.0000
  N   N2        1.0  0.0628106525649202  0.5091296102249669  0.1425830482249353  1.0000
  N   N3        1.0  0.643359215613451  0.15082000037704543  0.16622566988480963  1.0000
  N   N4        1.0  0.7535858426503669  0.896022960420225  0.15508240604957993  1.0000
  O   O1        1.0  0.6735417081621977  0.32424162675938095  0.524254003781273  1.0000
  O   O2        1.0  0.8206686445234511  0.4804458066844715  0.6797987220638788  1.0000
  O   O3        1.0  0.9774361362062368  0.6718597967381538  0.5148940330836069  1.0000
  O   O4        1.0  0.5232297672253099  0.4728942147091073  0.33479436513108846  1.0000
  O   O5        1.0  0.3262270106626418  0.6638798424497664  0.48518022223505136  1.0000
  O   O6        1.0  0.1734451603628814  0.5138609380393575  0.33684270569544583  1.0000
  O   O7        1.0  0.016536139636919307  0.3285275853271512  0.48938711233167703  1.0000
  O   O8        1.0  0.47220080928460123  0.5110501749252164  0.6835378317127336  1.0000
  O   O9        1.0  0.2452336979045314  0.43810602079131644  0.5663334973792047  1.0000
  O   O10       1.0  0.7417786051663813  0.5578762150299639  0.45244790259121703  1.0000
  O   O11       1.0  0.967760777155725  0.5796001042883316  0.8344116869215837  1.0000
  O   O12       1.0  0.06986267871423732  0.36920441234434515  0.8679995163435094  1.0000
  O   O13       1.0  0.9211171160784776  0.6117413694857914  0.14098067353136648  1.0000
  O   O14       1.0  0.03184826516578458  0.4034146151856745  0.18610430380773121  1.0000
