data_image0
_chemical_formula_structural       K2H16Au2C24N8
_chemical_formula_sum              "K2 H16 Au2 C24 N8"
_cell_length_a       3.7519243672759157
_cell_length_b       9.15396910298755
_cell_length_c       18.84436694263848
_cell_angle_alpha    90.00081413041734
_cell_angle_beta     90.00030958636829
_cell_angle_gamma    100.84047603208687

_space_group_name_H-M_alt    "P 1"
_space_group_IT_number       1

loop_
  _space_group_symop_operation_xyz
  'x, y, z'

loop_
  _atom_site_type_symbol
  _atom_site_label
  _atom_site_symmetry_multiplicity
  _atom_site_fract_x
  _atom_site_fract_y
  _atom_site_fract_z
  _atom_site_occupancy
  K   K1        1.0  0.7567667354608502  0.24125998076903707  0.49225710294263064  1.0000
  K   K2        1.0  0.24326308851061654  0.758740025682798  0.9922546841296408  1.0000
  H   H1        1.0  0.3700448524287837  0.8578230098252676  0.45161236251497877  1.0000
  H   H2        1.0  0.6299534887759038  0.14217462778721313  0.951607226989793  1.0000
  H   H3        1.0  0.5682217429972811  0.9217349720831725  0.5760493469201293  1.0000
  H   H4        1.0  0.43178609788418487  0.07826366919874062  0.07604339160573659  1.0000
  H   H5        1.0  0.6377098069881484  0.7162219908784239  0.6598503849108113  1.0000
  H   H6        1.0  0.3622828766224444  0.28377387334903403  0.15984734715944166  1.0000
  H   H7        1.0  0.48098889692833086  0.45240920299900034  0.6158420814454074  1.0000
  H   H8        1.0  0.5190046085408611  0.5475907816697403  0.11584155045203907  1.0000
  H   H9        1.0  0.5411306817712429  0.7792832772718159  0.346796251707289  1.0000
  H   H10       1.0  0.4588484265742991  0.220713193589866  0.8467919921313791  1.0000
  H   H11       1.0  0.36279059268516534  0.7011406916154359  0.2233271583002363  1.0000
  H   H12       1.0  0.6371828790948298  0.29885619255779977  0.7233231006034657  1.0000
  H   H13       1.0  0.9456616177389348  0.4542698209118542  0.20399088908855129  1.0000
  H   H14       1.0  0.054309975879427055  0.5457297737130348  0.7039889277627152  1.0000
  H   H15       1.0  0.7316309298748109  0.29778943037988637  0.31020606146575597  1.0000
  H   H16       1.0  0.26833546830503263  0.7022103253006552  0.8102064686879442  1.0000
  Au  Au1       1.0  0.99575991416755  0.015303735326291699  0.7482571050703724  1.0000
  Au  Au2       1.0  0.004301322707064646  0.984702654137749  0.24826110665055978  1.0000
  C   C1        1.0  0.1332479655277083  0.09812741607089492  0.6534099952275838  1.0000
  C   C2        1.0  0.8668316302681376  0.9018947424707239  0.15340643400337933  1.0000
  C   C3        1.0  0.8685841266131149  0.9456766840824075  0.8457386771121591  1.0000
  C   C4        1.0  0.1314720820486599  0.05433069279633431  0.34574814306979806  1.0000
  C   C5        1.0  0.3349162086683037  0.6207053822187734  0.46794585770707886  1.0000
  C   C6        1.0  0.6650711029860261  0.37929059267094106  0.9679429109572691  1.0000
  C   C7        1.0  0.40642094683660457  0.7706023805072207  0.48878765069248675  1.0000
  C   C8        1.0  0.5935725467342435  0.22939426326423273  0.9887846620530067  1.0000
  C   C9        1.0  0.5146822790543625  0.8065051729464233  0.5583056903287653  1.0000
  C   C10       1.0  0.4853136565750376  0.19349180214748435  0.05830111214572748  1.0000
  C   C11       1.0  0.5489492040766778  0.692313459990139  0.6052636495474246  1.0000
  C   C12       1.0  0.45105079945495413  0.3076839335651371  0.10526087409631657  1.0000
  C   C13       1.0  0.4648904536672944  0.5461208050136507  0.5806499127273523  1.0000
  C   C14       1.0  0.5351111992367591  0.45387577595828793  0.08064875987612649  1.0000
  C   C15       1.0  0.2289056510553849  0.5787077266031632  0.3935223538172039  1.0000
  C   C16       1.0  0.7710769891033706  0.42128804286795696  0.8935192814467284  1.0000
  C   C17       1.0  0.3580692784911649  0.6738850595775292  0.3370528251584872  1.0000
  C   C18       1.0  0.6419174153909067  0.3261110720451513  0.8370484281608268  1.0000
  C   C19       1.0  0.26015137366651697  0.6296309117665546  0.2679210851278596  1.0000
  C   C20       1.0  0.7398319195830824  0.3703674122288235  0.7679186915436061  1.0000
  C   C21       1.0  0.03177608407758479  0.49281520770684767  0.2570684412927093  1.0000
  C   C22       1.0  0.9681993026644945  0.5071838934439655  0.7570656446918774  1.0000
  C   C23       1.0  0.9137105395388117  0.4052858401313416  0.3162115075579166  1.0000
  C   C24       1.0  0.08625610574726754  0.5947141121637999  0.8162115083134438  1.0000
  N   N1        1.0  0.22142408396628346  0.15467591138125414  0.5986877836384464  1.0000
  N   N2        1.0  0.7786298861669962  0.8453344924633514  0.09868320720907058  1.0000
  N   N3        1.0  0.797530155281535  0.9107819654895335  0.9046993740413781  1.0000
  N   N4        1.0  0.20251306257354426  0.08922292648784952  0.40470756553450116  1.0000
  N   N5        1.0  0.3592820055611838  0.5093583310724696  0.513865314482352  1.0000
  N   N6        1.0  0.6407019793988623  0.4906383283020974  0.013863999812201697  1.0000
  N   N7        1.0  0.010268762908609173  0.44554441141530543  0.3828411318911832  1.0000
  N   N8        1.0  0.9897038422197894  0.5544532598526432  0.8828397433524199  1.0000
