data_image0
_chemical_formula_structural       Zn2H52C60N8O8
_chemical_formula_sum              "Zn2 H52 C60 N8 O8"
_cell_length_a       9.86014171790946
_cell_length_b       12.282561142387994
_cell_length_c       12.493
_cell_angle_alpha    61.13364550996982
_cell_angle_beta     85.90796920876254
_cell_angle_gamma    88.80363380745517

_space_group_name_H-M_alt    "P 1"
_space_group_IT_number       1

loop_
  _space_group_symop_operation_xyz
  'x, y, z'

loop_
  _atom_site_type_symbol
  _atom_site_label
  _atom_site_symmetry_multiplicity
  _atom_site_fract_x
  _atom_site_fract_y
  _atom_site_fract_z
  _atom_site_occupancy
  Zn  Zn1       1.0  0.6785191665119754  0.2912451387628465  0.0025240736929248156  1.0000
  Zn  Zn2       1.0  0.32148121026391857  0.7087555768954843  0.9974758055441484  1.0000
  H   H1        1.0  0.1797591387439184  0.465217894028541  0.8779732834945477  1.0000
  H   H2        1.0  0.8202360909576212  0.5347791024751629  0.12202865087166975  1.0000
  H   H3        1.0  0.9286077321130575  0.4265005646393121  0.8051136281380736  1.0000
  H   H4        1.0  0.071389641728878  0.5735029403849836  0.19488189449748464  1.0000
  H   H5        1.0  0.9441132187697789  0.3483871601425932  0.2881332245325154  1.0000
  H   H6        1.0  0.055886109633320295  0.6516116959384277  0.7118643945787113  1.0000
  H   H7        1.0  0.8731961761039884  0.20189895752321968  0.505401980518819  1.0000
  H   H8        1.0  0.1268092371583762  0.7980989687691462  0.4945973381003841  1.0000
  H   H9        1.0  0.796781475939312  0.9869613595584639  0.5659107731994056  1.0000
  H   H10       1.0  0.20321988601629926  0.013037496522557  0.4340899331749527  1.0000
  H   H11       1.0  0.790796691892808  0.9183810781430211  0.40901944445835176  1.0000
  H   H12       1.0  0.20920166712883764  0.0816205673039576  0.5909793066592428  1.0000
  H   H13       1.0  0.8606170699237694  0.0653678616118825  0.19110674554009682  1.0000
  H   H14       1.0  0.1393812575013413  0.9346319242577862  0.8088912890832063  1.0000
  H   H15       1.0  0.44544155185173645  0.9803784558799791  0.8191061156396912  1.0000
  H   H16       1.0  0.5545608742749407  0.0196231895670067  0.18089400731464172  1.0000
  H   H17       1.0  0.37141890744418754  0.1852501618640474  0.851415363763387  1.0000
  H   H18       1.0  0.6285825177045011  0.8147524133715932  0.1485851747030296  1.0000
  H   H19       1.0  0.9740368801914839  0.9227389975697234  0.10622748664690122  1.0000
  H   H20       1.0  0.025963480786138894  0.0772607882999452  0.8937704334465266  1.0000
  H   H21       1.0  0.837971418140711  0.781965276024927  0.29654067755707564  1.0000
  H   H22       1.0  0.16203197736741257  0.218033580056094  0.7034591138391448  1.0000
  H   H23       1.0  0.9507599817000737  0.6116940093953929  0.4707435742115393  1.0000
  H   H24       1.0  0.049241411852079885  0.3883067062629308  0.5292546468640966  1.0000
  H   H25       1.0  0.20087138754276876  0.582560941463484  0.4519214480345043  1.0000
  H   H26       1.0  0.7991299744128425  0.4174379146175369  0.5480768569950955  1.0000
  H   H27       1.0  0.3374675783641337  0.723632195377931  0.25974900143368984  1.0000
  H   H28       1.0  0.6625348319642723  0.2763685202803927  0.7402483619287495  1.0000
  H   H29       1.0  0.1610531129472861  0.3765699840689365  0.1941600278334903  1.0000
  H   H30       1.0  0.8389482964031314  0.6234316613780493  0.8058377510410255  1.0000
  H   H31       1.0  0.2731938972063118  0.40592341191212  0.06665198275769782  1.0000
  H   H32       1.0  0.7268074647492996  0.5940754441689009  0.9333463222719021  1.0000
  H   H33       1.0  0.15912308494150545  0.1492822175281034  0.262018055555302  1.0000
  H   H34       1.0  0.8408762592598649  0.8507175683415653  0.7379823231478185  1.0000
  H   H35       1.0  0.3218893462355439  0.2104223301250059  0.2559128985339073  1.0000
  H   H36       1.0  0.6781099979658193  0.7895774557446628  0.7440890810657167  1.0000
  H   H37       1.0  0.3784968628497509  0.21715585956562927  0.05104803155884954  1.0000
  H   H38       1.0  0.6215065010618303  0.7828411369380815  0.9489550455843486  1.0000
  H   H39       1.0  0.35424616994017544  0.0681172466651745  0.18046905032927904  1.0000
  H   H40       1.0  0.6457521574849351  0.9318825392045014  0.8195329865352862  1.0000
  H   H41       1.0  0.11238387237877129  0.064604505126006  0.1251849122690203  1.0000
  H   H42       1.0  0.8876195547258873  0.9353962105323249  0.8748147951732296  1.0000
  H   H43       1.0  0.1526142941374928  0.2002430039283922  0.9831323613992566  1.0000
  H   H44       1.0  0.847388084594371  0.7997558521526287  0.016870689054911812  1.0000
  H   H45       1.0  0.4423802874376506  0.8723797844293272  0.6082501234252149  1.0000
  H   H46       1.0  0.5576180715840025  0.1276218610176585  0.39175182948537923  1.0000
  H   H47       1.0  0.5196412296200208  0.9102100954415348  0.3984757628366112  1.0000
  H   H48       1.0  0.4803581145813495  0.0897896904281339  0.6015262167630198  1.0000
  H   H49       1.0  0.5924889329427357  0.7291160888660215  0.36761082248749954  1.0000
  H   H50       1.0  0.4075104112586345  0.2708836970036472  0.6323903566638762  1.0000
  H   H51       1.0  0.59587052145865  0.5185226776284679  0.5460108624879471  1.0000
  H   H52       1.0  0.40412882274271306  0.4814771082412008  0.453990316663429  1.0000
  C   C1        1.0  0.9532657839323161  0.2984528604175907  0.09640682677073195  1.0000
  C   C2        1.0  0.0467315109182707  0.7015459956634231  0.9035925077668808  1.0000
  C   C3        1.0  0.08680231621201528  0.4154249221791275  0.9288897143517191  1.0000
  C   C4        1.0  0.9131959164234829  0.5845692849586115  0.07111177392651065  1.0000
  C   C5        1.0  0.9640701760868565  0.3948645056477247  0.8955233376282834  1.0000
  C   C6        1.0  0.035926086189206785  0.6051334206446342  0.10447649637538355  1.0000
  C   C7        1.0  0.9082957456398758  0.2161079877512719  0.22528506746882473  1.0000
  C   C8        1.0  0.09170458374120469  0.783889938541094  0.7747121361303259  1.0000
  C   C9        1.0  0.9119828009300832  0.2538211453929335  0.3147472215664493  1.0000
  C   C10       1.0  0.088014509718775  0.7461786404767424  0.6852492694252988  1.0000
  C   C11       1.0  0.8717794514322106  0.1715385685665041  0.43668531443105263  1.0000
  C   C12       1.0  0.12821992436569468  0.8284630768804746  0.5633109780768494  1.0000
  C   C13       1.0  0.8282961558911591  0.0510277311834599  0.47065312262743225  1.0000
  C   C14       1.0  0.1717061912441622  0.948969265320251  0.529348410884204  1.0000
  C   C15       1.0  0.8244086585448115  0.012588408602120202  0.38246823754806064  1.0000
  C   C16       1.0  0.1755896846785703  0.9874123070562105  0.6175309557706471  1.0000
  C   C17       1.0  0.8635107603664025  0.0948663364852678  0.2603518377985878  1.0000
  C   C18       1.0  0.1364855177079249  0.905132519595746  0.739646753555718  1.0000
  C   C19       1.0  0.24630201514602845  0.9156995676615622  0.05774678224894813  1.0000
  C   C20       1.0  0.7536973448536058  0.0843011479967686  0.9422507529083077  1.0000
  C   C21       1.0  0.3817436121348264  0.9855871319261452  0.8906303927970427  1.0000
  C   C22       1.0  0.6182567646410673  0.0144135837321855  0.10936868599178244  1.0000
  C   C23       1.0  0.34189064372397127  0.0873462058423939  0.90225907846731  1.0000
  C   C24       1.0  0.6581138159552109  0.9126554396045918  0.09774092995714784  1.0000
  C   C25       1.0  0.16500657652322562  0.8332319628927608  0.17103201581561225  1.0000
  C   C26       1.0  0.8349927834764086  0.1667687527655701  0.8289663197898992  1.0000
  C   C27       1.0  0.024217054862894792  0.8491155424887395  0.18252058884748135  1.0000
  C   C28       1.0  0.9757843070927165  0.1508833135922814  0.8174793170786216  1.0000
  C   C29       1.0  0.9473954966641287  0.7694968101593246  0.2894872749822782  1.0000
  C   C30       1.0  0.052606897866006384  0.2305029757103512  0.7105113310295224  1.0000
  C   C31       1.0  0.010709588094826496  0.6731465309804321  0.38653764462914353  1.0000
  C   C32       1.0  0.9892917896590487  0.3268532548892438  0.6134610186475982  1.0000
  C   C33       1.0  0.1507909102392944  0.6567534272014228  0.3758142668280513  1.0000
  C   C34       1.0  0.8492094665365996  0.3432472884569009  0.6241824106160154  1.0000
  C   C35       1.0  0.22815301150919953  0.736082995259089  0.26865525757247616  1.0000
  C   C36       1.0  0.7718483978412252  0.2639186501878967  0.7313433217503019  1.0000
  C   C37       1.0  0.1926278632854661  0.3426271194239163  0.1297505515766986  1.0000
  C   C38       1.0  0.8073724818938854  0.6573717366571046  0.8702494116143457  1.0000
  C   C39       1.0  0.24233711006633737  0.20954460963454116  0.19911693823503643  1.0000
  C   C40       1.0  0.7576642360910028  0.7904533166578176  0.8008826094439317  1.0000
  C   C41       1.0  0.3017518323900105  0.1537972712375293  0.12035735091806292  1.0000
  C   C42       1.0  0.6982475118113598  0.8462025146321466  0.8796422273368095  1.0000
  C   C43       1.0  0.19587643917696337  0.11846065339843649  0.05851293700865061  1.0000
  C   C44       1.0  0.8041269247346179  0.8815363431052744  0.9414861378932926  1.0000
  C   C45       1.0  0.5215023418482616  0.5754229539578759  0.6774203226832612  1.0000
  C   C46       1.0  0.4785001000766798  0.4245796212777648  0.32258095896646927  1.0000
  C   C47       1.0  0.4765861111360578  0.6761274334088512  0.6943724616295341  1.0000
  C   C48       1.0  0.5234132488635765  0.3238732822494796  0.3056306766654799  1.0000
  C   C49       1.0  0.47850851860623317  0.7959706825375009  0.593425631830158  1.0000
  C   C50       1.0  0.521486790086655  0.20403096290948503  0.406576492875253  1.0000
  C   C51       1.0  0.5206283525403278  0.8163693158428984  0.4761205683544886  1.0000
  C   C52       1.0  0.47936897390680133  0.1836313998154253  0.5238826844704079  1.0000
  C   C53       1.0  0.5622885143318399  0.7161827286728482  0.4587914249480606  1.0000
  C   C54       1.0  0.4377077953390298  0.2838179869854827  0.5412102842452668  1.0000
  C   C55       1.0  0.5632814805433242  0.596774620634811  0.5593475156939576  1.0000
  C   C56       1.0  0.4367168626800577  0.4032260950235198  0.44065327852124625  1.0000
  C   C57       1.0  0.5340622507270183  0.4453687658183298  0.7830743670129934  1.0000
  C   C58       1.0  0.46593815764541074  0.5546338094173038  0.21692622871835715  1.0000
  C   C59       1.0  0.41565486682601716  0.6544103597904396  0.8170120086762935  1.0000
  C   C60       1.0  0.5843404892616774  0.345594075022511  0.18298558763277845  1.0000
  N   N1        1.0  0.8818714996065821  0.3226096994671224  0.9998401414812362  1.0000
  N   N2        1.0  0.11812582684054719  0.6773910161912013  0.00015990955066068186  1.0000
  N   N3        1.0  0.07827715181690559  0.3549551872025916  0.05546471795000942  1.0000
  N   N4        1.0  0.9217211124151204  0.6450408795124645  0.9445366863742493  1.0000
  N   N5        1.0  0.2551144135480071  0.0421380218515353  0.006951639663427006  1.0000
  N   N6        1.0  0.7448890135566585  0.9578626938067883  0.9930472673305746  1.0000
  N   N7        1.0  0.3229670665482587  0.8796823445268983  0.9875520123773429  1.0000
  N   N8        1.0  0.6770353595784115  0.12031930092008741  0.012448110576990211  1.0000
  O   O1        1.0  0.6293157195578586  0.4372805343071562  0.8527261090102699  1.0000
  O   O2        1.0  0.37068673816536085  0.5627229707171395  0.14727232909358898  1.0000
  O   O3        1.0  0.46445838415162644  0.3577947617554287  0.7907470804894245  1.0000
  O   O4        1.0  0.5355429778039847  0.6422040943255922  0.20925842857443663  1.0000
  O   O5        1.0  0.4226941326877521  0.7468722628134828  0.8399034077991915  1.0000
  O   O6        1.0  0.5773041947373584  0.253127523056186  0.16009942951362893  1.0000
  O   O7        1.0  0.3578165814159888  0.5526812532414809  0.887999872643988  1.0000
  O   O8        1.0  0.6421817144125866  0.447316673050878  0.11200304862279609  1.0000
