data_image0
_chemical_formula_structural       Hg2H22C18S2Br4
_chemical_formula_sum              "Hg2 H22 C18 S2 Br4"
_cell_length_a       7.811201875227562
_cell_length_b       8.747651954748601
_cell_length_c       9.622842352670222
_cell_angle_alpha    68.98401434118816
_cell_angle_beta     74.2142939528608
_cell_angle_gamma    89.48874074944185

_space_group_name_H-M_alt    "P 1"
_space_group_IT_number       1

loop_
  _space_group_symop_operation_xyz
  'x, y, z'

loop_
  _atom_site_type_symbol
  _atom_site_label
  _atom_site_symmetry_multiplicity
  _atom_site_fract_x
  _atom_site_fract_y
  _atom_site_fract_z
  _atom_site_occupancy
  Hg  Hg1       1.0  0.7250151904890247  0.9833445240193867  0.5542445909389855  1.0000
  Hg  Hg2       1.0  0.2749827696960807  0.016655639556482495  0.4457479999689654  1.0000
  H   H1        1.0  0.4529311240102062  0.3288661216438911  0.5624423027258986  1.0000
  H   H2        1.0  0.5470615920527351  0.6711215630320738  0.4375668294668101  1.0000
  H   H3        1.0  0.1442259136178805  0.40392703704800675  0.6364936686248941  1.0000
  H   H4        1.0  0.8557733261842629  0.5960458801920795  0.3635302150175477  1.0000
  H   H5        1.0  0.025558540879949  0.44918071492605083  0.8854757916152991  1.0000
  H   H6        1.0  0.9744384193679  0.5508253900820251  0.11453382256826215  1.0000
  H   H7        1.0  0.21694148754093592  0.4105522648023694  0.06374123577057841  1.0000
  H   H8        1.0  0.7830704248394369  0.58947132166859  0.9362533560003146  1.0000
  H   H9        1.0  0.5262430395174107  0.3381307954796783  0.987948147011757  1.0000
  H   H10       1.0  0.47376393624835345  0.6618692360228452  0.01206853658032963  1.0000
  H   H11       1.0  0.7808092286092786  0.32126661915739146  0.7864287740362814  1.0000
  H   H12       1.0  0.21920318819117307  0.6787324501043482  0.2135683445082607  1.0000
  H   H13       1.0  0.7635342865532666  0.33204398280563646  0.6021415637803145  1.0000
  H   H14       1.0  0.2364639573343014  0.6679598295014628  0.39785395797383677  1.0000
  H   H15       1.0  0.93018032022475  0.8969278636673295  0.8239792951334337  1.0000
  H   H16       1.0  0.0698147166009235  0.10306863416926858  0.17600885726960064  1.0000
  H   H17       1.0  0.007021931916071398  0.10928209560240279  0.7312171714502045  1.0000
  H   H18       1.0  0.9929712667731894  0.8907082734815218  0.2687691752439675  1.0000
  H   H19       1.0  0.8012635753197088  0.9358716465792368  0.07892129724214675  1.0000
  H   H20       1.0  0.19874408098188925  0.06413237427937449  0.921064866745205  1.0000
  H   H21       1.0  0.885866706809324  0.14494648506486388  0.9895946270368725  1.0000
  H   H22       1.0  0.1141418130180512  0.8550514772717434  0.010386012267382267  1.0000
  C   C1        1.0  0.4014802455775879  0.34748937270482116  0.6720917481585718  1.0000
  C   C2        1.0  0.5985102127248184  0.6525042981219682  0.3279284268474356  1.0000
  C   C3        1.0  0.22723732557563645  0.38971395197621206  0.7141834013326404  1.0000
  C   C4        1.0  0.772746237480824  0.6102760169547139  0.28583111900697844  1.0000
  C   C5        1.0  0.160639733368491  0.4136895585256966  0.8541909613132578  1.0000
  C   C6        1.0  0.839372497923492  0.5863082164324422  0.14581284601088387  1.0000
  C   C7        1.0  0.26809078039497797  0.3944682456204802  0.9529464838237872  1.0000
  C   C8        1.0  0.7319080799944969  0.6055440413629043  0.04705970943567916  1.0000
  C   C9        1.0  0.44226595176760247  0.3530220951186891  0.910711117544139  1.0000
  C   C10       1.0  0.5577190065205927  0.6469826922722317  0.08929317432187403  1.0000
  C   C11       1.0  0.5108815411544966  0.3303205928073539  0.7695920188681246  1.0000
  C   C12       1.0  0.4891179109521673  0.6696831322030262  0.23041366465470497  1.0000
  C   C13       1.0  0.6971982410159113  0.28245642956166966  0.7276403261337593  1.0000
  C   C14       1.0  0.30280074238700655  0.717541217778162  0.2723601242032033  1.0000
  C   C15       1.0  0.9065899925578763  0.018933431637727  0.8295367994009766  1.0000
  C   C16       1.0  0.0934101881846345  0.9810607138537363  0.17044788467344332  1.0000
  C   C17       1.0  0.9098590297121164  0.022256246223136593  0.9855727461217542  1.0000
  C   C18       1.0  0.090142952470849  0.9777428614517162  0.014407888522036652  1.0000
  S   S1        1.0  0.6885904867760433  0.056419479638947195  0.7982356341203741  1.0000
  S   S2        1.0  0.3114120737087163  0.9435733246897867  0.20176351835191758  1.0000
  Br  Br1       1.0  0.6477797071210605  0.172629238341095  0.30690849085954147  1.0000
  Br  Br2       1.0  0.3521934951996286  0.827378982866037  0.6931055366341639  1.0000
  Br  Br3       1.0  0.9111918917905371  0.7303691984017248  0.5956391976265679  1.0000
  Br  Br4       1.0  0.08882875348238882  0.2696483379932388  0.4043585737437141  1.0000
