data_image0
_chemical_formula_structural       Ni3H48C72N30
_chemical_formula_sum              "Ni3 H48 C72 N30"
_cell_length_a       9.063466976399638
_cell_length_b       15.882175491136413
_cell_length_c       15.930995123101077
_cell_angle_alpha    73.21017517839591
_cell_angle_beta     73.8168462450354
_cell_angle_gamma    76.03711759523506

_space_group_name_H-M_alt    "P 1"
_space_group_IT_number       1

loop_
  _space_group_symop_operation_xyz
  'x, y, z'

loop_
  _atom_site_type_symbol
  _atom_site_label
  _atom_site_symmetry_multiplicity
  _atom_site_fract_x
  _atom_site_fract_y
  _atom_site_fract_z
  _atom_site_occupancy
  Ni  Ni1       1.0  0.5000003759564038  6.234483790996863e-07  0.49999963533685576  1.0000
  Ni  Ni2       1.0  0.49999991743891314  0.49999996882727515  0.49999986914882993  1.0000
  Ni  Ni3       1.0  2.828981136530394e-08  0.9999993559389393  7.566664451719205e-07  1.0000
  H   H1        1.0  0.4748846081829612  0.2093692014380366  0.44216715085786246  1.0000
  H   H2        1.0  0.66493580585  0.3152490748434289  0.3626327193845496  1.0000
  H   H3        1.0  0.9476454648302945  0.25191483294197065  0.31322028169010707  1.0000
  H   H4        1.0  0.028885264432553008  0.08332299845876887  0.3454840431650296  1.0000
  H   H5        1.0  0.14710529681665455  0.5265585110286254  0.5369272625796171  1.0000
  H   H6        1.0  0.9203823223121929  0.6496152275040855  0.5200756643252616  1.0000
  H   H7        1.0  0.24623238619337676  0.8316435283567643  0.3931253074516261  1.0000
  H   H8        1.0  0.46095573693192887  0.7007237810684757  0.41285100876490316  1.0000
  H   H9        1.0  0.08668114497563546  0.9058189267798226  0.836462356113131  1.0000
  H   H10       1.0  0.31995693340322595  0.8022436391914385  0.7710345902180366  1.0000
  H   H11       1.0  0.5530203674825813  0.7562316246828542  0.8407297605755344  1.0000
  H   H12       1.0  0.543836379305844  0.8162044630212223  0.9731174623789511  1.0000
  H   H13       1.0  0.6094653144805874  0.8764560123447964  0.3716326507160517  1.0000
  H   H14       1.0  0.5389767612198922  0.8607007472482023  0.23629865811882658  1.0000
  H   H15       1.0  0.22880045545679908  0.1132024393256188  0.23363541749274921  1.0000
  H   H16       1.0  0.31355829157817544  0.12023011192599849  0.3679744042983727  1.0000
  H   H17       1.0  0.31167778505178495  0.3590658440534682  0.4889161349592043  1.0000
  H   H18       1.0  0.26096136008025894  0.3121836087273167  0.3634793348771764  1.0000
  H   H19       1.0  0.38184983432317676  0.38408587234150093  0.2029423480004552  1.0000
  H   H20       1.0  0.5534328202797879  0.49708551842144993  0.17650586857951103  1.0000
  H   H21       1.0  0.9773755769704096  0.9059102590170552  0.2040826770029014  1.0000
  H   H22       1.0  0.8790879017380392  0.7719210081004136  0.31245022378811876  1.0000
  H   H23       1.0  0.7622865231194565  0.7147216102707644  0.0924844269005902  1.0000
  H   H24       1.0  0.866707264397256  0.8508694418459938  0.9923381084473276  1.0000
  H   H25       1.0  0.5251152294888469  0.7906307398788215  0.5578313305343058  1.0000
  H   H26       1.0  0.3350665325213953  0.6847501966111835  0.6373655588042765  1.0000
  H   H27       1.0  0.05235707176881728  0.7480837650568971  0.6867800403960229  1.0000
  H   H28       1.0  0.9711151721133647  0.9166749279843317  0.6545186845608127  1.0000
  H   H29       1.0  0.8528968391360648  0.4734414283882629  0.4630708570701572  1.0000
  H   H30       1.0  0.07961867008800987  0.3503847201874065  0.479920122384712  1.0000
  H   H31       1.0  0.753766095728338  0.1683570763788964  0.6068750816309246  1.0000
  H   H32       1.0  0.5390438941302378  0.2992768227171966  0.5871491994464577  1.0000
  H   H33       1.0  0.9133196352269909  0.09418167605586801  0.16353767122702578  1.0000
  H   H34       1.0  0.6800413474967968  0.197757635337652  0.22896501187271662  1.0000
  H   H35       1.0  0.44698041411703554  0.2437689799839902  0.15926963831186922  1.0000
  H   H36       1.0  0.456165956271583  0.18379480477108248  0.026882072715373823  1.0000
  H   H37       1.0  0.3905364124438151  0.12354525750318147  0.6283670372138488  1.0000
  H   H38       1.0  0.4610247632858347  0.1393011905620583  0.7637008712720074  1.0000
  H   H39       1.0  0.7711982274866004  0.8867974956166121  0.7663657585816207  1.0000
  H   H40       1.0  0.6864390426000639  0.8797704955907975  0.6320255372026293  1.0000
  H   H41       1.0  0.6883220456350897  0.6409340881076205  0.5110854886967073  1.0000
  H   H42       1.0  0.7390386702313236  0.6878156518091885  0.6365237042232933  1.0000
  H   H43       1.0  0.6181444544770754  0.615913398438387  0.7970597100977699  1.0000
  H   H44       1.0  0.44655991733662154  0.5029150928952858  0.8234947964062939  1.0000
  H   H45       1.0  0.02262425651043998  0.0940896768063411  0.7959176897475186  1.0000
  H   H46       1.0  0.12091098781499453  0.22807826437299633  0.6875492254670589  1.0000
  H   H47       1.0  0.23771310933970105  0.2852789953460615  0.9075151528580178  1.0000
  H   H48       1.0  0.13329331478368542  0.14913183078313344  0.0076611319010168955  1.0000
  C   C1        1.0  0.5987856743538487  0.1853386350154693  0.418407455883937  1.0000
  C   C2        1.0  0.704814063947218  0.24347758146706167  0.37428893265305146  1.0000
  C   C3        1.0  0.8622374792540484  0.2078509822279244  0.3469869830729948  1.0000
  C   C4        1.0  0.9083734010427588  0.11569186089774058  0.3641619914293059  1.0000
  C   C5        1.0  0.795109834986768  0.0617287347319788  0.4079579944437341  1.0000
  C   C6        1.0  0.8321614940182085  0.9651632022347486  0.42981927046518803  1.0000
  C   C7        1.0  0.94033892595359  0.8307730585499655  0.4523900448450745  1.0000
  C   C8        1.0  0.16419891090239244  0.5952370429861203  0.5048358820281464  1.0000
  C   C9        1.0  0.03793865593026875  0.6644158144881799  0.4959705815322834  1.0000
  C   C10       1.0  0.06395515813471059  0.7524894716015708  0.4570388382059463  1.0000
  C   C11       1.0  0.2200473528270876  0.7647452710463509  0.42462189271078193  1.0000
  C   C12       1.0  0.3392737578095292  0.692085733999903  0.43582502703186055  1.0000
  C   C13       1.0  0.1912416461104626  0.8837961981257295  0.8639702039935813  1.0000
  C   C14       1.0  0.3206392023455108  0.8260972242595487  0.8284638093440291  1.0000
  C   C15       1.0  0.4495988382909672  0.8004912921883973  0.8676786830627988  1.0000
  C   C16       1.0  0.4461109421336146  0.8329398980010866  0.9405672985398466  1.0000
  C   C17       1.0  0.3123543509599217  0.8907268124641872  0.9723223139769955  1.0000
  C   C18       1.0  0.29605722855033895  0.930287191397987  0.0464322206366106  1.0000
  C   C19       1.0  0.3187072397326459  0.9746307087235024  0.1528558306533937  1.0000
  C   C20       1.0  0.5256237004398725  0.9276554462244632  0.3389998472633592  1.0000
  C   C21       1.0  0.48620659776009484  0.9188410878527546  0.2642233204103447  1.0000
  C   C22       1.0  0.3735329598465356  0.9845921151778113  0.2260797352649745  1.0000
  C   C23       1.0  0.3125953395267302  0.059246822129488  0.2632518448647687  1.0000
  C   C24       1.0  0.35977425854866857  0.06346770641549429  0.33719054003710613  1.0000
  C   C25       1.0  0.3609504193707664  0.38820066155004435  0.41830623981606846  1.0000
  C   C26       1.0  0.33274664587085573  0.36312054138170413  0.3478955920106443  1.0000
  C   C27       1.0  0.40144276285845143  0.4022956720419798  0.2594492049349739  1.0000
  C   C28       1.0  0.49652191541061086  0.4645768710947138  0.24393992211480509  1.0000
  C   C29       1.0  0.5198958102018594  0.4862564383961043  0.317955184825962  1.0000
  C   C30       1.0  0.6148159221904949  0.5507994180415706  0.30989218100002347  1.0000
  C   C31       1.0  0.7411679050350272  0.6557606035869766  0.2684702142993913  1.0000
  C   C32       1.0  0.9293223951438848  0.8615897683886614  0.1817194552445612  1.0000
  C   C33       1.0  0.8749953356139458  0.7866672609699492  0.24187407236166775  1.0000
  C   C34       1.0  0.8122548197528302  0.7318363148472926  0.2106911095986774  1.0000
  C   C35       1.0  0.8114118504579151  0.7552080091691875  0.11876723935831988  1.0000
  C   C36       1.0  0.8684791085949113  0.8306044164402735  0.06352672858385229  1.0000
  C   C37       1.0  0.4012141633179596  0.8146613063013887  0.5815910255082315  1.0000
  C   C38       1.0  0.29518712388673407  0.7565216891063784  0.6257101548597246  1.0000
  C   C39       1.0  0.1377650573450636  0.7921476157709436  0.6530133390131424  1.0000
  C   C40       1.0  0.09162663206279117  0.8843074033010722  0.6358397907656651  1.0000
  C   C41       1.0  0.2048911462375499  0.9382711983102823  0.5920428198882346  1.0000
  C   C42       1.0  0.16784104118391951  0.03483539393297259  0.5701816800736949  1.0000
  C   C43       1.0  0.05966111413689391  0.16922621480461686  0.547608595086153  1.0000
  C   C44       1.0  0.8358034288659869  0.40476223029964586  0.4951617677079341  1.0000
  C   C45       1.0  0.9620613869541897  0.33558346252871013  0.5040268014934455  1.0000
  C   C46       1.0  0.9360460338902001  0.24750980446533075  0.5429583639485854  1.0000
  C   C47       1.0  0.7799520786103784  0.2352560043639045  0.5753769000560138  1.0000
  C   C48       1.0  0.6607283753492154  0.30791420175467715  0.5641743495234053  1.0000
  C   C49       1.0  0.8087591326951724  0.11620440287880741  0.1360304517993214  1.0000
  C   C50       1.0  0.6793615778571152  0.17390337857614205  0.17153621799612753  1.0000
  C   C51       1.0  0.5504021443303345  0.19950864268501087  0.13232150281641702  1.0000
  C   C52       1.0  0.5538900404876869  0.16706003687232843  0.059432887339369224  1.0000
  C   C53       1.0  0.6876468354770465  0.10927245627809866  0.027677401988533697  1.0000
  C   C54       1.0  0.7039439522986796  0.06971207001968338  0.9535700091399092  1.0000
  C   C55       1.0  0.6812927961668791  0.025368559137618298  0.8471446946360783  1.0000
  C   C56       1.0  0.4743778198748955  0.0723464860923357  0.6610015674857265  1.0000
  C   C57       1.0  0.5137949267456392  0.08116084995749868  0.7357762089804891  1.0000
  C   C58       1.0  0.6264668694433483  0.0154078151521233  0.7739225168436903  1.0000
  C   C59       1.0  0.6874033490046187  0.9407531201373586  0.7367468173986039  1.0000
  C   C60       1.0  0.6402249634851884  0.9365342278012747  0.6628112364543809  1.0000
  C   C61       1.0  0.639050356640901  0.6117999357921773  0.5816956728823398  1.0000
  C   C62       1.0  0.6672491983041907  0.6368773943547906  0.652105973841749  1.0000
  C   C63       1.0  0.5985557162692886  0.5977049290313659  0.7405524410530829  1.0000
  C   C64       1.0  0.5034723775805999  0.5354224051786359  0.7560602506251684  1.0000
  C   C65       1.0  0.48010381946332364  0.5137441635584137  0.6820456518381448  1.0000
  C   C66       1.0  0.38518411650299805  0.4491998534818506  0.6901070873839501  1.0000
  C   C67       1.0  0.25883443193937683  0.3442386660364818  0.7315286923421879  1.0000
  C   C68       1.0  0.07067514005604639  0.1384101693346977  0.818281273248253  1.0000
  C   C69       1.0  0.12500335012342836  0.21333267763458255  0.7581258468071965  1.0000
  C   C70       1.0  0.187745015124996  0.26816362280725764  0.7893086286989899  1.0000
  C   C71       1.0  0.18858778339822624  0.24479259827879932  0.8812317119475352  1.0000
  C   C72       1.0  0.13152052386423918  0.1693961891765525  0.9364728511747487  1.0000
  N   N1        1.0  0.7852630296560219  0.8295401133351061  0.4884577707894167  1.0000
  N   N2        1.0  0.7168860261900677  0.9167109097925064  0.4733234671506921  1.0000
  N   N3        1.0  0.9738051598648099  0.9143300972877668  0.4150035490687926  1.0000
  N   N4        1.0  0.6425406755719932  0.0963197299010687  0.43473792231057473  1.0000
  N   N5        1.0  0.3135099531869371  0.6081349958737833  0.4766887662446634  1.0000
  N   N6        1.0  0.17812920931441306  0.0196037010672754  0.1353069467658088  1.0000
  N   N7        1.0  0.1646601136375023  0.9898746097310112  0.06743873853499581  1.0000
  N   N8        1.0  0.3959124668763535  0.9178827377413582  0.09911491414746368  1.0000
  N   N9        1.0  0.186783153092996  0.9154019505873806  0.9343571277695233  1.0000
  N   N10       1.0  0.46226495078256136  0.998040795775104  0.3764557651611681  1.0000
  N   N11       1.0  0.7191334916913307  0.6313518417362189  0.3597877752939096  1.0000
  N   N12       1.0  0.6377308271527653  0.5637819323584381  0.3855687448830948  1.0000
  N   N13       1.0  0.6785580198112341  0.6064748163690156  0.2348055953180435  1.0000
  N   N14       1.0  0.45203028001719764  0.4485266927961078  0.40392707659086813  1.0000
  N   N15       1.0  0.92564576117217  0.8841511241784802  0.09389620877234249  1.0000
  N   N16       1.0  0.21473701043445462  0.170459160019476  0.511540869141811  1.0000
  N   N17       1.0  0.28311516024690064  0.08328835894978681  0.5266762488148302  1.0000
  N   N18       1.0  0.026196227593842998  0.08566850166108961  0.5849969538885417  1.0000
  N   N19       1.0  0.3574593617245155  0.9036795397912057  0.5652619745261516  1.0000
  N   N20       1.0  0.6864910308313554  0.3918649408307786  0.5233107911818065  1.0000
  N   N21       1.0  0.8218704217477609  0.9803969027183965  0.8646932614455451  1.0000
  N   N22       1.0  0.8353406665651235  0.010125993104679798  0.9325612888051606  1.0000
  N   N23       1.0  0.6040873666044889  0.08211719808203809  0.9008854526029565  1.0000
  N   N24       1.0  0.8132178295283055  0.0845979842860345  0.06564305810969273  1.0000
  N   N25       1.0  0.5377365723261818  0.001961140204002699  0.6235443926824188  1.0000
  N   N26       1.0  0.2808686428644051  0.36864809584952235  0.6402109728086102  1.0000
  N   N27       1.0  0.36226900772506804  0.43621800529611204  0.6144309934145723  1.0000
  N   N28       1.0  0.32144451958185266  0.3935237852921674  0.7651934698625948  1.0000
  N   N29       1.0  0.5479674589983929  0.5514725787961298  0.5960731819882594  1.0000
  N   N30       1.0  0.0743538698899968  0.1158494796071921  0.9061039994390112  1.0000
