data_image0
_chemical_formula_structural       Al2H12C24S6N6O12
_chemical_formula_sum              "Al2 H12 C24 S6 N6 O12"
_cell_length_a       3.8885902650418247
_cell_length_b       20.130846194997716
_cell_length_c       20.131006804464814
_cell_angle_alpha    119.9997395968872
_cell_angle_beta     89.99988330090116
_cell_angle_gamma    90.00049732421326

_space_group_name_H-M_alt    "P 1"
_space_group_IT_number       1

loop_
  _space_group_symop_operation_xyz
  'x, y, z'

loop_
  _atom_site_type_symbol
  _atom_site_label
  _atom_site_symmetry_multiplicity
  _atom_site_fract_x
  _atom_site_fract_y
  _atom_site_fract_z
  _atom_site_occupancy
  Al  Al1       1.0  0.004863598141263001  0.49999847809144166  0.49999925644138443  1.0000
  Al  Al2       1.0  0.004913648093214801  0.16666668649745014  0.8333346715291582  1.0000
  H   H1        1.0  0.6066180838745154  0.5265843857144361  0.7748357503759208  1.0000
  H   H2        1.0  0.4263348933613359  0.5398085288253043  0.7062148897303685  1.0000
  H   H3        1.0  0.606641576637948  0.14008161490554727  0.5584889922722737  1.0000
  H   H4        1.0  0.4263493647639864  0.12686400608219364  0.6271137720195766  1.0000
  H   H5        1.0  0.6066348412538503  0.7482559804461459  0.47341374378186185  1.0000
  H   H6        1.0  0.4263158344443597  0.6664177819291696  0.4601957972162866  1.0000
  H   H7        1.0  0.6066314038808686  0.9184101623177696  0.8599165618175989  1.0000
  H   H8        1.0  0.4263272775859905  0.0002518849335189876  0.8731357324785022  1.0000
  H   H9        1.0  0.6066322104681917  0.22516103853484995  0.2517466702118654  1.0000
  H   H10       1.0  0.42633144397983375  0.29378267027445293  0.333587123436672  1.0000
  H   H11       1.0  0.606643014662666  0.4415130484948691  0.08159116328990737  1.0000
  H   H12       1.0  0.4263348127205975  0.37289003333737736  0.9997503109476467  1.0000
  C   C1        1.0  0.5041467406489063  0.4431190930793036  0.381280021394808  1.0000
  C   C2        1.0  0.5041534195276469  0.43815845449123725  0.556875503109481  1.0000
  C   C3        1.0  0.504157368216255  0.618716151860042  0.5618360181708226  1.0000
  C   C4        1.0  0.5042170791352092  0.22850548543372898  0.7764490432988181  1.0000
  C   C5        1.0  0.5041951290031365  0.04794612348562305  0.7714931732197525  1.0000
  C   C6        1.0  0.5042006134827306  0.22355227742234254  0.9520559707287574  1.0000
  C   C7        1.0  0.480226161416809  0.42852401798135287  0.6776220448771184  1.0000
  C   C8        1.0  0.48030694967935267  0.23814507169471708  0.6557042432293086  1.0000
  C   C9        1.0  0.49292454207710534  0.3954142085858481  0.5980185488921635  1.0000
  C   C10       1.0  0.493011091051102  0.2712537595282143  0.7353088942251773  1.0000
  C   C11       1.0  0.5150510005950509  0.296046444467514  0.6351668018705752  1.0000
  C   C12       1.0  0.5150394517994102  0.37062619264671776  0.6981629848841847  1.0000
  C   C13       1.0  0.4802800683355529  0.749105190429276  0.571474695778832  1.0000
  C   C14       1.0  0.4802724855199331  0.9175639083097098  0.7618553014058734  1.0000
  C   C15       1.0  0.49296470120249586  0.7026058065734659  0.6045841650365205  1.0000
  C   C16       1.0  0.49296465833509034  0.9640575461438065  0.7287446571202311  1.0000
  C   C17       1.0  0.5150600213852458  0.8391214881986144  0.7039536951904708  1.0000
  C   C18       1.0  0.5150704465592357  0.8275406850773166  0.6293773581063961  1.0000
  C   C19       1.0  0.48025693631863237  0.3223720441883202  0.2508960958765982  1.0000
  C   C20       1.0  0.4802583081179535  0.34429752694503435  0.08243797257308226  1.0000
  C   C21       1.0  0.4929365598398761  0.4019807584972455  0.2973936321378403  1.0000
  C   C22       1.0  0.49296834857876365  0.264691398853067  0.03594185752366036  1.0000
  C   C23       1.0  0.5150293019871129  0.36483567846089937  0.16087806636906524  1.0000
  C   C24       1.0  0.515040712112452  0.3018365234662142  0.1724574369020999  1.0000
  S   S1        1.0  0.5204672899770701  0.29573315860162114  0.5495605771888491  1.0000
  S   S2        1.0  0.5205294283739549  0.37093499818079323  0.7837687367727497  1.0000
  S   S3        1.0  0.5204997027352222  0.7538269050223222  0.7042662548418619  1.0000
  S   S4        1.0  0.5205216015548191  0.9128378398365841  0.6290662151989538  1.0000
  S   S5        1.0  0.5204671537744974  0.45043928255620364  0.24617204380703592  1.0000
  S   S6        1.0  0.5205142695968165  0.2162309433940592  0.08716147584713238  1.0000
  N   N1        1.0  0.43634278977607727  0.5060194295455887  0.7305236348377588  1.0000
  N   N2        1.0  0.436387293330526  0.16065155849895524  0.6028046131911892  1.0000
  N   N3        1.0  0.4363771361005392  0.724511864176769  0.4939840677106914  1.0000
  N   N4        1.0  0.43636467479872465  0.9421549283834737  0.83934712644443  1.0000
  N   N5        1.0  0.4363605570260277  0.2694735693868538  0.27549227837337753  1.0000
  N   N6        1.0  0.43635937429277066  0.39719824316392766  0.057846387418763495  1.0000
  O   O1        1.0  0.7406869766375909  0.5842141652428694  0.5771237773748225  1.0000
  O   O2        1.0  0.7406806749245122  0.492910228055905  0.41578615155409426  1.0000
  O   O3        1.0  0.7406889377196822  0.42287334587155095  0.5070874502987762  1.0000
  O   O4        1.0  0.2753876082755868  0.5844172036638966  0.5094714787432224  1.0000
  O   O5        1.0  0.2753903391305529  0.49053072845757845  0.5749398213707906  1.0000
  O   O6        1.0  0.2753768806446716  0.42505361678183823  0.4155834108504378  1.0000
  O   O7        1.0  0.7407532927556277  0.17376075954128126  0.9175508467403545  1.0000
  O   O8        1.0  0.7407553163551058  0.24379055417713166  0.8262407396940076  1.0000
  O   O9        1.0  0.7407418476779669  0.08245154746155224  0.7562125348149704  1.0000
  O   O10       1.0  0.27543448255164554  0.24161347164526595  0.9177463256499789  1.0000
  O   O11       1.0  0.2754288982021366  0.08225326453533911  0.8238667998587345  1.0000
  O   O12       1.0  0.2754390254691259  0.17613617065286036  0.7583851370449108  1.0000
