data_image0
_chemical_formula_structural       Tb2MnH28C16O18
_chemical_formula_sum              "Tb2 Mn1 H28 C16 O18"
_cell_length_a       8.897295726223684
_cell_length_b       9.104326679482748
_cell_length_c       10.63012665668501
_cell_angle_alpha    81.87456534701616
_cell_angle_beta     71.85295594575295
_cell_angle_gamma    77.31562483946657

_space_group_name_H-M_alt    "P 1"
_space_group_IT_number       1

loop_
  _space_group_symop_operation_xyz
  'x, y, z'

loop_
  _atom_site_type_symbol
  _atom_site_label
  _atom_site_symmetry_multiplicity
  _atom_site_fract_x
  _atom_site_fract_y
  _atom_site_fract_z
  _atom_site_occupancy
  Tb  Tb1       1.0  0.9144805359647634  0.07780463902663119  0.6826846285017253  1.0000
  Tb  Tb2       1.0  0.08551989639560285  0.9221943697455753  0.3173154652163746  1.0000
  Mn  Mn1       1.0  1.4056626298492719e-06  0.9999988698723  0.9999998114344422  1.0000
  H   H1        1.0  0.8283373331013664  0.3669699239043921  0.05474986206707656  1.0000
  H   H2        1.0  0.17166363385554462  0.6330191297534211  0.9452599091937374  1.0000
  H   H3        1.0  0.6311365904342594  0.41435176225566284  0.030752751516551793  1.0000
  H   H4        1.0  0.3688653683605949  0.585638396635147  0.9692556901026848  1.0000
  H   H5        1.0  0.7856797178754036  0.510178385391889  0.9311484963793148  1.0000
  H   H6        1.0  0.21431974987878277  0.48981755747082173  0.06886541884758664  1.0000
  H   H7        1.0  0.7334970283234271  0.7401147635855735  0.07309319370854438  1.0000
  H   H8        1.0  0.2664972386973973  0.25989109261952587  0.9269102967928475  1.0000
  H   H9        1.0  0.5829938032561373  0.7450451294580842  0.9905726236941987  1.0000
  H   H10       1.0  0.41699732966265657  0.2549584943928309  0.00943286634501561  1.0000
  H   H11       1.0  0.56633619016241  0.8943316149243826  0.08491752210446188  1.0000
  H   H12       1.0  0.4336581735066503  0.10567417260966039  0.9150831306991236  1.0000
  H   H13       1.0  0.49490180602293093  0.8674864806230502  0.5765548181057625  1.0000
  H   H14       1.0  0.5050954098959224  0.1325293734706179  0.42344002818963844  1.0000
  H   H15       1.0  0.4560373825585913  0.7207606512376542  0.7052358533435594  1.0000
  H   H16       1.0  0.5439686514368347  0.2792471785125485  0.29475322965052436  1.0000
  H   H17       1.0  0.5263339785576165  0.8773261157264753  0.7340667825885563  1.0000
  H   H18       1.0  0.4736659811461978  0.12268183348634659  0.2659284606715388  1.0000
  H   H19       1.0  0.17990483999061982  0.3199906317878457  0.2548568825315698  1.0000
  H   H20       1.0  0.8200929074166369  0.6800095767852807  0.7451465236038218  1.0000
  H   H21       1.0  0.2586561677164383  0.3904319031883147  0.36581508532574963  1.0000
  H   H22       1.0  0.7413522550711065  0.6095635519618198  0.6341769629390015  1.0000
  H   H23       1.0  0.06467824071390992  0.47289814651930573  0.35625641453049894  1.0000
  H   H24       1.0  0.9353259006535806  0.5271007447946301  0.6437380912294658  1.0000
  H   H25       1.0  0.6103953550807687  0.1784779278447814  0.6145184408963829  1.0000
  H   H26       1.0  0.38960638629399114  0.8215200194707747  0.3854843019539588  1.0000
  H   H27       1.0  0.7420212441736211  0.12185080598843  0.47895740354631766  1.0000
  H   H28       1.0  0.2579770137065722  0.8781470985529438  0.521044305967294  1.0000
  C   C1        1.0  0.2771114758932215  0.9203575807453601  0.7402764492801381  1.0000
  C   C2        1.0  0.7228854407564995  0.0796414081430115  0.2597235570004983  1.0000
  C   C3        1.0  0.7610196314405115  0.40044387087892364  0.9816767452507449  1.0000
  C   C4        1.0  0.23898418216588618  0.5995485900392907  0.01833282068241002  1.0000
  C   C5        1.0  0.6539636957583354  0.8118528307415501  0.019331721251361997  1.0000
  C   C6        1.0  0.3460264509228281  0.1881563471755783  0.9806694972489041  1.0000
  C   C7        1.0  0.8111052154403352  0.2876567553107988  0.8791037317384609  1.0000
  C   C8        1.0  0.18889298111584196  0.7123468854174249  0.12090098727641427  1.0000
  C   C9        1.0  0.7469473636182047  0.89616302996766  0.8997247739938175  1.0000
  C   C10       1.0  0.25305185388383933  0.1038360026970722  0.10027655177748328  1.0000
  C   C11       1.0  0.4497100948253916  0.84347756559589  0.6842796677888856  1.0000
  C   C12       1.0  0.5502886178040214  0.1565304303998118  0.31571775342368363  1.0000
  C   C13       1.0  0.15041055058624414  0.3650039957092445  0.3513278422329975  1.0000
  C   C14       1.0  0.8495950893680019  0.6349832848867151  0.6486546829749145  1.0000
  C   C15       1.0  0.0798121941394783  0.25688398063267204  0.4623295981395756  1.0000
  C   C16       1.0  0.9201929068498699  0.7431160388046152  0.5376645238780712  1.0000
  O   O1        1.0  0.1888960558898276  0.9609456560571347  0.6609245555244385  1.0000
  O   O2        1.0  0.8110979496782421  0.039049971351531085  0.33907754788239686  1.0000
  O   O3        1.0  0.0395072686023639  0.2903859018472659  0.5814672753546404  1.0000
  O   O4        1.0  0.9604989152728507  0.709608494852745  0.41852828050415525  1.0000
  O   O5        1.0  0.8987680693824203  0.8941178666448832  0.8806458103110373  1.0000
  O   O6        1.0  0.10122085933227959  0.1058856447586294  0.1193555225397134  1.0000
  O   O7        1.0  0.9453324955522288  0.19102441853774368  0.8669653085340132  1.0000
  O   O8        1.0  0.054677843986866  0.8089723239660245  0.13303269112935823  1.0000
  O   O9        1.0  0.679392874642929  0.9718527987921703  0.8155025350280454  1.0000
  O   O10       1.0  0.3206011043093683  0.028149510806073898  0.18449491309753796  1.0000
  O   O11       1.0  0.7275210663123916  0.28722382076920633  0.8023482946922017  1.0000
  O   O12       1.0  0.27248451354979153  0.7127786390397542  0.19765291318890377  1.0000
  O   O13       1.0  0.0560755132605379  0.1292465801435583  0.4387517645223582  1.0000
  O   O14       1.0  0.9439263569785439  0.8707512756106012  0.5612471947309106  1.0000
  O   O15       1.0  0.7220494964383449  0.173866775160235  0.5620975331090818  1.0000
  O   O16       1.0  0.27795071290163526  0.8261333627374937  0.43790246302064173  1.0000
  O   O17       1.0  0.22846178512908474  0.9383924780932558  0.8631020434036999  1.0000
  O   O18       1.0  0.7715395746370604  0.06160768169264939  0.13689861247135576  1.0000
