data_image0
_chemical_formula_structural       Gd4H20C36O24
_chemical_formula_sum              "Gd4 H20 C36 O24"
_cell_length_a       6.632783359785348
_cell_length_b       10.699368786119424
_cell_length_c       12.978587403001367
_cell_angle_alpha    90.00003159696874
_cell_angle_beta     89.99995539377622
_cell_angle_gamma    95.15301932519431

_space_group_name_H-M_alt    "P 1"
_space_group_IT_number       1

loop_
  _space_group_symop_operation_xyz
  'x, y, z'

loop_
  _atom_site_type_symbol
  _atom_site_label
  _atom_site_symmetry_multiplicity
  _atom_site_fract_x
  _atom_site_fract_y
  _atom_site_fract_z
  _atom_site_occupancy
  Gd  Gd1       1.0  0.8978731072773981  0.574962834881795  0.3732740114767381  1.0000
  Gd  Gd2       1.0  0.6021244308335553  0.42503650510563773  0.8732737508987543  1.0000
  Gd  Gd3       1.0  0.10212476761847002  0.4250369861972133  0.6267262174391561  1.0000
  Gd  Gd4       1.0  0.3978749518383537  0.5749633167552944  0.126725707516961  1.0000
  H   H1        1.0  0.4816108585962979  0.9743809645093295  0.22309451282232837  1.0000
  H   H2        1.0  0.0183902297163527  0.025619395960077902  0.7230941039110875  1.0000
  H   H3        1.0  0.5183886587806441  0.02561979577861001  0.7769049455935788  1.0000
  H   H4        1.0  0.9816107954355289  0.9743813651102402  0.2769061250043947  1.0000
  H   H5        1.0  0.5870998035315153  0.1967938045228124  0.2746245764272288  1.0000
  H   H6        1.0  0.9129010270439224  0.8032064173780142  0.7746235938975944  1.0000
  H   H7        1.0  0.4128995791398324  0.8032060173383472  0.725375652488367  1.0000
  H   H8        1.0  0.08709999810850629  0.19679434369207627  0.22537586451801422  1.0000
  H   H9        1.0  0.845135318725667  0.0648155007352571  0.5533235467888602  1.0000
  H   H10       1.0  0.6548656961604068  0.9351836524526221  0.053323297086841116  1.0000
  H   H11       1.0  0.15486406394623492  0.935184321125668  0.44667591162686204  1.0000
  H   H12       1.0  0.3451365673568816  0.06481523254581131  0.9466769318279661  1.0000
  H   H13       1.0  0.7434750343311407  0.8425651056149308  0.5008866041055243  1.0000
  H   H14       1.0  0.7565260561450626  0.15743401670195573  0.0008867309871121004  1.0000
  H   H15       1.0  0.2565258561162551  0.1574347170281456  0.49911285430989955  1.0000
  H   H16       1.0  0.2434746995967316  0.8425648675143266  0.9991134979279935  1.0000
  H   H17       1.0  0.4304910598925177  0.4164458064470082  0.36630643782321215  1.0000
  H   H18       1.0  0.06950982197356129  0.5835546383351443  0.8663054917540551  1.0000
  H   H19       1.0  0.569508457483316  0.583554953841393  0.6336945615924493  1.0000
  H   H20       1.0  0.9304912031794287  0.4164461227347261  0.1336931961616727  1.0000
  C   C1        1.0  0.7938949047811192  0.2742836892939308  0.44933462964664284  1.0000
  C   C2        1.0  0.7061056739406907  0.7257166354638684  0.9493344644801525  1.0000
  C   C3        1.0  0.20610585095956682  0.7257151949228062  0.5506671402682175  1.0000
  C   C4        1.0  0.2938952165066979  0.27428318717920774  0.05066499393526411  1.0000
  C   C5        1.0  0.5547501412239697  0.7626655098540314  0.3259269047915866  1.0000
  C   C6        1.0  0.9452506153963113  0.2373347422500701  0.8259264226778741  1.0000
  C   C7        1.0  0.4452507492228719  0.2373343127892725  0.6740733241237111  1.0000
  C   C8        1.0  0.0547487672750435  0.7626650796110824  0.1740738062377218  1.0000
  C   C9        1.0  0.6057762947446933  0.895568051761224  0.3591246825805285  1.0000
  C   C10       1.0  0.8942244140188434  0.10443221988755624  0.8591249308053012  1.0000
  C   C11       1.0  0.3942245957026955  0.1044317708818525  0.640874775834888  1.0000
  C   C12       1.0  0.10577661113303087  0.8955685411827616  0.1408752981101813  1.0000
  C   C13       1.0  0.560845267427034  0.9952873974189275  0.2953450458309775  1.0000
  C   C14       1.0  0.9391555332780044  0.004712836680965901  0.7953452308879323  1.0000
  C   C15       1.0  0.4391556230203618  0.0047124252241488  0.7046544125844393  1.0000
  C   C16       1.0  0.060843984098390515  0.9952879236072009  0.20465499802785564  1.0000
  C   C17       1.0  0.619930758359942  0.11861942618810424  0.3239303802826683  1.0000
  C   C18       1.0  0.8800684933627069  0.8813808239585299  0.8239302168235341  1.0000
  C   C19       1.0  0.3800686243114058  0.8813803956730485  0.6760698486329277  1.0000
  C   C20       1.0  0.11993088930864809  0.11861899790262245  0.1760700120920617  1.0000
  C   C21       1.0  0.7239763901928881  0.14335691103642031  0.41687499493890107  1.0000
  C   C22       1.0  0.7760256083909313  0.8566424569668389  0.9168756320354774  1.0000
  C   C23       1.0  0.27602450025450054  0.856642911606649  0.5831244634765158  1.0000
  C   C24       1.0  0.22397528205534914  0.14335736567669244  0.08312536737970083  1.0000
  C   C25       1.0  0.7664588066655326  0.0435208773608764  0.4810252425888493  1.0000
  C   C26       1.0  0.7335415916676097  0.9564785276270912  0.9810251714347162  1.0000
  C   C27       1.0  0.23354057600581513  0.9564789445002762  0.5189749863267394  1.0000
  C   C28       1.0  0.2664608065547114  0.04352129579836371  0.018975057480282904  1.0000
  C   C29       1.0  0.7087906356971557  0.9206202896652372  0.4521763969959168  1.0000
  C   C30       1.0  0.7912113119982392  0.0793790991208496  0.9521766747243563  1.0000
  C   C31       1.0  0.29121038945527294  0.07938047140485341  0.5478230614196847  1.0000
  C   C32       1.0  0.20878957844804796  0.9206207235226743  0.047824324690815  1.0000
  C   C33       1.0  0.2832320770056355  0.45705470625456013  0.36797614951544233  1.0000
  C   C34       1.0  0.21676729467804284  0.5429457387284276  0.8679751265298281  1.0000
  C   C35       1.0  0.7167657978896713  0.5429451148246757  0.6320248499003327  1.0000
  C   C36       1.0  0.783233730474393  0.45705502234167034  0.13202433188577342  1.0000
  O   O1        1.0  0.7680098032355005  0.3639068088666519  0.3868039671229084  1.0000
  O   O2        1.0  0.7319908656273456  0.6360934790775732  0.886803750938789  1.0000
  O   O3        1.0  0.23198957943585438  0.6360930129945074  0.6131962617926876  1.0000
  O   O4        1.0  0.2680101595245361  0.36390728199274497  0.11319647797669323  1.0000
  O   O5        1.0  0.6116575754141208  0.675021524754996  0.38415046729439695  1.0000
  O   O6        1.0  0.8883414547929362  0.32497782241803463  0.8841508181132696  1.0000
  O   O7        1.0  0.38834180725723394  0.32497829710615633  0.6158497616211991  1.0000
  O   O8        1.0  0.1116579278784116  0.6750219994431178  0.11584941080232623  1.0000
  O   O9        1.0  0.46333107095191634  0.7422125475957202  0.2413167857745648  1.0000
  O   O10       1.0  0.03666848331632621  0.25778782281976487  0.7413172456497179  1.0000
  O   O11       1.0  0.5366683117199926  0.257787274265212  0.7586826726411574  1.0000
  O   O12       1.0  0.9633308993550214  0.7422119990413878  0.2586829832658779  1.0000
  O   O13       1.0  0.21844649574430255  0.5101808842874006  0.2880291071932319  1.0000
  O   O14       1.0  0.2815546336674899  0.48982045283765535  0.7880280343391989  1.0000
  O   O15       1.0  0.7815546641120575  0.489820815210159  0.7119718922223157  1.0000
  O   O16       1.0  0.7184465261905401  0.5101812466592293  0.21197065357671363  1.0000
  O   O17       1.0  0.8785508555410573  0.28747025992309727  0.5371546508427231  1.0000
  O   O18       1.0  0.6214486748772926  0.7125288829637457  0.037155083687842705  1.0000
  O   O19       1.0  0.12144688465032522  0.7125286227286624  0.46284480757310587  1.0000
  O   O20       1.0  0.37855070779406214  0.2874709388974069  0.9628451452277533  1.0000
  O   O21       1.0  0.17783805687302132  0.44935057051198174  0.4495143181857203  1.0000
  O   O22       1.0  0.3221628397499714  0.5506508616839769  0.9495132568649184  1.0000
  O   O23       1.0  0.8221615952078523  0.5506511282034339  0.550486681230126  1.0000
  O   O24       1.0  0.6778381854030118  0.4493498993858935  0.050485431050809416  1.0000
