data_image0
_chemical_formula_structural       Cd2H32C52S4N4O8
_chemical_formula_sum              "Cd2 H32 C52 S4 N4 O8"
_cell_length_a       10.088609974563926
_cell_length_b       11.021785581141117
_cell_length_c       11.871797770637642
_cell_angle_alpha    96.13326443937898
_cell_angle_beta     96.03759998014938
_cell_angle_gamma    117.1966810786745

_space_group_name_H-M_alt    "P 1"
_space_group_IT_number       1

loop_
  _space_group_symop_operation_xyz
  'x, y, z'

loop_
  _atom_site_type_symbol
  _atom_site_label
  _atom_site_symmetry_multiplicity
  _atom_site_fract_x
  _atom_site_fract_y
  _atom_site_fract_z
  _atom_site_occupancy
  Cd  Cd1       1.0  0.4398619255670653  0.807767373781779  0.4653244026710581  1.0000
  Cd  Cd2       1.0  0.5601392700690297  0.1922351873511445  0.534675032928355  1.0000
  H   H1        1.0  0.3530332422896762  0.5577165641512495  0.2472015536399965  1.0000
  H   H2        1.0  0.6469663634578638  0.44228288856103876  0.7527957471311949  1.0000
  H   H3        1.0  0.44310085975856583  0.38999210737234347  0.1730958228107582  1.0000
  H   H4        1.0  0.5568976923051281  0.6100052735868075  0.8269037054554286  1.0000
  H   H5        1.0  0.6654884155578172  0.3911364053242111  0.29043141919043336  1.0000
  H   H6        1.0  0.334511191630149  0.6088630475097645  0.7095667240531753  1.0000
  H   H7        1.0  0.8694064329108498  0.49616762299334755  0.4651829886316888  1.0000
  H   H8        1.0  0.13059259206126939  0.5038287292776858  0.5348173211246703  1.0000
  H   H9        1.0  0.9902389917457127  0.6643048195475245  0.6470852106920972  1.0000
  H   H10       1.0  0.009756563227583113  0.3356925400288092  0.352916578054696  1.0000
  H   H11       1.0  0.9946941573875917  0.8530197432141763  0.7912457021526719  1.0000
  H   H12       1.0  0.005301920826553883  0.146978651934532  0.20875286666558418  1.0000
  H   H13       1.0  0.8806511621601627  0.004518382315509898  0.8475854386735832  1.0000
  H   H14       1.0  0.11934180389445001  0.995475861712585  0.15241496873852614  1.0000
  H   H15       1.0  0.6533864229201711  0.9806515239253389  0.7190929466229079  1.0000
  H   H16       1.0  0.3466049604480332  0.019339612290529808  0.2809095383230654  1.0000
  H   H17       1.0  0.9184928924620052  0.574195786664383  0.2628311541473067  1.0000
  H   H18       1.0  0.0815133055268903  0.42580681071497406  0.7371687263465176  1.0000
  H   H19       1.0  0.7121333692553548  0.5057332120855876  0.09238445368112738  1.0000
  H   H20       1.0  0.2878729481239688  0.4942735153966071  0.9076183761166943  1.0000
  H   H21       1.0  0.7854358808383209  0.5725676252233427  0.9050072083217414  1.0000
  H   H22       1.0  0.21456996507300372  0.4274401310686572  0.09499568245832532  1.0000
  H   H23       1.0  0.05408650964412226  0.6996671883961483  0.8871708849215519  1.0000
  H   H24       1.0  0.945917744938221  0.3003374593535284  0.11282902855788277  1.0000
  H   H25       1.0  0.2702465049444386  0.9978273599151424  0.023591938022590932  1.0000
  H   H26       1.0  0.7297485138241413  0.0021689629936930007  0.9764054884009853  1.0000
  H   H27       1.0  0.2080126139736933  0.18365279566270232  0.9823407510450436  1.0000
  H   H28       1.0  0.7919855270374326  0.8163476792185096  0.017660734091599326  1.0000
  H   H29       1.0  0.19679876417887238  0.23737118973264157  0.7837116971557379  1.0000
  H   H30       1.0  0.8032044913733428  0.7626334508894389  0.21628896981723497  1.0000
  H   H31       1.0  0.2531397160092864  0.10383292831120632  0.6291844311621516  1.0000
  H   H32       1.0  0.7468640671050581  0.896172748248283  0.3708155432995284  1.0000
  C   C1        1.0  0.4491375664808289  0.5541354666179361  0.2950602350909648  1.0000
  C   C2        1.0  0.550861511704575  0.4458629501569434  0.7049377581915194  1.0000
  C   C3        1.0  0.5010641893075559  0.4621660139328726  0.253878060870548  1.0000
  C   C4        1.0  0.49893436131571167  0.5378313669045981  0.7461206249232218  1.0000
  C   C5        1.0  0.6244740347535824  0.4634832226078205  0.3179679856567361  1.0000
  C   C6        1.0  0.37552657434537917  0.5365162375971197  0.6820310890381762  1.0000
  C   C7        1.0  0.696707856516639  0.5579220331404571  0.4227195044910133  1.0000
  C   C8        1.0  0.3032906969874887  0.44207534794037434  0.577280866247591  1.0000
  C   C9        1.0  0.8259535485599088  0.5663519132292977  0.49310421747066613  1.0000
  C   C10       1.0  0.17404300112223584  0.43364545310959823  0.5068942903653451  1.0000
  C   C11       1.0  0.8917441040074152  0.6586409932454843  0.5940515680820652  1.0000
  C   C12       1.0  0.10825145096588071  0.3413563663308495  0.4059502206647281  1.0000
  C   C13       1.0  0.8326354411949167  0.748627919636782  0.6327102755687335  1.0000
  C   C14       1.0  0.16736363987133976  0.25137049738145834  0.3672894026585851  1.0000
  C   C15       1.0  0.895528809728866  0.8445009858414142  0.7371337632140039  1.0000
  C   C16       1.0  0.10446574333344219  0.1554963663639484  0.2628670940814928  1.0000
  C   C17       1.0  0.8320401170144791  0.9277810253636859  0.7688587660892238  1.0000
  C   C18       1.0  0.16795285336142743  0.0722132190294573  0.23114416874013693  1.0000
  C   C19       1.0  0.7050635196473181  0.9153551152408783  0.6966922286993551  1.0000
  C   C20       1.0  0.29492739081246094  0.0846370496631081  0.3033094747564462  1.0000
  C   C21       1.0  0.7042652926803966  0.7432910606521332  0.5651438316971777  1.0000
  C   C22       1.0  0.29573178600431044  0.2567073417458516  0.43485482609995774  1.0000
  C   C23       1.0  0.6352223409371476  0.6460705031269641  0.45805223996116945  1.0000
  C   C24       1.0  0.3647767962232464  0.3539299786384903  0.5419468067371084  1.0000
  C   C25       1.0  0.21285408337177364  0.7171111292286981  0.2764513984435125  1.0000
  C   C26       1.0  0.7871531136472567  0.2828914752782694  0.7235477285567737  1.0000
  C   C27       1.0  0.09734552796189191  0.6788068496067156  0.1718364937622994  1.0000
  C   C28       1.0  0.9026610868412916  0.32119265433730265  0.8281647997507304  1.0000
  C   C29       1.0  0.9441647761573577  0.6025942977620818  0.1796396571432908  1.0000
  C   C30       1.0  0.05584342709395429  0.3974083144808915  0.8203629287255438  1.0000
  C   C31       1.0  0.8308549344584079  0.5648295796890112  0.08529458620414938  1.0000
  C   C32       1.0  0.16915021128708224  0.43517094605888934  0.9147083642570732  1.0000
  C   C33       1.0  0.8720591632064156  0.602440641897715  0.9806374310780582  1.0000
  C   C34       1.0  0.1279470966383371  0.3975640207155848  0.019365187776387013  1.0000
  C   C35       1.0  0.02356047083443257  0.6760653570579579  0.9704309360996249  1.0000
  C   C36       1.0  0.9764452585673311  0.32393826937456555  0.029570690321278875  1.0000
  C   C37       1.0  0.1387114485390412  0.7159802060234169  0.06533526979847437  1.0000
  C   C38       1.0  0.8612931653230191  0.2840192834220332  0.934665845756797  1.0000
  C   C39       1.0  0.2924521061639212  0.9430492555577463  0.8500445360381689  1.0000
  C   C40       1.0  0.7075460276450584  0.05695121871505652  0.14995273673639525  1.0000
  C   C41       1.0  0.26365811574441267  0.020313588003055803  0.9366933651317452  1.0000
  C   C42       1.0  0.7363379639101595  0.9796848072673331  0.06330604615892815  1.0000
  C   C43       1.0  0.2310981396353568  0.1259995796903581  0.9134418651979386  1.0000
  C   C44       1.0  0.7688990023456342  0.8740008880632504  0.08656037343224199  1.0000
  C   C45       1.0  0.2256204002377729  0.15690650782197932  0.8024623935082997  1.0000
  C   C46       1.0  0.7743823277523063  0.8430970968626854  0.1975389659759585  1.0000
  C   C47       1.0  0.25648522325972317  0.08257722964737721  0.7166030323338717  1.0000
  C   C48       1.0  0.7435165028193607  0.9174263676663159  0.2833973956990902  1.0000
  C   C49       1.0  0.29108840310204454  0.976794476646781  0.7381678065991791  1.0000
  C   C50       1.0  0.7089117906230482  0.023208077115178607  0.2618306975489374  1.0000
  C   C51       1.0  0.3285790424022607  0.9054557797295572  0.643066255736663  1.0000
  C   C52       1.0  0.6714211498824127  0.0945467739107215  0.3569314059390364  1.0000
  S   S1        1.0  0.33422244170984783  0.8092827575777123  0.054628088147360594  1.0000
  S   S2        1.0  0.6657822253654969  0.19071879637159136  0.9453707109340356  1.0000
  S   S3        1.0  0.3289552543888945  0.8046218209825042  0.8786824292109185  1.0000
  S   S4        1.0  0.6710469402773285  0.19538074727802981  0.12131625289496377  1.0000
  N   N1        1.0  0.5132550152248356  0.6419551046481619  0.39415004650541613  1.0000
  N   N2        1.0  0.48674406152013444  0.3580433120050374  0.6058471043046509  1.0000
  N   N3        1.0  0.6437587771412936  0.8259156948893605  0.598024294968468  1.0000
  N   N4        1.0  0.35623471647545574  0.17407958507615015  0.4019754199323556  1.0000
  O   O1        1.0  0.34950604544555836  0.8064430384505458  0.2718114806498093  1.0000
  O   O2        1.0  0.6504976254805115  0.19355850861451535  0.728189756869952  1.0000
  O   O3        1.0  0.17653762595418246  0.6629115140102685  0.3649271548863524  1.0000
  O   O4        1.0  0.823470515441272  0.33708903299876886  0.6350726926218541  1.0000
  O   O5        1.0  0.3666978871685346  0.9641255588732425  0.5548329694669007  1.0000
  O   O6        1.0  0.6333048940348219  0.035880110315275715  0.4451660735434828  1.0000
  O   O7        1.0  0.3243985387776719  0.7900087010488621  0.6508406879308524  1.0000
  O   O8        1.0  0.6756001225934439  0.20999280916135635  0.3491558923324191  1.0000
