data_image0
_chemical_formula_structural       Zn2H36C40N24O12
_chemical_formula_sum              "Zn2 H36 C40 N24 O12"
_cell_length_a       9.663541330712551
_cell_length_b       10.204275468000198
_cell_length_c       11.22535398231234
_cell_angle_alpha    89.99998158918967
_cell_angle_beta     95.35508636924398
_cell_angle_gamma    89.999988671469

_space_group_name_H-M_alt    "P 1"
_space_group_IT_number       1

loop_
  _space_group_symop_operation_xyz
  'x, y, z'

loop_
  _atom_site_type_symbol
  _atom_site_label
  _atom_site_symmetry_multiplicity
  _atom_site_fract_x
  _atom_site_fract_y
  _atom_site_fract_z
  _atom_site_occupancy
  Zn  Zn1       1.0  0.9999992643543295  0.5000000392972198  0.5000005691226548  1.0000
  Zn  Zn2       1.0  0.499999485819636  0.9999992401715616  0.9999995522062406  1.0000
  H   H1        1.0  0.25623768587931284  0.4029182226762984  0.6751536472001051  1.0000
  H   H2        1.0  0.243763109745565  0.9029164594906336  0.8248461551815398  1.0000
  H   H3        1.0  0.74376287031739  0.5970819502905372  0.3248453606295954  1.0000
  H   H4        1.0  0.7562364043907691  0.09708175351339322  0.17515365744056774  1.0000
  H   H5        1.0  0.25497376543631844  0.6727002885561008  0.389484886839874  1.0000
  H   H6        1.0  0.24502543171431768  0.1727001167499652  0.11051447747298233  1.0000
  H   H7        1.0  0.7450247093495362  0.3273008643921926  0.6105148399541634  1.0000
  H   H8        1.0  0.7549761611219168  0.8273010361979874  0.8894855068038794  1.0000
  H   H9        1.0  0.5012275339363512  0.7000035008804631  0.535348825364487  1.0000
  H   H10       1.0  0.9987712884965134  0.20000315596656293  0.964651389375547  1.0000
  H   H11       1.0  0.49877093813901757  0.299997652067674  0.46465179204926  1.0000
  H   H12       1.0  0.0012282256397071  0.7999960370188506  0.0353484232464041  1.0000
  H   H13       1.0  0.6087042059911097  0.5623052940380193  0.718591547311455  1.0000
  H   H14       1.0  0.8912956943797639  0.06230405421901251  0.7814070148925867  1.0000
  H   H15       1.0  0.3912953081449899  0.43769487892877396  0.28140826531033986  1.0000
  H   H16       1.0  0.10870382246693568  0.9376951387665571  0.21859190710965493  1.0000
  H   H17       1.0  0.5072047623062232  0.429622675454894  0.7671401773757226  1.0000
  H   H18       1.0  0.9927950495902209  0.9296228577531029  0.7328582704549123  1.0000
  H   H19       1.0  0.4927947545404692  0.5703765175306688  0.23285874462651895  1.0000
  H   H20       1.0  0.007204464545878902  0.07037731521369041  0.2671415421668826  1.0000
  H   H21       1.0  0.29308493124405993  0.3886251524369584  0.8916291745129712  1.0000
  H   H22       1.0  0.20691587595484856  0.8886244527286777  0.6083679604598801  1.0000
  H   H23       1.0  0.7069135462523946  0.6113750205301117  0.10836966166151293  1.0000
  H   H24       1.0  0.7930857168816131  0.11137474025650111  0.3916320238172873  1.0000
  H   H25       1.0  0.1390296414147301  0.41347372240497293  0.0576023923413302  1.0000
  H   H26       1.0  0.36097158186283446  0.9134748354779775  0.4423952874164812  1.0000
  H   H27       1.0  0.8609709120716076  0.5865254705803197  0.942397506108229  1.0000
  H   H28       1.0  0.6390289743338684  0.08652533748885823  0.5576037204132192  1.0000
  H   H29       1.0  0.1346843648475016  0.6147569785700144  0.17466473339988656  1.0000
  H   H30       1.0  0.3653158883200902  0.11475866806720349  0.32533384416263544  1.0000
  H   H31       1.0  0.8653141099384739  0.38524319439689253  0.8253349933943  1.0000
  H   H32       1.0  0.6346846651661338  0.8852415048994763  0.6746660542867674  1.0000
  H   H33       1.0  0.2860004914645913  0.8075496894352981  0.13275273289356454  1.0000
  H   H34       1.0  0.21399867320518953  0.3075513926734033  0.3672465894303657  1.0000
  H   H35       1.0  0.7139979860318704  0.19245048353177208  0.8672461032809198  1.0000
  H   H36       1.0  0.7860018802810345  0.6924487802932762  0.6327533090190371  1.0000
  C   C1        1.0  0.28559437278536143  0.479993766245869  0.6160072060052926  1.0000
  C   C2        1.0  0.21440536221391682  0.9799929676696169  0.8839933771689561  1.0000
  C   C3        1.0  0.7144061861218205  0.5200064067211301  0.3839909112047054  1.0000
  C   C4        1.0  0.7855941492118176  0.020006225315633203  0.11600732607269751  1.0000
  C   C5        1.0  0.29130421174939863  0.6206808989783996  0.470383917335461  1.0000
  C   C6        1.0  0.2086950006415336  0.12067978265226033  0.029614572555331613  1.0000
  C   C7        1.0  0.7086953023865803  0.3793202539697803  0.5296158952861847  1.0000
  C   C8        1.0  0.791304518915524  0.8793203903148457  0.9703834588270512  1.0000
  C   C9        1.0  0.41259224706948316  0.6366330117477901  0.5425591547636657  1.0000
  C   C10       1.0  0.0874086126943823  0.13663176704456964  0.9574407305322554  1.0000
  C   C11       1.0  0.587408303706141  0.36336814120011246  0.45744163430529045  1.0000
  C   C12       1.0  0.9125919407919626  0.8633674259407234  0.04255916791730393  1.0000
  C   C13       1.0  0.5048547794805032  0.5325873646995164  0.73927650499337  1.0000
  C   C14       1.0  0.9951451253379274  0.032586112593080016  0.7607229570837789  1.0000
  C   C15       1.0  0.49514473465547587  0.4674137882486633  0.26072330762827534  1.0000
  C   C16       1.0  0.004854388798293  0.9674130803923334  0.23927685553817213  1.0000
  C   C17       1.0  0.37196196005918836  0.5885550623610458  0.9187264950409643  1.0000
  C   C18       1.0  0.12804098998513072  0.08855492297446692  0.5812735768802355  1.0000
  C   C19       1.0  0.6280385907165568  0.41144511060547734  0.08127429402814812  1.0000
  C   C20       1.0  0.8719606028513309  0.9114442700107123  0.41872640739693173  1.0000
  C   C21       1.0  0.2896622237686374  0.47991334982736333  0.9415998949224829  1.0000
  C   C22       1.0  0.21033855602096452  0.9799136471226647  0.5583989928648309  1.0000
  C   C23       1.0  0.7103372930779415  0.5200868231395859  0.05839902707960934  1.0000
  C   C24       1.0  0.7896619974652523  0.020086525844021708  0.4416009055845721  1.0000
  C   C25       1.0  0.2049926776946833  0.4943261044689679  0.03412825064133072  1.0000
  C   C26       1.0  0.2950085206874462  0.9943262417105104  0.4658711851806885  1.0000
  C   C27       1.0  0.7950057943808063  0.5056740684977825  0.9658723667725654  1.0000
  C   C28       1.0  0.7049930694385367  0.005672951274519302  0.5341296897161883  1.0000
  C   C29       1.0  0.2025914915565679  0.6110330556869812  0.10233960473990321  1.0000
  C   C30       1.0  0.2974087570870267  0.11103473242842915  0.3976607552215726  1.0000
  C   C31       1.0  0.7974069805189217  0.3889671172797692  0.8976610126739929  1.0000
  C   C32       1.0  0.7025928330387217  0.8889664205193671  0.6023401196749987  1.0000
  C   C33       1.0  0.28490289376915  0.7179431410058967  0.0800738329072104  1.0000
  C   C34       1.0  0.21509836847379663  0.21794286544761837  0.41992657959313123  1.0000
  C   C35       1.0  0.7150966176563428  0.2820580119421265  0.9199268703341448  1.0000
  C   C36       1.0  0.7849032243625516  0.7820573075189545  0.5800734046838869  1.0000
  C   C37       1.0  0.37041087998672134  0.7054717296790758  0.9860103045364  1.0000
  C   C38       1.0  0.12959100254598613  0.2054735737526557  0.5139896451520444  1.0000
  C   C39       1.0  0.6295896734996163  0.29452746330621693  0.013989593913159123  1.0000
  C   C40       1.0  0.8704095509402379  0.7945265992140241  0.48601025329735853  1.0000
  N   N1        1.0  0.2129028105542403  0.5232393890194872  0.5175785576667026  1.0000
  N   N2        1.0  0.2870960005324079  0.023239077775194503  0.9824203006620069  1.0000
  N   N3        1.0  0.7870977429319765  0.4767607839471921  0.4824213407827075  1.0000
  N   N4        1.0  0.7129024742535677  0.9767610951917123  0.017579426132179818  1.0000
  N   N5        1.0  0.40734972342034587  0.5461767943645911  0.6340336865432692  1.0000
  N   N6        1.0  0.092650118781215  0.04617558101529801  0.8659661410907803  1.0000
  N   N7        1.0  0.59264979342624  0.4538233786023653  0.36596523545882326  1.0000
  N   N8        1.0  0.9073493953549986  0.9538236119701153  0.13403367153117077  1.0000
  N   N9        1.0  0.46598854537021595  0.6138826867998761  0.8370904298687025  1.0000
  N   N10       1.0  0.0340123225837772  0.11388253629601762  0.6629085718912081  1.0000
  N   N11       1.0  0.5340109687658839  0.38611748616691705  0.16290938275309236  1.0000
  N   N12       1.0  0.9659871942628017  0.8861176366709318  0.3370903501108843  1.0000
  N   N13       1.0  0.5169717432128421  0.7369516818099202  0.8505332123853508  1.0000
  N   N14       1.0  0.9830291490208155  0.23695047132807903  0.6494671625053174  1.0000
  N   N15       1.0  0.4830277709231368  0.26304947113825966  0.1494666002362948  1.0000
  N   N16       1.0  0.016970365115398095  0.7630487216573274  0.35053265011663376  1.0000
  N   N17       1.0  0.46167938824539334  0.7920021254990249  0.9398942428545355  1.0000
  N   N18       1.0  0.03832143409519519  0.29200201053078706  0.5601055940632733  1.0000
  N   N19       1.0  0.5383211652408234  0.20799804746765468  0.06010565559487452  1.0000
  N   N20       1.0  0.9616780800410181  0.7079971824546263  0.43989421855867755  1.0000
  N   N21       1.0  0.0420621250415323  0.662889652307712  0.7441571539985787  1.0000
  N   N22       1.0  0.4579366496976292  0.16288938893109164  0.755842551466337  1.0000
  N   N23       1.0  0.9579373863840812  0.3371105206589179  0.2558435492429254  1.0000
  N   N24       1.0  0.5420628671490704  0.8371098040544782  0.24415637053591155  1.0000
  O   O1        1.0  0.9893296648683928  0.5576777901780404  0.6950738827602339  1.0000
  O   O2        1.0  0.5106702339065947  0.05767661388448893  0.8049255715043914  1.0000
  O   O3        1.0  0.0106708859072242  0.4423233627698623  0.3049269063087224  1.0000
  O   O4        1.0  0.48933136435083197  0.9423225791010024  0.19507263153336404  1.0000
  O   O5        1.0  0.14893437247449984  0.7140417370781833  0.7071957737601695  1.0000
  O   O6        1.0  0.3510643899439856  0.21404050082301762  0.7928039157774478  1.0000
  O   O7        1.0  0.8510661783011243  0.28595941586972634  0.2928050153087868  1.0000
  O   O8        1.0  0.6489340902633102  0.7859567322000484  0.20719402977778867  1.0000
  O   O9        1.0  0.9838775830686403  0.7141641345265699  0.8284096281285047  1.0000
  O   O10       1.0  0.5161212386637501  0.21416496431135104  0.6715896915823835  1.0000
  O   O11       1.0  0.016121931067459603  0.2858360384402233  0.17159018449329722  1.0000
  O   O12       1.0  0.48387931482211843  0.7858381485994815  0.3284102068665646  1.0000
