data_image0
_chemical_formula_structural       ZnH8C10Se2N6
_chemical_formula_sum              "Zn1 H8 C10 Se2 N6"
_cell_length_a       7.043864304278718
_cell_length_b       7.259425971438977
_cell_length_c       7.259442468386727
_cell_angle_alpha    91.00400985167113
_cell_angle_beta     108.32824744807687
_cell_angle_gamma    108.32613607220979

_space_group_name_H-M_alt    "P 1"
_space_group_IT_number       1

loop_
  _space_group_symop_operation_xyz
  'x, y, z'

loop_
  _atom_site_type_symbol
  _atom_site_label
  _atom_site_symmetry_multiplicity
  _atom_site_fract_x
  _atom_site_fract_y
  _atom_site_fract_z
  _atom_site_occupancy
  Zn  Zn1       1.0  0.9999928230432715  0.49999564989228423  0.49999954032524146  1.0000
  H   H1        1.0  0.6912261526717032  0.2857717932663775  0.063821558972144  1.0000
  H   H2        1.0  0.30876276043640166  0.9361711621611235  0.7142450644260308  1.0000
  H   H3        1.0  0.3087751867434889  0.7142370233031201  0.9361793120327704  1.0000
  H   H4        1.0  0.6912304997604082  0.0638318263483342  0.2857490321021318  1.0000
  H   H5        1.0  0.7101038830297954  0.2884394563609263  0.7237705444362562  1.0000
  H   H6        1.0  0.28988505702221096  0.2762155838428698  0.7115666327803396  1.0000
  H   H7        1.0  0.28989616854484984  0.7115620197094403  0.27623668767039083  1.0000
  H   H8        1.0  0.7101036134298511  0.723766902792775  0.2884284345025422  1.0000
  C   C1        1.0  0.5045841223323606  0.2974361483965779  0.2974320989110241  1.0000
  C   C2        1.0  0.495416451724509  0.7025624220875529  0.7025669842441502  1.0000
  C   C3        1.0  0.8305336652903889  0.38192797742412665  0.036508436978593295  1.0000
  C   C4        1.0  0.1694823463817131  0.9634810825369515  0.6180994756981663  1.0000
  C   C5        1.0  0.16945436311024054  0.6180691438416375  0.9634908023643122  1.0000
  C   C6        1.0  0.83054484463414  0.03650863367432319  0.3819106025975502  1.0000
  C   C7        1.0  0.8399321386829471  0.38306029120317225  0.8477837442266252  1.0000
  C   C8        1.0  0.1600709073939086  0.1522261111437615  0.6169574690681757  1.0000
  C   C9        1.0  0.1600629795380542  0.6169397517587426  0.15221502188985883  1.0000
  C   C10       1.0  0.8399523773391381  0.8478060611091038  0.38306034483611034  1.0000
  Se  Se1       1.0  0.26342954063196794  0.13117934363435785  0.1311799682198043  1.0000
  Se  Se2       1.0  0.7365367174565733  0.8687988275660101  0.8687983232704966  1.0000
  N   N1        1.0  0.6704796554726187  0.4045127143021716  0.4045063271527597  1.0000
  N   N2        1.0  0.3295415773940463  0.5954975064871846  0.5955063451686655  1.0000
  N   N3        1.0  0.990743036429606  0.4985322335018979  0.18906514557507856  1.0000
  N   N4        1.0  0.009236780095385278  0.8109214185300433  0.5014595270498106  1.0000
  N   N5        1.0  0.009257068046515798  0.501469254790159  0.8109379705951412  1.0000
  N   N6        1.0  0.990751127533436  0.18906694446040717  0.498529886475069  1.0000
