data_image0
_chemical_formula_structural       Zn8H43C60NO26
_chemical_formula_sum              "Zn8 H43 C60 N1 O26"
_cell_length_a       18.41022838270034
_cell_length_b       18.642566021439873
_cell_length_c       18.48196233643634
_cell_angle_alpha    120.20560376390597
_cell_angle_beta     119.78037862577722
_cell_angle_gamma    90.06942444239785

_space_group_name_H-M_alt    "P 1"
_space_group_IT_number       1

loop_
  _space_group_symop_operation_xyz
  'x, y, z'

loop_
  _atom_site_type_symbol
  _atom_site_label
  _atom_site_symmetry_multiplicity
  _atom_site_fract_x
  _atom_site_fract_y
  _atom_site_fract_z
  _atom_site_occupancy
  Zn  Zn1       1.0  0.4537772271381328  0.536450365344166  0.5804231972019525  1.0000
  Zn  Zn2       1.0  0.4532667200044713  0.5425475932353906  0.41116534939812516  1.0000
  Zn  Zn3       1.0  0.4551540558445737  0.36672880653482315  0.4089425321550806  1.0000
  Zn  Zn4       1.0  0.6277826863690095  0.5363159662348381  0.5762303317540474  1.0000
  Zn  Zn5       1.0  0.0472329821105859  0.9543566846766539  0.41503060791263385  1.0000
  Zn  Zn6       1.0  0.04195864933743821  0.12675682584136183  0.5824347881632335  1.0000
  Zn  Zn7       1.0  0.042207586099237894  0.9551151051066783  0.5851811113406528  1.0000
  Zn  Zn8       1.0  0.869719188147741  0.955053919922101  0.4119869579451175  1.0000
  H   H1        1.0  0.6909083478547091  0.7865235404456996  0.08977047995041693  1.0000
  H   H2        1.0  0.945566305876824  0.7010474407302782  0.5504459454318823  1.0000
  H   H3        1.0  0.8502941730294468  0.8109176453134384  0.07935974085999929  1.0000
  H   H4        1.0  0.9736404776572486  0.7937378643334798  0.6703364301056852  1.0000
  H   H5        1.0  0.8482370525218029  0.6067755070420588  0.5509143751644031  1.0000
  H   H6        1.0  0.8763681316749086  0.6985552692121858  0.6713247312470757  1.0000
  H   H7        1.0  0.29448697267217483  0.182777629599464  0.0923962197954468  1.0000
  H   H8        1.0  0.19778878316247983  0.08770839945417921  0.9021697491057027  1.0000
  H   H9        1.0  0.2456536788338255  0.37005963952368154  0.9004809205732158  1.0000
  H   H10       1.0  0.148846217374313  0.36993965512536436  0.9004034684572346  1.0000
  H   H11       1.0  0.3418725428843743  0.4668478789411523  0.09359481246325167  1.0000
  H   H12       1.0  0.25557994019676766  0.4625400251251505  0.630453342356482  1.0000
  H   H13       1.0  0.24516703804742693  0.46623799904465113  0.09353798592159283  1.0000
  H   H14       1.0  0.5971482861246642  0.7072169809247697  0.9017357420203211  1.0000
  H   H15       1.0  0.24275266499373774  0.8407116264966492  0.6555113591982222  1.0000
  H   H16       1.0  0.1320548863769915  0.718564770087646  0.27358760660621334  1.0000
  H   H17       1.0  0.22488324159868261  0.8129707318073404  0.3449795829115559  1.0000
  H   H18       1.0  0.23260276579249253  0.6262538056003065  0.2806849565041816  1.0000
  H   H19       1.0  0.32527826674355953  0.7210953383409304  0.35299447083104246  1.0000
  H   H20       1.0  0.767511198245714  0.6842463757657314  0.9131016150271308  1.0000
  H   H21       1.0  0.3492786867513687  0.19083165687113995  0.44182920095209255  1.0000
  H   H22       1.0  0.2589364177400171  0.0951977103637063  0.4456393613721588  1.0000
  H   H23       1.0  0.5909858529902295  0.18578400779686902  0.42540603549750955  1.0000
  H   H24       1.0  0.0796508133102805  0.316434460768548  0.5055826361787368  1.0000
  H   H25       1.0  0.1667211706647933  0.36676625294998644  0.6367243737568274  1.0000
  H   H26       1.0  0.7845318164696096  0.4627335775578345  0.5025543258281359  1.0000
  H   H27       1.0  0.8893250956803486  0.4885866973994056  0.5438411980826672  1.0000
  H   H28       1.0  0.28313159450848974  0.6171913135607883  0.6177064574425588  1.0000
  H   H29       1.0  0.32990314957501704  0.6850121393511515  0.750931416732456  1.0000
  H   H30       1.0  0.23212737803713426  0.6920254292624578  0.6643820484583146  1.0000
  H   H31       1.0  0.41757536046062443  0.7450370903333339  0.713155603468593  1.0000
  H   H32       1.0  0.36643260457078247  0.8192758823788823  0.7588512077493944  1.0000
  H   H33       1.0  0.04927602062272741  0.4427634519330113  0.5014147628266841  1.0000
  H   H34       1.0  0.6866733316519175  0.09177905296004953  0.42897990530943286  1.0000
  H   H35       1.0  0.14045641113073512  0.5389158616036697  0.574799163379261  1.0000
  H   H36       1.0  0.0608337298203381  0.48873316109961723  0.4422822685441616  1.0000
  H   H37       1.0  0.19834425166511246  0.44990057348262985  0.46978256161276016  1.0000
  H   H38       1.0  0.10877587958079002  0.3545550155042039  0.4000567209750656  1.0000
  H   H39       1.0  0.9755125126377706  0.3720694372919838  0.6508817882265987  1.0000
  H   H40       1.0  0.9324440379089652  0.33480164794831074  0.522485877574951  1.0000
  H   H41       1.0  0.8789090860480967  0.4650227085904747  0.6570140107405251  1.0000
  H   H42       1.0  0.5885872248723345  0.7303573431827032  0.4147120579096821  1.0000
  H   H43       1.0  0.6842974835366462  0.8238676364056801  0.4139249271559392  1.0000
  C   C1        1.0  0.6355241839990882  0.6358294928983597  0.4951895968293842  1.0000
  C   C2        1.0  0.20731417816361392  0.40015399650364725  0.5556050379083503  1.0000
  C   C3        1.0  0.7821946910650438  0.33171647746841876  0.5323893617605931  1.0000
  C   C4        1.0  0.3579757614524653  0.35642984731780564  0.4928067477974879  1.0000
  C   C5        1.0  0.6932633394583265  0.30058147961612053  0.4932855228510038  1.0000
  C   C6        1.0  0.6602209959028756  0.21239828183748005  0.45629996835802444  1.0000
  C   C7        1.0  0.7139530797177399  0.15980067455108576  0.4584859790894029  1.0000
  C   C8        1.0  0.8038935652932723  0.19198972227439987  0.4977094295607429  1.0000
  C   C9        1.0  0.8359368723666094  0.27916902335910276  0.534034762118722  1.0000
  C   C10       1.0  0.915163687902414  0.34984054144617016  0.576428233981737  1.0000
  C   C11       1.0  0.8552929774362211  0.41085455026990303  0.5779913928085847  1.0000
  C   C12       1.0  0.6977616822921674  0.6782965257693905  0.8808307818595225  1.0000
  C   C13       1.0  0.7831012661705825  0.7039787949736863  0.5404510907607971  1.0000
  C   C14       1.0  0.6929805934130187  0.692626795670762  0.4958465517521874  1.0000
  C   C15       1.0  0.6587469715647672  0.7374237583438941  0.4500283352432319  1.0000
  C   C16       1.0  0.3701747843147131  0.6454711808686399  0.5110871051228189  1.0000
  C   C17       1.0  0.7123502903414973  0.7897793416529596  0.44951722636478314  1.0000
  C   C18       1.0  0.8035366373141102  0.8004595010975848  0.4944257983034534  1.0000
  C   C19       1.0  0.8368033457264021  0.7561600318853223  0.539619365925688  1.0000
  C   C20       1.0  0.9188022054767159  0.7365555032214531  0.5947586802892318  1.0000
  C   C21       1.0  0.857959565389045  0.6774154173419407  0.5955272236839094  1.0000
  C   C22       1.0  0.27242570624416373  0.3403088366332909  0.05051530980345843  1.0000
  C   C23       1.0  0.24719830687433128  0.3276677414443796  0.5259255699916422  1.0000
  C   C24       1.0  0.3012099572593455  0.30524823270454965  0.10717465214175091  1.0000
  C   C25       1.0  0.2730110811099777  0.21240572178516712  0.050517762648119864  1.0000
  C   C26       1.0  0.218887467315227  0.15914717196670844  0.9439107229665142  1.0000
  C   C27       1.0  0.19012289036599841  0.19521180457538637  0.8870647730626048  1.0000
  C   C28       1.0  0.6356486251528112  0.35623506331138094  0.48979397200220376  1.0000
  C   C29       1.0  0.21880049337949714  0.2868539508106879  0.9435349965339128  1.0000
  C   C30       1.0  0.2152063419084058  0.3644918391872523  0.9364577818382998  1.0000
  C   C31       1.0  0.2756600682774035  0.4249779711400309  0.05751861046528725  1.0000
  C   C32       1.0  0.27795637756219094  0.7212864282037474  0.4421385364537543  1.0000
  C   C33       1.0  0.3200093112995718  0.708500729286584  0.519723879500397  1.0000
  C   C34       1.0  0.30340396814034415  0.3000593319382361  0.495376374826641  1.0000
  C   C35       1.0  0.30842139007049957  0.7553216159584581  0.6004010652173194  1.0000
  C   C36       1.0  0.2521794951053948  0.8059960989347347  0.5941702270481528  1.0000
  C   C37       1.0  0.2065417542172909  0.8147300786099549  0.5128657691722012  1.0000
  C   C38       1.0  0.22280156346416655  0.7723731599406424  0.43800924390913576  1.0000
  C   C39       1.0  0.202008129266396  0.7545995471541004  0.3390891862401729  1.0000
  C   C40       1.0  0.3583421023404796  0.3613565900374241  0.22093359455308806  1.0000
  C   C41       1.0  0.26477272938043944  0.6967484106252826  0.34369350578077734  1.0000
  C   C42       1.0  0.8602668059561794  0.1349171895031206  0.4978733471092341  1.0000
  C   C43       1.0  0.1445697316402672  0.8659930284740796  0.50790128844978  1.0000
  C   C44       1.0  0.14393210949032922  0.13269904453919423  0.5013857798172694  1.0000
  C   C45       1.0  0.30618595271725013  0.21454593423862894  0.466393513149484  1.0000
  C   C46       1.0  0.8601775258104639  0.856280846111652  0.4932819900049524  1.0000
  C   C47       1.0  0.1326460523142927  0.1374177504888294  0.7732639622505247  1.0000
  C   C48       1.0  0.8657352446770974  0.868784710092989  0.2242325431187599  1.0000
  C   C49       1.0  0.6379450530352528  0.6235803046359933  0.7678609925892063  1.0000
  C   C50       1.0  0.7239172392344456  0.775325698069331  0.05139098648979268  1.0000
  C   C51       1.0  0.8125941446708823  0.8159103677383402  0.11124018730513555  1.0000
  C   C52       1.0  0.6685729770232101  0.7189708792537249  0.940360235211152  1.0000
  C   C53       1.0  0.35327197058091997  0.7542374658856448  0.6940773520716733  1.0000
  C   C54       1.0  0.29618420360417735  0.6828149814891306  0.6809636451578954  1.0000
  C   C55       1.0  0.15283011682559794  0.41807723006761693  0.4754232023215437  1.0000
  C   C56       1.0  0.2557314575581984  0.16100271776515743  0.4687859176963301  1.0000
  C   C57       1.0  0.09784728152595792  0.4752570807042035  0.49981736799624343  1.0000
  C   C58       1.0  0.19941906521150093  0.18980701046005782  0.5004841502201529  1.0000
  C   C59       1.0  0.19693061028694817  0.27408454032324414  0.5285522436091555  1.0000
  C   C60       1.0  0.15208391548551248  0.33968162944060504  0.5608544578796497  1.0000
  N   N1        1.0  0.8358433780871692  0.4385278578667454  0.5110468581942628  1.0000
  O   O1        1.0  0.4976284540318901  0.4959607869294518  0.49400836464977266  1.0000
  O   O2        1.0  0.9438407798399097  0.8718540050164805  0.5483824290953123  1.0000
  O   O3        1.0  0.1160488335820631  0.17610492973282993  0.728792929158182  1.0000
  O   O4        1.0  0.6758730630076286  0.6111306415063708  0.5537238787109544  1.0000
  O   O5        1.0  0.8245502725463468  0.8840336547996657  0.2665633360906201  1.0000
  O   O6        1.0  0.1048054980168303  0.054678158643668  0.7297770806962305  1.0000
  O   O7        1.0  0.9499986431374197  0.894089785527008  0.2695845025761302  1.0000
  O   O8        1.0  0.13463770925544344  0.05081037110137031  0.4541082213566341  1.0000
  O   O9        1.0  0.820976621383629  0.8838190741596178  0.43788565015623243  1.0000
  O   O10       1.0  0.9439408371546919  0.17449197273540323  0.5543160754618486  1.0000
  O   O11       1.0  0.129137167447972  0.8966864077345135  0.5762169328708353  1.0000
  O   O12       1.0  0.3874681138887724  0.6157873658664246  0.5647369444809274  1.0000
  O   O13       1.0  0.3721094068055351  0.43928358835705694  0.5467894177852345  1.0000
  O   O14       1.0  0.38976670647047473  0.623628124465739  0.44702458236409365  1.0000
  O   O15       1.0  0.5526864924937273  0.31847060189321763  0.44018481648517854  1.0000
  O   O16       1.0  0.377270802889079  0.44459460789347816  0.26529482289106443  1.0000
  O   O17       1.0  0.6767221278733827  0.5986771541174108  0.7221771298063899  1.0000
  O   O18       1.0  0.3834364220318847  0.3218240250843749  0.26445647398870153  1.0000
  O   O19       1.0  0.5543446409924114  0.6060539844757571  0.7256216021404356  1.0000
  O   O20       1.0  0.6744225575562409  0.4382393062434957  0.5372830945844882  1.0000
  O   O21       1.0  0.5517121638829678  0.6161704827375374  0.4367039319202348  1.0000
  O   O22       1.0  0.3863002462428611  0.31789668339889227  0.4374328598016319  1.0000
  O   O23       1.0  0.9998781640989592  0.9974955364188816  0.49822120581381313  1.0000
  O   O24       1.0  0.8208831154230083  0.05194674905800413  0.441920422054885  1.0000
  O   O25       1.0  0.11106610997281763  0.8743387088472333  0.43426461478291867  1.0000
  O   O26       1.0  0.1093238593407975  0.1711985987850611  0.5494974134755922  1.0000
