data_image0
_chemical_formula_structural       Ca4H16C16O24
_chemical_formula_sum              "Ca4 H16 C16 O24"
_cell_length_a       7.917226117006596
_cell_length_b       9.4690115426514
_cell_length_c       9.637055851339342
_cell_angle_alpha    118.12090496917847
_cell_angle_beta     114.2516632953814
_cell_angle_gamma    90.00804101140463

_space_group_name_H-M_alt    "P 1"
_space_group_IT_number       1

loop_
  _space_group_symop_operation_xyz
  'x, y, z'

loop_
  _atom_site_type_symbol
  _atom_site_label
  _atom_site_symmetry_multiplicity
  _atom_site_fract_x
  _atom_site_fract_y
  _atom_site_fract_z
  _atom_site_occupancy
  Ca  Ca1       1.0  0.6069509910559744  0.7010080153920127  0.7502965249537751  1.0000
  Ca  Ca2       1.0  0.8566676937539268  0.7989995809383215  0.2496857539160969  1.0000
  Ca  Ca3       1.0  0.39304957637283877  0.2989913479641827  0.24970295662869546  1.0000
  Ca  Ca4       1.0  0.14333287367488617  0.200999782417874  0.7503137276663736  1.0000
  H   H1        1.0  0.9805509516263413  0.3541300031815097  0.14939710063097766  1.0000
  H   H2        1.0  0.8310940653663437  0.145909737831758  0.8505432557444123  1.0000
  H   H3        1.0  0.01944961580247203  0.6458693601746858  0.850602380951493  1.0000
  H   H4        1.0  0.16890650206246954  0.8540896255244376  0.14945622583805815  1.0000
  H   H5        1.0  0.7331341653472804  0.4385946579436321  0.2652420444944709  1.0000
  H   H6        1.0  0.46791154411685193  0.06151970975318478  0.7348602782005216  1.0000
  H   H7        1.0  0.2668667452360863  0.5614059391827766  0.7347581232154923  1.0000
  H   H8        1.0  0.5320890233119613  0.938479653603018  0.2651392033819562  1.0000
  H   H9        1.0  0.06773646141596147  0.15071768347898024  0.3080883100896088  1.0000
  H   H10       1.0  0.7596481433125105  0.3493553214256693  0.6918768616243725  1.0000
  H   H11       1.0  0.9322630653188569  0.8492829142295975  0.6919124295623504  1.0000
  H   H12       1.0  0.24035138342230766  0.6506452762829084  0.3081238780275868  1.0000
  H   H13       1.0  0.9520092740946636  0.385609462934056  0.4554344498660681  1.0000
  H   H14       1.0  0.4964299545321468  0.11435041102537008  0.5445158144669833  1.0000
  H   H15       1.0  0.04799163814688974  0.6143911354357457  0.5445667566395898  1.0000
  H   H16       1.0  0.5035709560512203  0.8856501861010315  0.45548435324297987  1.0000
  C   C1        1.0  0.8305840384988485  0.0336385307719027  0.051221085438143556  1.0000
  C   C2        1.0  0.7792991836854738  0.4663640654804552  0.9486945742765445  1.0000
  C   C3        1.0  0.16941514342322953  0.9663608319230758  0.948777929290621  1.0000
  C   C4        1.0  0.22070311406281456  0.5336365335505632  0.05130709908281963  1.0000
  C   C5        1.0  0.9620903592965105  0.19121409274929138  0.22689802028428818  1.0000
  C   C6        1.0  0.7351345310304894  0.3088171463975796  0.7730095848979133  1.0000
  C   C7        1.0  0.03790882262556746  0.8087852699456872  0.7731009944444835  1.0000
  C   C8        1.0  0.2648646508915887  0.6911822162973917  0.22698942983085146  1.0000
  C   C9        1.0  0.8492525881775277  0.276745495169564  0.32846993424925586  1.0000
  C   C10       1.0  0.5207123736880064  0.2232541740825553  0.6714646066155295  1.0000
  C   C11       1.0  0.15074693689909677  0.7232551012956205  0.6715297666070014  1.0000
  C   C12       1.0  0.47928715304681196  0.7767464236260151  0.32853613303642226  1.0000
  C   C13       1.0  0.7768558458899406  0.16456509671545658  0.3758971436179905  1.0000
  C   C14       1.0  0.40092016087392307  0.33542284373992703  0.6240540353748472  1.0000
  C   C15       1.0  0.22314367918669126  0.8354354997497282  0.6241025572382668  1.0000
  C   C16       1.0  0.5990793642027085  0.6645777527252577  0.37594566548141006  1.0000
  O   O1        1.0  0.7646188166570055  0.9191567540994398  0.0638773629395997  1.0000
  O   O2        1.0  0.7007335114661186  0.5808558559783207  0.9360663394156604  1.0000
  O   O3        1.0  0.23538071007781272  0.08084384360913789  0.9361233767123524  1.0000
  O   O4        1.0  0.29926567211414573  0.41914350796005095  0.06393371410879918  1.0000
  O   O5        1.0  0.7908695900749193  0.016532637749151  0.9022612880309281  1.0000
  O   O6        1.0  0.8885013986927887  0.4834516792061407  0.09766008862062825  1.0000
  O   O7        1.0  0.20913132050844752  0.9834679593772576  0.09773887967903501  1.0000
  O   O8        1.0  0.1114995135487646  0.5165489191636539  0.9023411178850297  1.0000
  O   O9        1.0  0.06502887245496679  0.29897088492835167  0.20960978853216256  1.0000
  O   O10       1.0  0.8553179505543439  0.20106578143410292  0.790303724483806  1.0000
  O   O11       1.0  0.9349703094671183  0.701028477766627  0.7903892261966092  1.0000
  O   O12       1.0  0.14468157618047436  0.7989348162744747  0.20969701516814612  1.0000
  O   O13       1.0  0.6934949408791767  0.32163430295817347  0.23036696257585718  1.0000
  O   O14       1.0  0.4631726179653341  0.17847925001588286  0.769736779259283  1.0000
  O   O15       1.0  0.30650562654963653  0.678365060398029  0.7696325190066132  1.0000
  O   O16       1.0  0.5368282942762191  0.8215213483539116  0.23026442724637503  1.0000
  O   O17       1.0  0.6018328218054663  0.14007253346223078  0.3368187660516071  1.0000
  O   O18       1.0  0.2650061167812012  0.35990233660992743  0.6631855171885661  1.0000
  O   O19       1.0  0.39816774562334695  0.8599268298939645  0.6631807155308634  1.0000
  O   O20       1.0  0.7349947938021658  0.640098260516474  0.336814650521397  1.0000
  O   O21       1.0  0.8963159332782665  0.10139806221260979  0.45140787268340427  1.0000
  O   O22       1.0  0.44480816250658245  0.39863772172459727  0.5485493628917552  1.0000
  O   O23       1.0  0.10368497896328674  0.8986025361571844  0.5485933338222538  1.0000
  O   O24       1.0  0.5551927480767772  0.6013628754018042  0.4514508048182079  1.0000
