data_image0
_chemical_formula_structural       Zn4H32C40N8Cl8
_chemical_formula_sum              "Zn4 H32 C40 N8 Cl8"
_cell_length_a       4.5168844851726675
_cell_length_b       12.502067118250416
_cell_length_c       18.596550270897758
_cell_angle_alpha    89.99936447618587
_cell_angle_beta     90.00094549583842
_cell_angle_gamma    90.00031520311057

_space_group_name_H-M_alt    "P 1"
_space_group_IT_number       1

loop_
  _space_group_symop_operation_xyz
  'x, y, z'

loop_
  _atom_site_type_symbol
  _atom_site_label
  _atom_site_symmetry_multiplicity
  _atom_site_fract_x
  _atom_site_fract_y
  _atom_site_fract_z
  _atom_site_occupancy
  Zn  Zn1       1.0  0.9442500921302608  0.2499954466604208  0.391459084592526  1.0000
  Zn  Zn2       1.0  0.4442697649486931  0.7500066628859727  0.10854405625974548  1.0000
  Zn  Zn3       1.0  0.5557556150266904  0.24999816920448129  0.8914574779833584  1.0000
  Zn  Zn4       1.0  0.055755362602461396  0.7500109851524925  0.6085419118698281  1.0000
  H   H1        1.0  0.7072794841917653  0.4150703762905295  0.2904709776948521  1.0000
  H   H2        1.0  0.20727429997685215  0.5849289186597987  0.20952528094571216  1.0000
  H   H3        1.0  0.7927194866919719  0.08492571020043728  0.7904710279931491  1.0000
  H   H4        1.0  0.2927154993234708  0.9150686616213263  0.7095357817854759  1.0000
  H   H5        1.0  0.29271932864133987  0.5849264571216396  0.7095278678530688  1.0000
  H   H6        1.0  0.7927222990585036  0.41507751315424457  0.7904746400302824  1.0000
  H   H7        1.0  0.2072948237287875  0.9150775221359737  0.20953158170159714  1.0000
  H   H8        1.0  0.7072788858489076  0.0849249722671246  0.2904689788408702  1.0000
  H   H9        1.0  0.40384327633081085  0.42346163576182505  0.18013212102926693  1.0000
  H   H10       1.0  0.9038465302871611  0.5765380034403051  0.31986601528797814  1.0000
  H   H11       1.0  0.09614268581785979  0.076551397853919  0.680132506914873  1.0000
  H   H12       1.0  0.5961584918145845  0.9234498285052907  0.8198751138355287  1.0000
  H   H13       1.0  0.5961643921935432  0.5765407967366372  0.819866186781766  1.0000
  H   H14       1.0  0.09614121280264949  0.4234540307869493  0.6801290661162083  1.0000
  H   H15       1.0  0.9038649827144024  0.9234414362095791  0.31986848960255526  1.0000
  H   H16       1.0  0.4038447490917321  0.07655020432827797  0.1801301845192284  1.0000
  H   H17       1.0  0.1200999763011836  0.076265881141758  0.09814450838753426  1.0000
  H   H18       1.0  0.6201278977257444  0.9237372604359633  0.401858385063626  1.0000
  H   H19       1.0  0.37987387504431774  0.42374450957786536  0.5981418571368236  1.0000
  H   H20       1.0  0.8799069463748167  0.576257213799927  0.9018561668936652  1.0000
  H   H21       1.0  0.8798678420308973  0.9237341516430032  0.9018629408315203  1.0000
  H   H22       1.0  0.37985098967853037  0.0762603728754101  0.5981345453651057  1.0000
  H   H23       1.0  0.6201027986468758  0.576257922897895  0.4018559128768187  1.0000
  H   H24       1.0  0.12012728903572877  0.4237484182238375  0.09813837682068537  1.0000
  H   H25       1.0  0.7914332929087351  0.08442012144213613  0.9924697821498394  1.0000
  H   H26       1.0  0.2914623318514131  0.9155806471911915  0.5075257300063567  1.0000
  H   H27       1.0  0.7085393018345698  0.41557902201203234  0.4924729596804836  1.0000
  H   H28       1.0  0.20857155489007786  0.5844154758866013  0.007533521144416998  1.0000
  H   H29       1.0  0.20852124176538916  0.9155815111109291  0.007532289694736998  1.0000
  H   H30       1.0  0.7085342669432747  0.0844185858578044  0.4924688136549874  1.0000
  H   H31       1.0  0.29143073020377835  0.5844154117406148  0.5075296499566233  1.0000
  H   H32       1.0  0.7914626805649475  0.4155869566484682  0.992463173518402  1.0000
  C   C1        1.0  0.6288434059113681  0.3423809428473136  0.26452756651237047  1.0000
  C   C2        1.0  0.12887439941432885  0.6576214142138214  0.2354710607574687  1.0000
  C   C3        1.0  0.8711139840071737  0.15762197176656662  0.7645273962542019  1.0000
  C   C4        1.0  0.37113705566231653  0.8423709376535058  0.735478120316827  1.0000
  C   C5        1.0  0.3711443372143108  0.657611091371045  0.7354685903600993  1.0000
  C   C6        1.0  0.8711332691211454  0.34238021841245825  0.7645277847906795  1.0000
  C   C7        1.0  0.12888482882842572  0.8423772612532332  0.23547091155065647  1.0000
  C   C8        1.0  0.6288639712203192  0.1576226962496605  0.2645255648547859  1.0000
  C   C9        1.0  0.45535676109908957  0.3456431599749337  0.20306096156301115  1.0000
  C   C10       1.0  0.9553730948211406  0.6543605688046555  0.2969363095280641  1.0000
  C   C11       1.0  0.04461966091100319  0.15437109403271881  0.7030605585021019  1.0000
  C   C12       1.0  0.5446237557665653  0.8456252429458574  0.7969382482267587  1.0000
  C   C13       1.0  0.544650907384387  0.654354473317163  0.7969373462658634  1.0000
  C   C14       1.0  0.044623504154699796  0.3456346648523265  0.7030646869578587  1.0000
  C   C15       1.0  0.9553946491880365  0.8456217400810786  0.2969350606874598  1.0000
  C   C16       1.0  0.45537505710490905  0.1543739900650394  0.20306113504638282  1.0000
  C   C17       1.0  0.35750868680850084  0.25000235224668177  0.17140524631934534  1.0000
  C   C18       1.0  0.8575154777961984  0.7499924066304758  0.3285894745232695  1.0000
  C   C19       1.0  0.14249661861631316  0.25000202716345404  0.671412597465533  1.0000
  C   C20       1.0  0.6425211208064566  0.7499968808091494  0.8285919860804751  1.0000
  C   C21       1.0  0.1603441179601219  0.2500059052223875  0.10779896102041414  1.0000
  C   C22       1.0  0.6603772909419803  0.7499933075609703  0.3921971061517623  1.0000
  C   C23       1.0  0.33963923341569563  0.2500019260778785  0.6078081922479509  1.0000
  C   C24       1.0  0.8396701924513222  0.749994127638672  0.8922041864203717  1.0000
  C   C25       1.0  0.059250467077980276  0.1542571064905616  0.07687079384942307  1.0000
  C   C26       1.0  0.5592762648130645  0.8457451286839657  0.42312754939594993  1.0000
  C   C27       1.0  0.44072196532595587  0.34574803707454277  0.5768727350625225  1.0000
  C   C28       1.0  0.9407998486957609  0.6542449943108225  0.9231319902273183  1.0000
  C   C29       1.0  0.9407394903027322  0.8457453259479022  0.9231328912668881  1.0000
  C   C30       1.0  0.440726975902784  0.1542557040662587  0.5768718338802754  1.0000
  C   C31       1.0  0.559248066766898  0.654252795619918  0.4231298745507884  1.0000
  C   C32       1.0  0.05925209825048229  0.3457582380674395  0.07686954407594017  1.0000
  C   C33       1.0  0.8759109596374017  0.1573714016510053  0.017052751826874192  1.0000
  C   C34       1.0  0.37591069250201764  0.8426305882451076  0.48294365727802085  1.0000
  C   C35       1.0  0.6240675592835955  0.342633207656462  0.5170550370994106  1.0000
  C   C36       1.0  0.12411505613849268  0.6573696674123966  0.982947858065884  1.0000
  C   C37       1.0  0.12408785348586088  0.8426342302527701  0.9829525464980402  1.0000
  C   C38       1.0  0.6240881203335885  0.1573686447746852  0.5170546505268375  1.0000
  C   C39       1.0  0.37590911449726855  0.6573692247970582  0.4829454215849436  1.0000
  C   C40       1.0  0.8759125376378448  0.3426343648389647  0.01705044977985889  1.0000
  N   N1        1.0  0.7115732517755902  0.2499992336570713  0.2958032342427116  1.0000
  N   N2        1.0  0.21161480239157265  0.750000868712938  0.2041941174817054  1.0000
  N   N3        1.0  0.7883707270730297  0.24999996400399027  0.7958074166949484  1.0000
  N   N4        1.0  0.288423347249747  0.7499975997264697  0.7041988377055473  1.0000
  N   N5        1.0  0.7886936828895514  0.25000318459797205  0.9866761509762011  1.0000
  N   N6        1.0  0.2886870786645872  0.7499983790782848  0.5133188121896024  1.0000
  N   N7        1.0  0.7112918087576218  0.2499992542286478  0.4866746559732673  1.0000
  N   N8        1.0  0.21130734402353818  0.7500024473388863  0.013325383214237294  1.0000
  Cl  Cl1       1.0  0.1552983553341889  0.4134477337894323  0.39047550214536375  1.0000
  Cl  Cl2       1.0  0.6553253858627028  0.5865586688988812  0.10952807267337755  1.0000
  Cl  Cl3       1.0  0.3446684286366589  0.0865506217131937  0.8904714505688599  1.0000
  Cl  Cl4       1.0  0.8446766752372878  0.9134534395798466  0.609527505194343  1.0000
  Cl  Cl5       1.0  0.8446849603079156  0.5865618974661047  0.6095265697282028  1.0000
  Cl  Cl6       1.0  0.3446778547864184  0.41344696308439666  0.8904680841801562  1.0000
  Cl  Cl7       1.0  0.6553259565909286  0.9134558100722288  0.10953169680747976  1.0000
  Cl  Cl8       1.0  0.15532213764350186  0.0865489929064083  0.390471340332759  1.0000
