data_image0
_chemical_formula_structural       Cd4H16C32O16
_chemical_formula_sum              "Cd4 H16 C32 O16"
_cell_length_a       7.041255779035374
_cell_length_b       8.340921453371811
_cell_length_c       13.774293776560372
_cell_angle_alpha    106.68091151935465
_cell_angle_beta     89.99966725237422
_cell_angle_gamma    89.99995543806091

_space_group_name_H-M_alt    "P 1"
_space_group_IT_number       1

loop_
  _space_group_symop_operation_xyz
  'x, y, z'

loop_
  _atom_site_type_symbol
  _atom_site_label
  _atom_site_symmetry_multiplicity
  _atom_site_fract_x
  _atom_site_fract_y
  _atom_site_fract_z
  _atom_site_occupancy
  Cd  Cd1       1.0  0.3912535402249802  0.21380919129008893  0.07611173993094404  1.0000
  Cd  Cd2       1.0  0.1087468806283809  0.713806439764937  0.07611172944929474  1.0000
  Cd  Cd3       1.0  0.6087465925522225  0.7861931878423289  0.9238901089409945  1.0000
  Cd  Cd4       1.0  0.8912532521707065  0.28619212099832225  0.9238865798253496  1.0000
  H   H1        1.0  0.1532175493686481  0.19609820853516163  0.3850785451626989  1.0000
  H   H2        1.0  0.3467836394715746  0.6960936729747116  0.3850775270072118  1.0000
  H   H3        1.0  0.8467840036097626  0.8039041705956718  0.6149233037068523  1.0000
  H   H4        1.0  0.6532136529209394  0.30390490377787654  0.6149215109816522  1.0000
  H   H5        1.0  0.5163078135121778  0.9481111763591055  0.2875070839552974  1.0000
  H   H6        1.0  0.9836962670755796  0.4481123736738012  0.2875022034738065  1.0000
  H   H7        1.0  0.4836923192667939  0.051889951298470294  0.7124945566634789  1.0000
  H   H8        1.0  0.016305285925938096  0.5518911610149285  0.712495481392153  1.0000
  H   H9        1.0  0.9294263535303173  0.16810584616510474  0.519230464146595  1.0000
  H   H10       1.0  0.5705739373204679  0.6681068865104649  0.5192290204957286  1.0000
  H   H11       1.0  0.070573779252797  0.8318952655063114  0.48077044776272243  1.0000
  H   H12       1.0  0.42942619547093847  0.3318941931886385  0.48077043399467795  1.0000
  H   H13       1.0  0.6067583972801032  0.047194524366631185  0.4694775794901742  1.0000
  H   H14       1.0  0.8932454123697653  0.5471998167278399  0.46947442777996407  1.0000
  H   H15       1.0  0.393241735494719  0.9528066192770974  0.5305247898380612  1.0000
  H   H16       1.0  0.10675614062937201  0.452802482472208  0.5305237775422993  1.0000
  C   C1        1.0  0.11330395145410678  0.10705697810973187  0.18865779566829124  1.0000
  C   C2        1.0  0.3866967113398586  0.6070573751364345  0.18865820519005877  1.0000
  C   C3        1.0  0.8866961813349263  0.892942866100682  0.811342179278419  1.0000
  C   C4        1.0  0.6133020012497283  0.39294121760072176  0.8113415615058839  1.0000
  C   C5        1.0  0.9685245771529338  0.0780554092132775  0.2617479069173213  1.0000
  C   C6        1.0  0.5314758821471557  0.5780527826086439  0.2617459698140647  1.0000
  C   C7        1.0  0.0314712950300731  0.9219431995132152  0.7382525884928409  1.0000
  C   C8        1.0  0.4685228304442007  0.42194455865367064  0.7382535886287156  1.0000
  C   C9        1.0  0.788000153731666  0.005435637284271898  0.23371975542045922  1.0000
  C   C10       1.0  0.712000691962359  0.5054350937541797  0.2337168998407008  1.0000
  C   C11       1.0  0.21200139925205264  0.9945629874220284  0.7662814686896194  1.0000
  C   C12       1.0  0.2879966004301622  0.4945634829984085  0.7662821381481631  1.0000
  C   C13       1.0  0.014516579463609998  0.13820779096131733  0.36499394955912107  1.0000
  C   C14       1.0  0.4854820513482139  0.6382016776260782  0.36499152863238027  1.0000
  C   C15       1.0  0.9854807129129312  0.8617933366994347  0.6350076910644231  1.0000
  C   C16       1.0  0.5145195016497084  0.36179564764690747  0.6350073010961734  1.0000
  C   C17       1.0  0.6571509055195435  0.00045469823670169916  0.3097840648001763  1.0000
  C   C18       1.0  0.8428533415142424  0.500455113427705  0.3097809780241219  1.0000
  C   C19       1.0  0.3428506474582633  0.9995451939306004  0.6902180962725237  1.0000
  C   C20       1.0  0.1571453710783288  0.4995472017616718  0.690217956012368  1.0000
  C   C21       1.0  0.8877964672989974  0.12489517215558979  0.43969355025417645  1.0000
  C   C22       1.0  0.6122033472303626  0.6248885945274193  0.4396899885660302  1.0000
  C   C23       1.0  0.1122036654740555  0.8751072229629879  0.5603090273272142  1.0000
  C   C24       1.0  0.3878024663771171  0.3751074632797894  0.5603079041927612  1.0000
  C   C25       1.0  0.7080716153354984  0.056658639560616585  0.41162518348459526  1.0000
  C   C26       1.0  0.791934262720801  0.556660452122223  0.41162393338984044  1.0000
  C   C27       1.0  0.2919285174476158  0.9433424721107994  0.5883757284247222  1.0000
  C   C28       1.0  0.2080715508695405  0.4433418950315298  0.5883764580536377  1.0000
  C   C29       1.0  0.719778119892716  0.9292308234105132  0.1272457343213843  1.0000
  C   C30       1.0  0.780222117816585  0.42922997300536264  0.12724112067412816  1.0000
  C   C31       1.0  0.2802205926743682  0.07076910073227788  0.8727578841749943  1.0000
  C   C32       1.0  0.21977659478543637  0.570768571773321  0.8727564598934374  1.0000
  O   O1        1.0  0.2094059002338895  0.24255857294203045  0.21743618443687035  1.0000
  O   O2        1.0  0.29059714912641255  0.7425591849756326  0.21743691670313567  1.0000
  O   O3        1.0  0.7905928123563016  0.7574425067586642  0.7825632700559236  1.0000
  O   O4        1.0  0.7094044038638287  0.2574406592331967  0.7825630582411872  1.0000
  O   O5        1.0  0.138848232479404  0.0024697674212247993  0.10184566748769436  1.0000
  O   O6        1.0  0.36115067392227473  0.5024714570889798  0.10184564234394596  1.0000
  O   O7        1.0  0.8611504801101829  0.9975288253159316  0.8981540992082484  1.0000
  O   O8        1.0  0.6388494588750433  0.4975283551491214  0.8981528751838536  1.0000
  O   O9        1.0  0.8049806442822316  0.8020725124000592  0.06853295770462606  1.0000
  O   O10       1.0  0.6950161188247961  0.3020756070475342  0.06852925496658456  1.0000
  O   O11       1.0  0.1950138076995671  0.19792609632802535  0.9314675377079307  1.0000
  O   O12       1.0  0.30498259378136783  0.6979229217449969  0.9314675968915292  1.0000
  O   O13       1.0  0.5672103102715909  0.9801402284576496  0.09731685658010036  1.0000
  O   O14       1.0  0.9327959004648321  0.4801403041657861  0.09731266750213753  1.0000
  O   O15       1.0  0.43278982249255904  0.019859711669710085  0.9026874906233499  1.0000
  O   O16       1.0  0.0672028121295085  0.5198607595487486  0.9026860582811973  1.0000
