data_image0
_chemical_formula_structural       Cd12H32C48N40
_chemical_formula_sum              "Cd12 H32 C48 N40"
_cell_length_a       13.101614368362062
_cell_length_b       14.270052911
_cell_length_c       14.1514
_cell_angle_alpha    90.0
_cell_angle_beta     105.4503070507668
_cell_angle_gamma    90.0

_space_group_name_H-M_alt    "P 1"
_space_group_IT_number       1

loop_
  _space_group_symop_operation_xyz
  'x, y, z'

loop_
  _atom_site_type_symbol
  _atom_site_label
  _atom_site_symmetry_multiplicity
  _atom_site_fract_x
  _atom_site_fract_y
  _atom_site_fract_z
  _atom_site_occupancy
  Cd  Cd1       1.0  0.34275655576216474  0.3337626026830378  0.8846696605880953  1.0000
  Cd  Cd2       1.0  0.8427658009827468  0.1662362441677701  0.38466286045673587  1.0000
  Cd  Cd3       1.0  0.6572358025779933  0.6662294848725809  0.11533643974768643  1.0000
  Cd  Cd4       1.0  0.1572416031125385  0.8337656541433418  0.6153384710395073  1.0000
  Cd  Cd5       1.0  0.320659092765517  0.045732836736498  0.13937895850988014  1.0000
  Cd  Cd6       1.0  0.8206509165854212  0.4542653093460559  0.6393721014253587  1.0000
  Cd  Cd7       1.0  0.6793427681568289  0.9542683608063599  0.8606245390368488  1.0000
  Cd  Cd8       1.0  0.1793461930458307  0.5457316835873058  0.3606252777553039  1.0000
  Cd  Cd9       1.0  0.2077161521684943  0.6818916552509222  0.9916836715139257  1.0000
  Cd  Cd10      1.0  0.7077190623342844  0.8181090899109975  0.4916830819864161  1.0000
  Cd  Cd11      1.0  0.7922809574627578  0.3181088415236957  0.008316534242204923  1.0000
  Cd  Cd12      1.0  0.2922891336428535  0.1818907060953663  0.5083212713951328  1.0000
  H   H1        1.0  0.5153598748636625  0.1493049824894257  0.05419549424907191  1.0000
  H   H2        1.0  0.0153490458793755  0.3506952658978832  0.5541955439659605  1.0000
  H   H3        1.0  0.4846562399319652  0.8506969158216862  0.9458044524360291  1.0000
  H   H4        1.0  0.9846543988066685  0.6493024278037326  0.4458048109811089  1.0000
  H   H5        1.0  0.7024601749750019  0.0881930857474202  0.08068168916826586  1.0000
  H   H6        1.0  0.20244776222702396  0.4118064618716417  0.5806742818268376  1.0000
  H   H7        1.0  0.2975519804113773  0.9118046079541955  0.9193215208308559  1.0000
  H   H8        1.0  0.7975509311679261  0.5881933341347221  0.41931995475417244  1.0000
  H   H9        1.0  0.7344735824849664  0.9368073183313258  0.18340484675495367  1.0000
  H   H10       1.0  0.2344643372643773  0.563192726062347  0.6833968073651279  1.0000
  H   H11       1.0  0.265530654082923  0.063188973833789  0.8165949968580932  1.0000
  H   H12       1.0  0.7655359398942636  0.4368084714805178  0.31659499326008245  1.0000
  H   H13       1.0  0.5427217683925321  0.9031410100845108  0.2257567036749536  1.0000
  H   H14       1.0  0.04271569069934599  0.5968590343091549  0.7257565119631268  1.0000
  H   H15       1.0  0.4572848438209078  0.096860187458347  0.7742444325114591  1.0000
  H   H16       1.0  0.957286170223  0.4031414624654559  0.27424062578881353  1.0000
  H   H17       1.0  0.9897992551796903  0.5861940423186454  0.04262046933529015  1.0000
  H   H18       1.0  0.4898003044231416  0.913796892087781  0.542618502192646  1.0000
  H   H19       1.0  0.0101986463334143  0.4137973444687262  0.957379931730671  1.0000
  H   H20       1.0  0.5102047240266003  0.0862022031503287  0.45739001645662114  1.0000
  H   H21       1.0  0.8019672562398623  0.5911407653925025  0.9351702814107272  1.0000
  H   H22       1.0  0.3019635541922199  0.908853672855173  0.4351727955599999  1.0000
  H   H23       1.0  0.1980322290369401  0.4088478183218669  0.06482627041171442  1.0000
  H   H24       1.0  0.6980375148482805  0.0911475246876918  0.5648368664716941  1.0000
  H   H25       1.0  0.7842306865857154  0.6957108051328404  0.7822606044689666  1.0000
  H   H26       1.0  0.2842222332469788  0.8042843338830821  0.2822612401153677  1.0000
  H   H27       1.0  0.2157672149273822  0.304276377045035  0.21773838330926057  1.0000
  H   H28       1.0  0.7157748763842732  0.1957154621232817  0.7177481520110122  1.0000
  H   H29       1.0  0.9893352124161723  0.7589264081601144  0.8004628276991498  1.0000
  H   H30       1.0  0.4893220077863347  0.7410680300875614  0.300454518404024  1.0000
  H   H31       1.0  0.010657937805838498  0.24106778170025223  0.19953498822007282  1.0000
  H   H32       1.0  0.5106711424356689  0.2589310651505556  0.6995468307345334  1.0000
  C   C1        1.0  0.2633205118423376  0.458453801173853  0.9189386472324161  1.0000
  C   C2        1.0  0.7633234220081277  0.0415408410674516  0.4189048454432226  1.0000
  C   C3        1.0  0.7366702627341226  0.5415347825405163  0.08108190200486835  1.0000
  C   C4        1.0  0.2366681444501779  0.9584687656944055  0.5810883399931371  1.0000
  C   C5        1.0  0.2947415917292346  0.2720186129798989  0.7377013908049649  1.0000
  C   C6        1.0  0.7947492531861258  0.2280075638326409  0.23771045286284936  1.0000
  C   C7        1.0  0.705248390965373  0.7279748761122136  0.2623062435329119  1.0000
  C   C8        1.0  0.20524944020882427  0.772023065976704  0.7623071029657282  1.0000
  C   C9        1.0  0.5163552703478729  0.3267598255648849  0.9343285010077411  1.0000
  C   C10       1.0  0.016357903355015  0.1732474305049223  0.434324097909304  1.0000
  C   C11       1.0  0.48364579869262764  0.6732490804287252  0.06565854842024524  1.0000
  C   C12       1.0  0.9836542520313641  0.8267516647331945  0.5656487264035948  1.0000
  C   C13       1.0  0.2894526128596908  0.16337010202694563  0.03340922615586091  1.0000
  C   C14       1.0  0.7894412691522064  0.3366329494333584  0.5333945213933405  1.0000
  C   C15       1.0  0.7105571668811379  0.8366317962841663  0.9666004643524105  1.0000
  C   C16       1.0  0.2105574242427437  0.6633703504142545  0.4666004218315295  1.0000
  C   C17       1.0  0.2484267980261379  0.912236981964192  0.08060367161065334  1.0000
  C   C18       1.0  0.7484257487826866  0.5877630624294738  0.5805929191637205  1.0000
  C   C19       1.0  0.7515592252592285  0.0877726247976653  0.9193846134375363  1.0000
  C   C20       1.0  0.2515650257937665  0.4122318281991397  0.41939229788028604  1.0000
  C   C21       1.0  0.3114748470806887  0.0925911072818479  0.2836130413379792  1.0000
  C   C22       1.0  0.8114785491283314  0.40741825109270746  0.7836154736957681  1.0000
  C   C23       1.0  0.6885064249135837  0.9074184994800092  0.7163818449337287  1.0000
  C   C24       1.0  0.1885146010936793  0.5925850487549056  0.21638304886732138  1.0000
  C   C25       1.0  0.5467690765228284  0.0867670223595027  0.09529797391741113  1.0000
  C   C26       1.0  0.046754288129299895  0.4132374306373023  0.595294927153539  1.0000
  C   C27       1.0  0.4532414950998529  0.9132348759516091  0.9047027255304416  1.0000
  C   C28       1.0  0.9532444052656499  0.5867665699785576  0.4047035492906659  1.0000
  C   C29       1.0  0.660495188268527  0.9750846816604337  0.16333425223647421  1.0000
  C   C30       1.0  0.1604891105753339  0.524916764269733  0.6633305273053127  1.0000
  C   C31       1.0  0.3395137995904633  0.024913712809429  0.8366674698794443  1.0000
  C   C32       1.0  0.8395119584651667  0.4750851340413789  0.33666358856132933  1.0000
  C   C33       1.0  0.5649538513035139  0.9590504033415641  0.18330413401262297  1.0000
  C   C34       1.0  0.0649461898466228  0.5409510425886026  0.6833028450372611  1.0000
  C   C35       1.0  0.435051177146228  0.0409521957377947  0.8166930783347937  1.0000
  C   C36       1.0  0.9350548791938705  0.4590487534177612  0.31669339076098174  1.0000
  C   C37       1.0  0.9637447585835375  0.6246171654436665  0.9743418475994192  1.0000
  C   C38       1.0  0.4637426402995857  0.875375170499254  0.47433909921743134  1.0000
  C   C39       1.0  0.0362539348114126  0.3753749221119449  0.025657335488652705  1.0000
  C   C40       1.0  0.5362608043864583  0.12461901936111272  0.5256683221683007  1.0000
  C   C41       1.0  0.857376812978849  0.6823422492354041  0.8379548922700624  1.0000
  C   C42       1.0  0.3573691515219579  0.8176528897805184  0.33795077671923224  1.0000
  C   C43       1.0  0.1426210885342485  0.3176491375519603  0.16204550879590582  1.0000
  C   C44       1.0  0.6426287499911396  0.1823490085305934  0.6620531575660566  1.0000
  C   C45       1.0  0.9592872556554537  0.7131781545221189  0.848071794046952  1.0000
  C   C46       1.0  0.4592795941985628  0.7868169844938038  0.3480648519206612  1.0000
  C   C47       1.0  0.0407082702121002  0.2868160353382478  0.1519301410211114  1.0000
  C   C48       1.0  0.5407183073145347  0.2131842130490611  0.6519404956523616  1.0000
  N   N1        1.0  0.22175700923330055  0.5223351340382436  0.9447227238717063  1.0000
  N   N2        1.0  0.7217686300994401  0.9776698157331722  0.44471297645052504  1.0000
  N   N3        1.0  0.7782321815794546  0.4776569535173749  0.05528400851246573  1.0000
  N   N4        1.0  0.2782276876499665  0.0223348856509347  0.5552827941325733  1.0000
  N   N5        1.0  0.2810927161796855  0.2367321285400408  0.6608702142940005  1.0000
  N   N6        1.0  0.7810987938728785  0.263263915237772  0.16086969936196036  1.0000
  N   N7        1.0  0.7189075609789626  0.7632697697710711  0.3391335992769272  1.0000
  N   N8        1.0  0.218899107640226  0.7367393846098409  0.8391363548549224  1.0000
  N   N9        1.0  0.6083972814220999  0.3192924390972465  0.9560326792076665  1.0000
  N   N10       1.0  0.1084078332477389  0.18071972235029682  0.4560372956462332  1.0000
  N   N11       1.0  0.3915927012725078  0.6807199707376057  0.04396506211608654  1.0000
  N   N12       1.0  0.8915995708475534  0.8192891836433063  0.5439541428359007  1.0000
  N   N13       1.0  0.2922796310606657  0.2254840973658645  0.9804291075886411  1.0000
  N   N14       1.0  0.7922754142898185  0.2745098441071931  0.480417573902372  1.0000
  N   N15       1.0  0.7077230217435327  0.7745114940309961  0.019578825131119994  1.0000
  N   N16       1.0  0.2077248628688295  0.7254864480579215  0.5195827064492351  1.0000
  N   N17       1.0  0.2176178428085223  0.8406675206335522  0.043668627104608504  1.0000
  N   N18       1.0  0.7176183773287689  0.6593395314426118  0.5436653317159925  1.0000
  N   N19       1.0  0.7823753074134814  0.159343487664799  0.9563207090882317  1.0000
  N   N20       1.0  0.282385067357275  0.3406574614907569  0.4563336099433499  1.0000
  N   N21       1.0  0.3056426372627215  0.124543336390154  0.35793034002049506  1.0000
  N   N22       1.0  0.8056376286100289  0.3754681242891422  0.8579285040385045  1.0000
  N   N23       1.0  0.694356848014074  0.8754613649939529  0.6420711583090083  1.0000
  N   N24       1.0  0.1943594810212232  0.624537277863219  0.14207311500535982  1.0000
  N   N25       1.0  0.4948152921729232  0.0291526599512011  0.14048329484835884  1.0000
  N   N26       1.0  0.9948063241109819  0.47085039150910296  0.6404797756733276  1.0000
  N   N27       1.0  0.5051944875679126  0.9708499391281649  0.8595157960019296  1.0000
  N   N28       1.0  0.0051947449295113  0.5291522075702559  0.3595164601249152  1.0000
  N   N29       1.0  0.6470244861350025  0.05575872808339  0.10778308188804434  1.0000
  N   N30       1.0  0.1470128652688629  0.444243622608667  0.6077765765003136  1.0000
  N   N31       1.0  0.3529868773695313  0.9442410679229738  0.8922192261573801  1.0000
  N   N32       1.0  0.8529866200079326  0.5557568741659438  0.39221856203439404  1.0000
  N   N33       1.0  0.024684540997363096  0.6765602104080415  0.9333279058960076  1.0000
  N   N34       1.0  0.524680324226523  0.8234314247666319  0.4333199054290589  1.0000
  N   N35       1.0  0.9753125686338819  0.3234339794523252  0.06667371314785704  1.0000
  N   N36       1.0  0.4753175772865816  0.17656416663022872  0.5666840288562298  1.0000
  N   N37       1.0  0.8623347852355039  0.6264321552101109  0.9184483293463402  1.0000
  N   N38       1.0  0.3623294994241633  0.8735587791963155  0.4184469196566172  1.0000
  N   N39       1.0  0.1376631162775936  0.3735571292725126  0.0815520717196208  1.0000
  N   N40       1.0  0.6376699858526321  0.1264389145053002  0.5815616451115346  1.0000
