data_image0
_chemical_formula_structural       Zn2H12C22N2O8
_chemical_formula_sum              "Zn2 H12 C22 N2 O8"
_cell_length_a       9.743603997353505
_cell_length_b       11.053427709238619
_cell_length_c       11.96096046257978
_cell_angle_alpha    89.85317728156652
_cell_angle_beta     89.64217550494651
_cell_angle_gamma    89.41092235793838

_space_group_name_H-M_alt    "P 1"
_space_group_IT_number       1

loop_
  _space_group_symop_operation_xyz
  'x, y, z'

loop_
  _atom_site_type_symbol
  _atom_site_label
  _atom_site_symmetry_multiplicity
  _atom_site_fract_x
  _atom_site_fract_y
  _atom_site_fract_z
  _atom_site_occupancy
  Zn  Zn1       1.0  0.36278626407889186  0.4991890750631639  0.5025497023351022  1.0000
  Zn  Zn2       1.0  0.6482698950849012  0.49618717501634513  0.4996169459455189  1.0000
  H   H1        1.0  0.1292935534125945  0.7013619712188515  0.6872347714780389  1.0000
  H   H2        1.0  0.8686776664057589  0.7005554041288136  0.6851248764406109  1.0000
  H   H3        1.0  0.7262549683980453  0.1064921409427981  0.4728838439389591  1.0000
  H   H4        1.0  0.17785469665074774  0.11120627389765758  0.45197106976508644  1.0000
  H   H5        1.0  0.20145152233635596  0.8973576833723272  0.6169750510013046  1.0000
  H   H6        1.0  0.17480203952757734  0.8836886755539408  0.4700140834287793  1.0000
  H   H7        1.0  0.13904520465414547  0.408625831030207  0.34844835742042324  1.0000
  H   H8        1.0  0.13092705513039957  0.560159656512404  0.7598498378751515  1.0000
  H   H9        1.0  0.7251784926053872  0.8816009251574498  0.48330616952536337  1.0000
  H   H10       1.0  0.8688941095673927  0.5596104300832039  0.7582967119894449  1.0000
  H   H11       1.0  0.19925366012116538  0.12391055441543129  0.5993611282986748  1.0000
  H   H12       1.0  0.8798398742668282  0.4067373062190569  0.3474226368767503  1.0000
  C   C1        1.0  0.5076704986462843  0.7328166001044278  0.5111050634704952  1.0000
  C   C2        1.0  0.5068028950465547  0.8676108512477753  0.5071146693243379  1.0000
  C   C3        1.0  0.6293745270797827  0.9327510406383013  0.49123059143672515  1.0000
  C   C4        1.0  0.6299600630842903  0.058718893003465694  0.4849573517669228  1.0000
  C   C5        1.0  0.5078699734815899  0.128011037014268  0.49390839446282103  1.0000
  C   C6        1.0  0.3872930940464768  0.06300795474592039  0.5089087804570624  1.0000
  C   C7        1.0  0.23314147452042988  0.0743777785365154  0.5244771345107395  1.0000
  C   C8        1.0  0.23267618548417343  0.9316851395373362  0.5343953556926522  1.0000
  C   C9        1.0  0.931772245884133  0.5450682333783946  0.5813779344615783  1.0000
  C   C10       1.0  0.9360684659195825  0.4468340312582199  0.416251306983888  1.0000
  C   C11       1.0  0.07923123948953759  0.4477319416561584  0.4168745551753971  1.0000
  C   C12       1.0  0.502952055905858  0.48768413750847384  0.7217142449286769  1.0000
  C   C13       1.0  0.0748914315419213  0.5457878255937061  0.5821435451219159  1.0000
  C   C14       1.0  0.0819355353366262  0.6118551354019315  0.6923450815987876  1.0000
  C   C15       1.0  0.9186488728205476  0.6113518468906065  0.6912592958638015  1.0000
  C   C16       1.0  0.509701441288783  0.2627913214531716  0.4907633274420178  1.0000
  C   C17       1.0  0.5029115761469214  0.5080428216660025  0.2807608701934683  1.0000
  C   C18       1.0  0.5043904351287125  0.49141731866014726  0.8425863239922223  1.0000
  C   C19       1.0  0.5039429206981721  0.49687454871896336  0.9448001491170359  1.0000
  C   C20       1.0  0.5033607997219818  0.502178496411844  0.0576047141173959  1.0000
  C   C21       1.0  0.5028093441034541  0.506336027540563  0.1598548231531609  1.0000
  C   C22       1.0  0.3867666397983456  0.9367732452530998  0.5159729745338099  1.0000
  N   N1        1.0  0.8590881956111859  0.496407594331302  0.4998675286155816  1.0000
  N   N2        1.0  0.15186345020176617  0.4981007274888113  0.5012833391252371  1.0000
  O   O1        1.0  0.3909768718237174  0.6813024087792954  0.5107330406587494  1.0000
  O   O2        1.0  0.623964098633337  0.6788554814248967  0.5135688364589086  1.0000
  O   O3        1.0  0.38515776985828853  0.49120825289008263  0.6762936322865941  1.0000
  O   O4        1.0  0.6192768920804638  0.4820375867733873  0.672860100645515  1.0000
  O   O5        1.0  0.39343164028908006  0.3168957661161684  0.4955488622106259  1.0000
  O   O6        1.0  0.6261730747165969  0.3141337407214521  0.4849968353755898  1.0000
  O   O7        1.0  0.38592733470491675  0.5060753170418266  0.3287240620632943  1.0000
  O   O8        1.0  0.6201077422342748  0.5108506730900116  0.3270780966909328  1.0000
