data_image0
_chemical_formula_structural       Co2H26C28N2O14
_chemical_formula_sum              "Co2 H26 C28 N2 O14"
_cell_length_a       4.6642885704417525
_cell_length_b       9.85393188161032
_cell_length_c       15.048476820917925
_cell_angle_alpha    102.91438817823904
_cell_angle_beta     91.85099867051545
_cell_angle_gamma    96.3643668920106

_space_group_name_H-M_alt    "P 1"
_space_group_IT_number       1

loop_
  _space_group_symop_operation_xyz
  'x, y, z'

loop_
  _atom_site_type_symbol
  _atom_site_label
  _atom_site_symmetry_multiplicity
  _atom_site_fract_x
  _atom_site_fract_y
  _atom_site_fract_z
  _atom_site_occupancy
  Co  Co1       1.0  0.7525371274496139  0.11793134561360571  0.6994655763047176  1.0000
  Co  Co2       1.0  0.24746083965545293  0.8820658711774385  0.30053362566815156  1.0000
  H   H1        1.0  0.09406844769475944  0.4199643004686279  0.4605432933099676  1.0000
  H   H2        1.0  0.9059431827841208  0.5800360347753966  0.5394578442167413  1.0000
  H   H3        1.0  0.40851853951949124  0.5939922453698189  0.39255951646040177  1.0000
  H   H4        1.0  0.5914882683536362  0.4060060022610799  0.6074405968648688  1.0000
  H   H5        1.0  0.7234503769936113  0.4967059831947863  0.26847975915380556  1.0000
  H   H6        1.0  0.2765500095855841  0.5032922807897648  0.7315189587235265  1.0000
  H   H7        1.0  0.8318555065029686  0.13846450430035867  0.20122325646648412  1.0000
  H   H8        1.0  0.1681379079599948  0.8615316737590175  0.7987750789448211  1.0000
  H   H9        1.0  0.9807831258804711  0.3161449737421194  0.2090671395576179  1.0000
  H   H10       1.0  0.019216720771424854  0.6838511924795299  0.7909312630399509  1.0000
  H   H11       1.0  0.2977441642328458  0.07633211862489019  0.11360923726841315  1.0000
  H   H12       1.0  0.7022441733069298  0.9236693179374315  0.8863891550251989  1.0000
  H   H13       1.0  0.08160474150628971  0.0617173950653225  0.9568565795054621  1.0000
  H   H14       1.0  0.9183908435608783  0.9382871785615945  0.04314168876322809  1.0000
  H   H15       1.0  0.7525614595442675  0.36963589907961847  0.9144139569203628  1.0000
  H   H16       1.0  0.24744187009385848  0.6303655030874538  0.08558658453370775  1.0000
  H   H17       1.0  0.9572897084293146  0.39592280517690165  0.07370800655732518  1.0000
  H   H18       1.0  0.042710656359872645  0.6040754497758059  0.9262933678433425  1.0000
  H   H19       1.0  0.20422701040032357  0.267053926489325  0.6903696076473478  1.0000
  H   H20       1.0  0.7957720529018532  0.7329474926014187  0.3096282324925354  1.0000
  H   H21       1.0  0.011278056780426492  0.2667495853124607  0.5995252285342543  1.0000
  H   H22       1.0  0.9887167020532813  0.7332518348962153  0.4004745592072893  1.0000
  H   H23       1.0  0.3015106786936457  0.06618923987131349  0.5770463593188424  1.0000
  H   H24       1.0  0.6984856788282413  0.933810076370584  0.42295379966920166  1.0000
  H   H25       1.0  0.5949035410209547  0.13171064195231003  0.5324053600286119  1.0000
  H   H26       1.0  0.4050968401107368  0.8682876197742786  0.4675940219795577  1.0000
  C   C1        1.0  0.4294103378124349  0.18772880182230275  0.30768120160131207  1.0000
  C   C2        1.0  0.5705943368927179  0.8122694542704353  0.6923175610668577  1.0000
  C   C3        1.0  0.24158785012522796  0.24124388758176704  0.377965204550108  1.0000
  C   C4        1.0  0.7584176235758732  0.7587575106393984  0.6220353592993815  1.0000
  C   C5        1.0  0.23968368495614806  0.38493695422911856  0.40736070864482327  1.0000
  C   C6        1.0  0.7603231174694756  0.6150612911438174  0.5926400688112776  1.0000
  C   C7        1.0  0.4114249331844563  0.48148738333929936  0.37011057182485974  1.0000
  C   C8        1.0  0.5885757015683806  0.5185119204948591  0.6298909602156895  1.0000
  C   C9        1.0  0.5837387327575171  0.42931866697795584  0.3014525259300313  1.0000
  C   C10       1.0  0.4162662064637884  0.5706806357382632  0.6985470585088647  1.0000
  C   C11       1.0  0.03657867185747679  0.1480440913629906  0.4191582048366341  1.0000
  C   C12       1.0  0.9634235833735474  0.8519531175362404  0.5808410419270797  1.0000
  C   C13       1.0  0.7813046555460871  0.24278374682938156  0.19643561516740246  1.0000
  C   C14       1.0  0.2186911674959973  0.7572134739075764  0.8035635644100407  1.0000
  C   C15       1.0  0.6409436497639688  0.23772342131443477  0.10390480148925717  1.0000
  C   C16       1.0  0.3590481551158148  0.7622748561957876  0.8960944909372299  1.0000
  C   C17       1.0  0.3920962123188473  0.1440877695437024  0.07114925522224518  1.0000
  C   C18       1.0  0.6078942638364069  0.8559136608147496  0.9288498235976301  1.0000
  C   C19       1.0  0.2742748139593232  0.13365476976024845  0.9835926446131462  1.0000
  C   C20       1.0  0.7257226397596667  0.8663487487813413  0.01640615254191144  1.0000
  C   C21       1.0  0.4058941523452617  0.2126975083589286  0.926183525069838  1.0000
  C   C22       1.0  0.5941057099528564  0.7873070528602425  0.07381611625135777  1.0000
  C   C23       1.0  0.6512259833261423  0.308271091116751  0.959317554169608  1.0000
  C   C24       1.0  0.3487754722126439  0.6917313638776861  0.040683122528918106  1.0000
  C   C25       1.0  0.7646153897952602  0.3221775510490089  0.04818639075775618  1.0000
  C   C26       1.0  0.23538365716440515  0.6778238612678464  0.9518134417746393  1.0000
  C   C27       1.0  0.2820713292246353  0.1930572067302734  0.8307299537840718  1.0000
  C   C28       1.0  0.7179328157519363  0.8069473443391146  0.1692703964588062  1.0000
  N   N1        1.0  0.5930442515079477  0.2894937402223264  0.27175210836769276  1.0000
  N   N2        1.0  0.40695425007691455  0.7105055720736646  0.7282480730157699  1.0000
  O   O1        1.0  0.4623067483886842  0.06118565525883921  0.2749101786566967  1.0000
  O   O2        1.0  0.5376880104450237  0.9388157649498369  0.725089609084854  1.0000
  O   O3        1.0  0.017421024336385895  0.014424663925986198  0.3914265640730789  1.0000
  O   O4        1.0  0.9825841848485692  0.9855756876716908  0.6085731780056916  1.0000
  O   O5        1.0  0.880539827245727  0.2071508427944764  0.48039151640465844  1.0000
  O   O6        1.0  0.11946081295460684  0.7928484632976449  0.5196093515050605  1.0000
  O   O7        1.0  0.021947962526311888  0.1353994473585729  0.8138663539457835  1.0000
  O   O8        1.0  0.9780559233816177  0.8646040593452894  0.18613251039554507  1.0000
  O   O9        1.0  0.44059198681240735  0.2371968606178072  0.7720102476929039  1.0000
  O   O10       1.0  0.559412428127821  0.762808739333039  0.22799026018984844  1.0000
  O   O11       1.0  0.013217656040026794  0.2870297257021193  0.6670252872185427  1.0000
  O   O12       1.0  0.9867816663307921  0.7129727377541499  0.3329740388228969  1.0000
  O   O13       1.0  0.4841248496761352  0.13167356262376015  0.5876691812678911  1.0000
  O   O14       1.0  0.5158773946598814  0.868323641759545  0.41233139375748334  1.0000
