data_image0
_chemical_formula_structural       Co2H32C40Br4N12
_chemical_formula_sum              "Co2 H32 C40 Br4 N12"
_cell_length_a       9.418828922487926
_cell_length_b       10.684243884443656
_cell_length_c       10.733887443066394
_cell_angle_alpha    67.43813573639761
_cell_angle_beta     80.85544709823374
_cell_angle_gamma    83.16133031787385

_space_group_name_H-M_alt    "P 1"
_space_group_IT_number       1

loop_
  _space_group_symop_operation_xyz
  'x, y, z'

loop_
  _atom_site_type_symbol
  _atom_site_label
  _atom_site_symmetry_multiplicity
  _atom_site_fract_x
  _atom_site_fract_y
  _atom_site_fract_z
  _atom_site_occupancy
  Co  Co1       1.0  0.2578521386479978  0.6372342630169002  0.6651927843169857  1.0000
  Co  Co2       1.0  0.7421480873528881  0.36276226363524  0.3348108129633188  1.0000
  H   H1        1.0  0.6117902820062612  0.19265320351694024  0.8075682640120404  1.0000
  H   H2        1.0  0.38820860711830824  0.8073474210819215  0.19243025771061886  1.0000
  H   H3        1.0  0.8702038984878513  0.8131391009704033  0.1834001067233757  1.0000
  H   H4        1.0  0.12979908796119594  0.18686456804137214  0.8165967166256181  1.0000
  H   H5        1.0  0.6027880136531962  0.3920012317035458  0.9505931557648069  1.0000
  H   H6        1.0  0.39720978642913  0.6079993494899656  0.049410189480980075  1.0000
  H   H7        1.0  0.9797592903596525  0.04659129886815801  0.7578134095720798  1.0000
  H   H8        1.0  0.02024497850867852  0.9534093317166636  0.24218344241180031  1.0000
  H   H9        1.0  0.3401661437680445  0.8565573669575244  0.9555665109406205  1.0000
  H   H10       1.0  0.6598328161804331  0.1434422508817548  0.044431445735575906  1.0000
  H   H11       1.0  0.8614975789091518  0.6529600386059402  0.5059804839384442  1.0000
  H   H12       1.0  0.1385047325298316  0.3470375112695479  0.49402151396768795  1.0000
  H   H13       1.0  0.9356022742709059  0.8605267532512785  0.5167864910792231  1.0000
  H   H14       1.0  0.0643978182656042  0.13947181330011202  0.48321543030940717  1.0000
  H   H15       1.0  0.7483624390671936  0.7806884368012209  0.0239820467962699  1.0000
  H   H16       1.0  0.2516395318913283  0.2193141908390004  0.9760180997011858  1.0000
  H   H17       1.0  0.7559208091157644  0.9011523695564354  0.8540254544866028  1.0000
  H   H18       1.0  0.24407914722856108  0.0988482281008487  0.14597572633854844  1.0000
  H   H19       1.0  0.3331487407728133  0.10115034930999663  0.7086102706531747  1.0000
  H   H20       1.0  0.6668533091930369  0.8988512979507278  0.29138650481320366  1.0000
  H   H21       1.0  0.5168869016415911  0.13413224860990886  0.6498081383375193  1.0000
  H   H22       1.0  0.48311642528792487  0.8658663426371336  0.3501905364201575  1.0000
  H   H23       1.0  0.6072769073019231  0.585237624361838  0.5783619989704718  1.0000
  H   H24       1.0  0.3927243314616789  0.4147599348684921  0.4216392104895803  1.0000
  H   H25       1.0  0.6297936910449451  0.6034969810234828  0.9902783665206485  1.0000
  H   H26       1.0  0.3702073352469455  0.3965035984855946  0.009724538078799591  1.0000
  H   H27       1.0  0.03716953899984082  0.4004751525013006  0.7443738564521922  1.0000
  H   H28       1.0  0.9628282774493544  0.5995254814523959  0.25562387682438015  1.0000
  H   H29       1.0  0.8029008828345426  0.2916002294443062  0.8330510395065288  1.0000
  H   H30       1.0  0.19709477462483702  0.708400379252268  0.16694979351888156  1.0000
  H   H31       1.0  0.7593274365145958  0.015543459043804799  0.599985028873931  1.0000
  H   H32       1.0  0.2406726587497232  0.9844551163009568  0.40001595718649696  1.0000
  C   C1        1.0  0.5624932171651694  0.1086080567650853  0.8924422799540608  1.0000
  C   C2        1.0  0.43750782276578093  0.8913925667108135  0.10755594800437511  1.0000
  C   C3        1.0  0.9274854688938916  0.895369917394774  0.10300713239777076  1.0000
  C   C4        1.0  0.07251650752024831  0.1046327278321684  0.8969911434432732  1.0000
  C   C5        1.0  0.9155374193889829  0.9200362314279927  0.9672049840062725  1.0000
  C   C6        1.0  0.08446455975297341  0.07996642259231382  0.03279235650656888  1.0000
  C   C7        1.0  0.47392852813679553  0.027234436791317804  0.8666323153596522  1.0000
  C   C8        1.0  0.5260704290838659  0.9727651722545971  0.1333665766447468  1.0000
  C   C9        1.0  0.7039689558701879  0.44175766662151983  0.9153411334393624  1.0000
  C   C10       1.0  0.29603099501851204  0.5582429134490428  0.08466191804220095  1.0000
  C   C11       1.0  0.988585695056017  0.025648132425232006  0.8641172518370438  1.0000
  C   C12       1.0  0.011417427585215016  0.9743535054806501  0.13588031207542162  1.0000
  C   C13       1.0  0.9634251988728624  0.5621529340613237  0.8189311300679377  1.0000
  C   C14       1.0  0.036572609392898414  0.4378476735122874  0.18106940919324188  1.0000
  C   C15       1.0  0.5418368818371704  0.7626763707497446  0.6323553423017998  1.0000
  C   C16       1.0  0.45816529886524643  0.23732322781836504  0.3676440443844556  1.0000
  C   C17       1.0  0.4112600366442721  0.9186680082300215  0.9751111353776594  1.0000
  C   C18       1.0  0.5887399251556787  0.0813326070139979  0.024888174791087205  1.0000
  C   C19       1.0  0.7806562190035109  0.7160655255582001  0.5438338096467206  1.0000
  C   C20       1.0  0.21934494893618958  0.2839330404317124  0.45616796485979444  1.0000
  C   C21       1.0  0.8232648288440316  0.8360527992781004  0.5502009253026826  1.0000
  C   C22       1.0  0.1767352636924855  0.16394576727329732  0.44980099608594054  1.0000
  C   C23       1.0  0.8215465945819034  0.8359801111326208  0.9338129379997254  1.0000
  C   C24       1.0  0.1784532936663297  0.1640215020776168  0.0661878725437006  1.0000
  C   C25       1.0  0.8492115713489029  0.618663702592734  0.8869548296791407  1.0000
  C   C26       1.0  0.1507862995573248  0.3813358718412019  0.11304795052018325  1.0000
  C   C27       1.0  0.4441444682007474  0.059183782606226  0.7230180964109536  1.0000
  C   C28       1.0  0.5558566425541045  0.9408158341100902  0.27697956650101224  1.0000
  C   C29       1.0  0.640076066151913  0.6769462219047426  0.5843354327246573  1.0000
  C   C30       1.0  0.3599240291124063  0.32305235344001915  0.4156655533357636  1.0000
  C   C31       1.0  0.7164859518699559  0.5599080886213701  0.936542920547005  1.0000
  C   C32       1.0  0.28351184548455427  0.4400924837787843  0.06346136002699153  1.0000
  C   C33       1.0  0.9492318622151786  0.44284179426944087  0.7981605007183463  1.0000
  C   C34       1.0  0.05076473445520692  0.5571608449715342  0.20183944486147704  1.0000
  C   C35       1.0  0.5855851416203633  0.8816756405726809  0.6391855639669756  1.0000
  C   C36       1.0  0.4144148882756796  0.11832395911838495  0.36081411648351047  1.0000
  C   C37       1.0  0.8182712485292498  0.3840300725934966  0.8478877728547687  1.0000
  C   C38       1.0  0.18172320279037996  0.6159725853571699  0.1521105958328803  1.0000
  C   C39       1.0  0.7273113187985344  0.9215888902738525  0.5978642807570085  1.0000
  C   C40       1.0  0.2726887083696923  0.0784107006238486  0.4021363350216802  1.0000
  Br  Br1       1.0  0.35926058861898014  0.41261635458510443  0.725442096265468  1.0000
  Br  Br2       1.0  0.6407388316352752  0.5873761016233703  0.27456406435209857  1.0000
  Br  Br3       1.0  0.20075590263329704  0.7181058927855234  0.4401472539891316  1.0000
  Br  Br4       1.0  0.7992395892223955  0.2818815934245222  0.5598501216271288  1.0000
  N   N1        1.0  0.07528806776215191  0.6469974895795475  0.7818090532213587  1.0000
  N   N2        1.0  0.9247098058718921  0.3530020936477528  0.21819279164976277  1.0000
  N   N3        1.0  0.0365006673193733  0.7496098820189447  0.8220735375393318  1.0000
  N   N4        1.0  0.963496133639289  0.2503897105632049  0.1779275188857028  1.0000
  N   N5        1.0  0.4618690660495872  0.9389088105532013  0.6875326449866676  1.0000
  N   N6        1.0  0.5381319766091722  0.06109182171606161  0.3124646476435586  1.0000
  N   N7        1.0  0.3955023237025869  0.7577242859454218  0.6767755851742691  1.0000
  N   N8        1.0  0.6044976408251728  0.2422763380919549  0.3232227896662749  1.0000
  N   N9        1.0  0.34938623475159863  0.8634862303530754  0.7101246089992799  1.0000
  N   N10       1.0  0.6506146689871669  0.1365164242287165  0.2898728783956841  1.0000
  N   N11       1.0  0.901951468165237  0.7331304717684971  0.8861401172626842  1.0000
  N   N12       1.0  0.09804720575980501  0.26687316431574004  0.1138610349275879  1.0000
