data_image0
_chemical_formula_structural       Zn16H64C96N48O48
_chemical_formula_sum              "Zn16 H64 C96 N48 O48"
_cell_length_a       13.41039928403316
_cell_length_b       13.410380308032783
_cell_length_c       27.573187233001505
_cell_angle_alpha    89.99998107008263
_cell_angle_beta     90.00003310263124
_cell_angle_gamma    89.99974735047677

_space_group_name_H-M_alt    "P 1"
_space_group_IT_number       1

loop_
  _space_group_symop_operation_xyz
  'x, y, z'

loop_
  _atom_site_type_symbol
  _atom_site_label
  _atom_site_symmetry_multiplicity
  _atom_site_fract_x
  _atom_site_fract_y
  _atom_site_fract_z
  _atom_site_occupancy
  Zn  Zn1       1.0  0.9780477641389778  0.08458962756176902  0.4462514077079405  1.0000
  Zn  Zn2       1.0  0.4154145227935189  0.9780480053405826  0.44625016754474706  1.0000
  Zn  Zn3       1.0  0.5219517410451003  0.4154149571578571  0.44624877769084054  1.0000
  Zn  Zn4       1.0  0.08458570697975887  0.5219557784304455  0.4462508832964076  1.0000
  Zn  Zn5       1.0  0.47804119954104607  0.9154121913129174  0.053752212042269314  1.0000
  Zn  Zn6       1.0  0.5845818700629265  0.47804330129063993  0.05375190000792431  1.0000
  Zn  Zn7       1.0  0.021951109380104594  0.5845881272009806  0.05375108655796621  1.0000
  Zn  Zn8       1.0  0.9154082228936173  0.0219555811023682  0.05374980780757  1.0000
  Zn  Zn9       1.0  0.021956641019720297  0.9154130292503451  0.5537505658038883  1.0000
  Zn  Zn10      1.0  0.5845913737343622  0.021959125614770897  0.5537503552822542  1.0000
  Zn  Zn11      1.0  0.4780429701309996  0.5845929195136607  0.5537502944498556  1.0000
  Zn  Zn12      1.0  0.9154075128205789  0.47805060686185635  0.5537496395288741  1.0000
  Zn  Zn13      1.0  0.5219512745835644  0.0845882284523611  0.9462501241392263  1.0000
  Zn  Zn14      1.0  0.4154068756149982  0.5219556271009651  0.9462500735019932  1.0000
  Zn  Zn15      1.0  0.9780436018104338  0.41541378394174444  0.946250161610223  1.0000
  Zn  Zn16      1.0  0.08458723398886997  0.9780448386574251  0.9462492643338438  1.0000
  H   H1        1.0  0.849130870169702  0.9627805618116129  0.31287899626133253  1.0000
  H   H2        1.0  0.537224673309808  0.8491073666563196  0.3128764227769026  1.0000
  H   H3        1.0  0.6508759665636885  0.5372151410637329  0.31287138680959714  1.0000
  H   H4        1.0  0.9627791806979429  0.6508734224047216  0.31287613632182604  1.0000
  H   H5        1.0  0.3491171503273023  0.03721735139920669  0.18712930181035153  1.0000
  H   H6        1.0  0.4627693053705854  0.34909639909353274  0.18712240172269656  1.0000
  H   H7        1.0  0.1508887064057234  0.4627724609468728  0.1871234364510883  1.0000
  H   H8        1.0  0.0372208918880332  0.15088446499790822  0.18712163242924626  1.0000
  H   H9        1.0  0.150872043598163  0.0372265691504481  0.6871211638940835  1.0000
  H   H10       1.0  0.4627842060091182  0.1508855961633202  0.6871241000516835  1.0000
  H   H11       1.0  0.3491217273942339  0.46278080454752063  0.6871204319091507  1.0000
  H   H12       1.0  0.037222987386613185  0.349129234414761  0.687118583766342  1.0000
  H   H13       1.0  0.6508812893205018  0.9627823226608143  0.8128762984125544  1.0000
  H   H14       1.0  0.5372201860669816  0.6508712102737565  0.8128806598033835  1.0000
  H   H15       1.0  0.8491321039391407  0.537227213064682  0.8128796250767962  1.0000
  H   H16       1.0  0.9627797848081128  0.8491234116602085  0.8128781650546274  1.0000
  H   H17       1.0  0.9072934316669073  0.23863161925915213  0.5352037423857255  1.0000
  H   H18       1.0  0.2613738294972876  0.9072978980638027  0.5352035967713605  1.0000
  H   H19       1.0  0.592698721758772  0.2613766342860586  0.5352036961176978  1.0000
  H   H20       1.0  0.23862650543477318  0.5927013519155295  0.5352039818338242  1.0000
  H   H21       1.0  0.4072984718557108  0.7613768875435342  0.9647966936968758  1.0000
  H   H22       1.0  0.7386234663594491  0.4072974589793645  0.9647964066209695  1.0000
  H   H23       1.0  0.09269938811318207  0.7386280399156675  0.9647988271576795  1.0000
  H   H24       1.0  0.7613647207590473  0.09269932115692112  0.9647957100924958  1.0000
  H   H25       1.0  0.09270575365698619  0.7613732746376127  0.4647978684540136  1.0000
  H   H26       1.0  0.7386298299763254  0.09270177598690313  0.4647954753712682  1.0000
  H   H27       1.0  0.4073064290664376  0.738636462198755  0.4647975520510528  1.0000
  H   H28       1.0  0.7613689514539387  0.4072968307705125  0.4647972663347702  1.0000
  H   H29       1.0  0.5926954936327177  0.2386302434382515  0.0352034664572827  1.0000
  H   H30       1.0  0.26136900777252947  0.5926992323313628  0.03520447887616031  1.0000
  H   H31       1.0  0.9073050170447343  0.2613753625869748  0.0352045970387636  1.0000
  H   H32       1.0  0.23862551629442658  0.907301098614013  0.03520445006167711  1.0000
  H   H33       1.0  0.06756059047874169  0.2952665086674386  0.4068038818164227  1.0000
  H   H34       1.0  0.20473672472322585  0.0675649830017662  0.4068042823863182  1.0000
  H   H35       1.0  0.4324425431407305  0.204735087442252  0.4068014020029126  1.0000
  H   H36       1.0  0.29526268042138776  0.4324477984815047  0.4068002760892427  1.0000
  H   H37       1.0  0.5675453609356181  0.704731154769327  0.09320143537711091  1.0000
  H   H38       1.0  0.7952577497180184  0.5675667574521127  0.0931945879380649  1.0000
  H   H39       1.0  0.9324433195588637  0.7952691695892682  0.09320039151448613  1.0000
  H   H40       1.0  0.7047331678232991  0.9324417695054236  0.09319889751633072  1.0000
  H   H41       1.0  0.9324400862234086  0.7047391309170479  0.5931977290234727  1.0000
  H   H42       1.0  0.7952654433680449  0.9324361824337543  0.5931962404406477  1.0000
  H   H43       1.0  0.5675626077081404  0.7952675693681001  0.5932009341801888  1.0000
  H   H44       1.0  0.7047327764089955  0.5675749920100941  0.593194081325173  1.0000
  H   H45       1.0  0.43243294509370134  0.2952632994987638  0.9068019888163693  1.0000
  H   H46       1.0  0.20473323301217758  0.4324388821552034  0.906802670846453  1.0000
  H   H47       1.0  0.06755213731912588  0.20473348724330975  0.9067994059690747  1.0000
  H   H48       1.0  0.29526527182786566  0.067554921792393  0.9068012626393058  1.0000
  H   H49       1.0  0.09300444248022899  0.19461162122989611  0.3107402801480746  1.0000
  H   H50       1.0  0.3053980442216612  0.0929898738535044  0.31074902251381803  1.0000
  H   H51       1.0  0.40700081467498705  0.30538332806634116  0.31074611820425707  1.0000
  H   H52       1.0  0.19461243278308873  0.406997618519206  0.31074317857853373  1.0000
  H   H53       1.0  0.5929941024628461  0.8053896584578624  0.18925561478022251  1.0000
  H   H54       1.0  0.6945925896832817  0.5929800967214051  0.18925093168613932  1.0000
  H   H55       1.0  0.9070088596980664  0.6946046359335653  0.18925711881603755  1.0000
  H   H56       1.0  0.8053991871545916  0.9070015209485333  0.18925890054023142  1.0000
  H   H57       1.0  0.9069999626703974  0.8053940183471012  0.6892591546653364  1.0000
  H   H58       1.0  0.6946123264705262  0.9070075631070723  0.6892569403821158  1.0000
  H   H59       1.0  0.5930013534462402  0.694605906310997  0.6892605700335253  1.0000
  H   H60       1.0  0.8053927180697112  0.5930035469087613  0.6892602456181864  1.0000
  H   H61       1.0  0.40700284580326945  0.19460926991639135  0.8107441827038501  1.0000
  H   H62       1.0  0.30538869913615935  0.4069972066511979  0.8107397990183005  1.0000
  H   H63       1.0  0.09301567908048008  0.3053995122193313  0.8107354252481686  1.0000
  H   H64       1.0  0.19460670937879598  0.09300262724340769  0.8107398089311817  1.0000
  C   C1        1.0  0.8900087081054906  0.0040403330181603995  0.28531316997413114  1.0000
  C   C2        1.0  0.4959625590764316  0.889987739272719  0.2853137675804973  1.0000
  C   C3        1.0  0.6099943353214597  0.4959487000964061  0.2853083756811331  1.0000
  C   C4        1.0  0.004042700341287299  0.6099915445967812  0.28531190755858665  1.0000
  C   C5        1.0  0.3899975044373462  0.9959536714802366  0.21468969957363274  1.0000
  C   C6        1.0  0.5040342220959886  0.3899788083464415  0.21468722629236234  1.0000
  C   C7        1.0  0.11000543441135589  0.5040331166597837  0.2146875240493102  1.0000
  C   C8        1.0  0.995960535274207  0.11000356092230126  0.2146869558605715  1.0000
  C   C9        1.0  0.1099927142826758  0.9959667979470622  0.714687352852245  1.0000
  C   C10       1.0  0.5040463202357016  0.11000820631107189  0.714686392576674  1.0000
  C   C11       1.0  0.39000485003595736  0.5040390429096249  0.7146859817366576  1.0000
  C   C12       1.0  0.995965433267038  0.39000962082705115  0.7146842632152188  1.0000
  C   C13       1.0  0.6100046636610086  0.004045256881042301  0.785314449965192  1.0000
  C   C14       1.0  0.4959604891565944  0.6099947665382501  0.7853132965357973  1.0000
  C   C15       1.0  0.890013884545098  0.4959695401201785  0.7853122734376186  1.0000
  C   C16       1.0  0.0040371586635571995  0.8900035700515047  0.7853124789517738  1.0000
  C   C17       1.0  0.9617267837149084  0.07442147024210041  0.29928761979043383  1.0000
  C   C18       1.0  0.4255864286016901  0.9617069594495218  0.299292186608767  1.0000
  C   C19       1.0  0.5382770219181835  0.42556979057225425  0.2992868060844743  1.0000
  C   C20       1.0  0.0744218300963837  0.5382730607322087  0.2992881821062383  1.0000
  C   C21       1.0  0.461714382486086  0.9255774378508972  0.2007130939812001  1.0000
  C   C22       1.0  0.5744122733883259  0.46169847325496954  0.2007073449061494  1.0000
  C   C23       1.0  0.03828704845336969  0.5744130881190445  0.20071124942150223  1.0000
  C   C24       1.0  0.9255824674629664  0.0382824140039588  0.20071214367134627  1.0000
  C   C25       1.0  0.038273892977514386  0.9255878977982733  0.7007114523509872  1.0000
  C   C26       1.0  0.5744239420918544  0.038288986130133706  0.7007105122467865  1.0000
  C   C27       1.0  0.4617221634426655  0.5744179524318369  0.7007133540719935  1.0000
  C   C28       1.0  0.925584812132527  0.46172885038469513  0.7007116153789639  1.0000
  C   C29       1.0  0.5382877856076929  0.07442298189312879  0.7992888795305007  1.0000
  C   C30       1.0  0.4255794551022304  0.538274355947479  0.7992866498406387  1.0000
  C   C31       1.0  0.961735998951127  0.4255895686536775  0.7992856466966176  1.0000
  C   C32       1.0  0.0744167178542767  0.9617247169668064  0.7992865657988804  1.0000
  C   C33       1.0  0.015801787666283897  0.1287389550841169  0.26349111226180366  1.0000
  C   C34       1.0  0.3712679627352457  0.0157883544828437  0.2634937103397946  1.0000
  C   C35       1.0  0.48419819382135637  0.3712485689969043  0.2634926093421086  1.0000
  C   C36       1.0  0.1287409670376078  0.4841969325049362  0.26349146195023115  1.0000
  C   C37       1.0  0.5157956871825532  0.8712581908771283  0.23650947559244886  1.0000
  C   C38       1.0  0.6287267400339186  0.5157825645698608  0.23650335505691805  1.0000
  C   C39       1.0  0.984205093782229  0.6287278692340832  0.23650811077946093  1.0000
  C   C40       1.0  0.8712710581726312  0.984202004166882  0.23651132994535123  1.0000
  C   C41       1.0  0.9841996347218823  0.8712681758811059  0.7365094105645726  1.0000
  C   C42       1.0  0.6287379338149389  0.9842098281789688  0.7365111645419448  1.0000
  C   C43       1.0  0.5157995001783887  0.6287317170990646  0.736511540197597  1.0000
  C   C44       1.0  0.8712723863968035  0.51580721566971  0.7365097862204025  1.0000
  C   C45       1.0  0.4842094636758957  0.12873924609726833  0.7634895965505707  1.0000
  C   C46       1.0  0.37126573412765396  0.4841984672325097  0.7634891890046377  1.0000
  C   C47       1.0  0.015807513965370397  0.3712732961801208  0.7634873346526377  1.0000
  C   C48       1.0  0.12873110990963707  0.015803635414194196  0.7634906435659233  1.0000
  C   C49       1.0  0.9823204970061138  0.09109282130678052  0.35112928867991405  1.0000
  C   C50       1.0  0.40892024340950417  0.9822999816712185  0.3511349379319456  1.0000
  C   C51       1.0  0.5176841155768557  0.4089080987272524  0.3511299225563321  1.0000
  C   C52       1.0  0.0910910593261676  0.5176814951242933  0.35112985347421244  1.0000
  C   C53       1.0  0.4823088536854384  0.9089127071943323  0.1488710682352874  1.0000
  C   C54       1.0  0.5910716565806665  0.48228474554317563  0.14886640358653844  1.0000
  C   C55       1.0  0.0176962444146938  0.5910815819839569  0.1488692151479611  1.0000
  C   C56       1.0  0.9089125833489502  0.0176879738989797  0.1488697503128051  1.0000
  C   C57       1.0  0.017683908140007497  0.9089150553429947  0.6488708714756513  1.0000
  C   C58       1.0  0.5910946014320402  0.0176929811335711  0.648870662293824  1.0000
  C   C59       1.0  0.48231656113823357  0.591091575329301  0.6488713256128804  1.0000
  C   C60       1.0  0.908909617376764  0.48232339876967245  0.6488703066810757  1.0000
  C   C61       1.0  0.5176873488835765  0.0910899496359932  0.8511305426042173  1.0000
  C   C62       1.0  0.40890814088960775  0.517679881084014  0.8511290418438977  1.0000
  C   C63       1.0  0.9823320228305545  0.4089158549404388  0.851126955628992  1.0000
  C   C64       1.0  0.09108809335641868  0.982315428613461  0.8511289591579329  1.0000
  C   C65       1.0  0.9476068230261273  0.2756886547007795  0.5062212413979738  1.0000
  C   C66       1.0  0.22431591562330766  0.9476122824119741  0.5062221726081262  1.0000
  C   C67       1.0  0.5523867875232042  0.22431812689282543  0.506220827107235  1.0000
  C   C68       1.0  0.2756828936561604  0.5523929525324078  0.5062200359978135  1.0000
  C   C69       1.0  0.4476060953691884  0.7243159458945316  0.9937802940811551  1.0000
  C   C70       1.0  0.7756819481535329  0.44761240617495457  0.9937781868935647  1.0000
  C   C71       1.0  0.0523873247244637  0.7756867250678141  0.9937805967714938  1.0000
  C   C72       1.0  0.7243077645976115  0.052387337288500604  0.993778937147255  1.0000
  C   C73       1.0  0.05238937953730979  0.7243162392029278  0.49377928142784816  1.0000
  C   C74       1.0  0.7756869981624275  0.052386645949127314  0.4937776248767919  1.0000
  C   C75       1.0  0.44761910899996576  0.7756912411354334  0.4937800583907618  1.0000
  C   C76       1.0  0.7243118175176589  0.4476156698304763  0.4937779481293207  1.0000
  C   C77       1.0  0.5523826503015172  0.27568596526147365  0.0062205914150226  1.0000
  C   C78       1.0  0.22431201735133743  0.5523872678967551  0.006221973261197901  1.0000
  C   C79       1.0  0.9476133519826175  0.2243166774436531  0.0062210140685792  1.0000
  C   C80       1.0  0.2756847095277877  0.947612336786257  0.0062219483496335016  1.0000
  C   C81       1.0  0.029709368312772697  0.3046026319675689  0.44129898111914667  1.0000
  C   C82       1.0  0.1954015360511079  0.0297152078708294  0.4412997522264775  1.0000
  C   C83       1.0  0.4702908233179882  0.19540117809154367  0.4412972388552562  1.0000
  C   C84       1.0  0.30459940124966056  0.47029755047885385  0.4412961050761269  1.0000
  C   C85       1.0  0.5296971219194758  0.6953959440615803  0.058705237372962016  1.0000
  C   C86       1.0  0.804593850983174  0.5297162185938404  0.0586998496011191  1.0000
  C   C87       1.0  0.9702907721100188  0.8046036577381913  0.058704565349415816  1.0000
  C   C88       1.0  0.6953962800975262  0.9702900944222462  0.058703425040015106  1.0000
  C   C89       1.0  0.9702875799375403  0.6954037533163842  0.5587019043778271  1.0000
  C   C90       1.0  0.8046006320415983  0.9702852118738076  0.5587004079293791  1.0000
  C   C91       1.0  0.5297158189023532  0.8046052071706739  0.5587047346565868  1.0000
  C   C92       1.0  0.6953975469676337  0.529722257245183  0.5586989776810755  1.0000
  C   C93       1.0  0.4702826754841709  0.3046007472766163  0.9412970988070485  1.0000
  C   C94       1.0  0.19539713175117154  0.47028792963097743  0.9412988598681835  1.0000
  C   C95       1.0  0.02970468476818409  0.19539899909425884  0.941295594805311  1.0000
  C   C96       1.0  0.3045999224809249  0.0297080882622751  0.9412974604575199  1.0000
  N   N1        1.0  0.9672972973405434  0.37296027478926413  0.5060544075247791  1.0000
  N   N2        1.0  0.1270458376872838  0.9673024679751875  0.5060546031930215  1.0000
  N   N3        1.0  0.5327000414613392  0.1270465069079876  0.5060540035070389  1.0000
  N   N4        1.0  0.3729559541520685  0.5327035127660976  0.5060521345835269  1.0000
  N   N5        1.0  0.4672955074278703  0.6270434932909907  0.9939467708432164  1.0000
  N   N6        1.0  0.8729526849481244  0.4673051454696093  0.9939446650901477  1.0000
  N   N7        1.0  0.03269716717632319  0.872957686179113  0.9939477774833635  1.0000
  N   N8        1.0  0.6270370279959394  0.0326968349546348  0.9939472044379087  1.0000
  N   N9        1.0  0.03269517677127  0.6270453648137959  0.493945752629287  1.0000
  N   N10       1.0  0.8729593131685219  0.03269646038085481  0.4939455569633823  1.0000
  N   N11       1.0  0.4673088378222728  0.8729628611133292  0.49394797000487506  1.0000
  N   N12       1.0  0.6270402483997868  0.46730585528462854  0.4939454868725904  1.0000
  N   N13       1.0  0.5326924925520301  0.3729584178671387  0.0060526639681839  1.0000
  N   N14       1.0  0.12704053486122288  0.5326967656771303  0.0060544070508257  1.0000
  N   N15       1.0  0.9673027638422409  0.12704497064310522  0.006053470685500902  1.0000
  N   N16       1.0  0.3729547004401537  0.9673028391214017  0.006054769072370902  1.0000
  N   N17       1.0  0.9849167509448973  0.23014476184357593  0.4663589743606522  1.0000
  N   N18       1.0  0.2698595693171981  0.9849228449121766  0.466359537319157  1.0000
  N   N19       1.0  0.5150775581824262  0.2698583180222442  0.4663581794506869  1.0000
  N   N20       1.0  0.2301421755903803  0.5150876365915665  0.4663577565925011  1.0000
  N   N21       1.0  0.48490931303644647  0.7698555353617493  0.03364464732919711  1.0000
  N   N22       1.0  0.7301382845917032  0.48492347803664165  0.03364144110079081  1.0000
  N   N23       1.0  0.015079989356564698  0.7301447966412979  0.033643858884445904  1.0000
  N   N24       1.0  0.7698532759650474  0.015079891982551902  0.03364293563021191  1.0000
  N   N25       1.0  0.015080943003802397  0.7698578949835805  0.5336422738078994  1.0000
  N   N26       1.0  0.7301448358451449  0.015077574827643004  0.5336402601658463  1.0000
  N   N27       1.0  0.48492535558772687  0.7301480672484431  0.5336430687182913  1.0000
  N   N28       1.0  0.7698547726349927  0.4849291883675874  0.5336398648631189  1.0000
  N   N29       1.0  0.5150742128126778  0.23014339304087633  0.9663587768646594  1.0000
  N   N30       1.0  0.2698541895287646  0.5150784331111424  0.9663594443959128  1.0000
  N   N31       1.0  0.9849169589033974  0.2698571144967374  0.966356663941724  1.0000
  N   N32       1.0  0.23014292661297014  0.9849182907022181  0.9663572245249912  1.0000
  N   N33       1.0  0.02010768695124199  0.3913086129693113  0.4643597815510746  1.0000
  N   N34       1.0  0.10869572597857056  0.020113128206183696  0.4643605496101203  1.0000
  N   N35       1.0  0.4798932776272905  0.1086959273162478  0.46435805611137243  1.0000
  N   N36       1.0  0.39130598427326646  0.4798988689879309  0.4643569253806562  1.0000
  N   N37       1.0  0.5200965413199299  0.6086914967790663  0.03564334621628261  1.0000
  N   N38       1.0  0.8912989577026165  0.5201160091313426  0.03563905378013031  1.0000
  N   N39       1.0  0.9798920711371222  0.891308866173709  0.0356426627911404  1.0000
  N   N40       1.0  0.6086904004268021  0.9798910650404336  0.035642240501673  1.0000
  N   N41       1.0  0.9798870242252843  0.6086992637019578  0.5356400159319605  1.0000
  N   N42       1.0  0.8913071878040878  0.9798872915368122  0.535639610545843  1.0000
  N   N43       1.0  0.5201156016614732  0.8913112036319222  0.5356442800718926  1.0000
  N   N44       1.0  0.608690963949172  0.5201187016629588  0.5356385200478897  1.0000
  N   N45       1.0  0.47988474746133375  0.3913059402472072  0.9643579019503793  1.0000
  N   N46       1.0  0.10869053364875467  0.47988963047865235  0.9643600183600114  1.0000
  N   N47       1.0  0.0201048771209855  0.10869379065545812  0.9643574973637996  1.0000
  N   N48       1.0  0.3913035650805767  0.020107863339781297  0.9643593703378245  1.0000
  O   O1        1.0  0.055923659811817586  0.1448606722708021  0.36469776989032715  1.0000
  O   O2        1.0  0.3551573026955737  0.05590205811793681  0.3647025341034223  1.0000
  O   O3        1.0  0.44408240679067745  0.35514393482846174  0.3646988955935697  1.0000
  O   O4        1.0  0.1448562208661244  0.4440764497784145  0.3646977580953248  1.0000
  O   O5        1.0  0.5559093081717349  0.8551467364630483  0.1353013786067052  1.0000
  O   O6        1.0  0.6448334947703812  0.555882842596958  0.13529597544933136  1.0000
  O   O7        1.0  0.9440973186567374  0.6448490854807218  0.13530072518655342  1.0000
  O   O8        1.0  0.8551470329709616  0.9440846431468017  0.13530395231554596  1.0000
  O   O9        1.0  0.9440799996357042  0.8551509328358975  0.6353016649225012  1.0000
  O   O10       1.0  0.644863507660652  0.9440931417467195  0.6353030661230081  1.0000
  O   O11       1.0  0.5559197613018795  0.6448572306063268  0.635303803260399  1.0000
  O   O12       1.0  0.8551452015290478  0.5559276984225363  0.6353034900736321  1.0000
  O   O13       1.0  0.4440839116328944  0.14485741175659675  0.8646980562052562  1.0000
  O   O14       1.0  0.35513959149596996  0.44407805559144725  0.864695117926459  1.0000
  O   O15       1.0  0.055939896851640476  0.3551550626438598  0.8646929068929412  1.0000
  O   O16       1.0  0.14485438942443096  0.055919505054021094  0.8646976585245767  1.0000
  O   O17       1.0  0.9241709596906844  0.04936705282052861  0.383013519538956  1.0000
  O   O18       1.0  0.45064472603321076  0.924153131314462  0.3830141068320502  1.0000
  O   O19       1.0  0.5758359276378612  0.4506390656675591  0.38301053633204424  1.0000
  O   O20       1.0  0.049363631618092485  0.5758327982567124  0.38301226516767883  1.0000
  O   O21       1.0  0.4241620774461622  0.9506402234698256  0.11699008499697783  1.0000
  O   O22       1.0  0.5493489217346833  0.4241395919277197  0.11698615613742191  1.0000
  O   O23       1.0  0.0758422372708552  0.5493570698518296  0.11698644176455991  1.0000
  O   O24       1.0  0.9506360261940046  0.0758353859631313  0.11698732915398581  1.0000
  O   O25       1.0  0.07583195407825372  0.950640078140914  0.6169884539723045  1.0000
  O   O26       1.0  0.5493678817412685  0.0758375944234544  0.6169878666819102  1.0000
  O   O27       1.0  0.42416847750718734  0.5493688109828267  0.6169878104676911  1.0000
  O   O28       1.0  0.950633316631581  0.4241735870276101  0.6169875323157897  1.0000
  O   O29       1.0  0.575834125122064  0.049363179051020695  0.8830129765271338  1.0000
  O   O30       1.0  0.4506331127987265  0.5758287631487207  0.8830118279911973  1.0000
  O   O31       1.0  0.9241770817087627  0.4506344015638747  0.8830108170251169  1.0000
  O   O32       1.0  0.04936092206695969  0.9241657794842624  0.8830121056587431  1.0000
  O   O33       1.0  0.08484805662405388  0.19821035605423995  0.27482785437513974  1.0000
  O   O34       1.0  0.3017926300499453  0.08483799975156361  0.274835147655061  1.0000
  O   O35       1.0  0.4151519382671864  0.3017771604235905  0.2748340579912708  1.0000
  O   O36       1.0  0.19821333035504546  0.41515324516682023  0.2748307540947295  1.0000
  O   O37       1.0  0.5848474689041722  0.8017872311230004  0.22516840092283993  1.0000
  O   O38       1.0  0.6981943113514574  0.5848274369580865  0.22516190650195975  1.0000
  O   O39       1.0  0.9151592641720611  0.6982003279609758  0.22516881866028637  1.0000
  O   O40       1.0  0.8018027277666205  0.9151541566202965  0.2251720490397774  1.0000
  O   O41       1.0  0.91515411145793  0.8017945378369191  0.7251708550956837  1.0000
  O   O42       1.0  0.6982102837499369  0.9151564544610549  0.7251719032535676  1.0000
  O   O43       1.0  0.5848479928027003  0.6982038713573501  0.7251733555891918  1.0000
  O   O44       1.0  0.8017955489460814  0.5848486659438166  0.7251730327736257  1.0000
  O   O45       1.0  0.4151546991870346  0.1982131886224821  0.7748292205348478  1.0000
  O   O46       1.0  0.3017921972862822  0.415154340549904  0.7748262855046877  1.0000
  O   O47       1.0  0.08485483495844899  0.30179860037801376  0.774823362731702  1.0000
  O   O48       1.0  0.19820391446108226  0.0848485001873698  0.7748284737877001  1.0000
