data_image0
_chemical_formula_structural       Cd2H40C44N20O16
_chemical_formula_sum              "Cd2 H40 C44 N20 O16"
_cell_length_a       9.673583567031688
_cell_length_b       10.167367588008767
_cell_length_c       12.910086080565327
_cell_angle_alpha    90.00013094583487
_cell_angle_beta     95.6129120229055
_cell_angle_gamma    89.99991512169359

_space_group_name_H-M_alt    "P 1"
_space_group_IT_number       1

loop_
  _space_group_symop_operation_xyz
  'x, y, z'

loop_
  _atom_site_type_symbol
  _atom_site_label
  _atom_site_symmetry_multiplicity
  _atom_site_fract_x
  _atom_site_fract_y
  _atom_site_fract_z
  _atom_site_occupancy
  Cd  Cd1       1.0  0.49999999541684287  0.9999993616819796  0.9999990459570041  1.0000
  Cd  Cd2       1.0  1.7168047037001928e-06  0.5000003479266866  0.5000007343581174  1.0000
  H   H1        1.0  0.48828356834492576  0.2626913527514391  0.8884317445344223  1.0000
  H   H2        1.0  0.011716389193502198  0.7626899309759524  0.6115690299808775  1.0000
  H   H3        1.0  0.5117161162725665  0.7373086418403575  0.11156897576989877  1.0000
  H   H4        1.0  0.9882843341455754  0.2373090800764787  0.38843176477256236  1.0000
  H   H5        1.0  0.7950881059693627  0.5342183900716861  0.02817340166352269  1.0000
  H   H6        1.0  0.7049105393812667  0.03421749920750731  0.4718268421773785  1.0000
  H   H7        1.0  0.20491053992787298  0.4657806209819811  0.9718272441899882  1.0000
  H   H8        1.0  0.2950870633023328  0.965781511844547  0.5281721797241872  1.0000
  H   H9        1.0  0.8223821094612872  0.3873329835939502  0.18323268980555701  1.0000
  H   H10       1.0  0.6776181375064781  0.887332904535981  0.3167675329083862  1.0000
  H   H11       1.0  0.1776175751555513  0.6126679945365938  0.8167680304996023  1.0000
  H   H12       1.0  0.3223825835855862  0.11266709005408163  0.6832324870949051  1.0000
  H   H13       1.0  0.6845821964450421  0.1781668430989073  0.18187622920778773  1.0000
  H   H14       1.0  0.8154172900776614  0.6781665746842052  0.31812278609933736  1.0000
  H   H15       1.0  0.3154164449588208  0.8218331514912833  0.8181228671445806  1.0000
  H   H16       1.0  0.18458239678619037  0.32183341990871384  0.6818787089559775  1.0000
  H   H17       1.0  0.7041925583108579  0.554684132945205  0.8521979074098593  1.0000
  H   H18       1.0  0.7958101660202813  0.05468414708210642  0.647803758676119  1.0000
  H   H19       1.0  0.29580816502821955  0.44531487810721865  0.14780288734358038  1.0000
  H   H20       1.0  0.2041884776286196  0.9453178145866944  0.3521961124289277  1.0000
  H   H21       1.0  0.6345265859209731  0.6221773506887375  0.7061007246608922  1.0000
  H   H22       1.0  0.8654760389070117  0.12217670496616513  0.7938979580054946  1.0000
  H   H23       1.0  0.36547413517109106  0.3778226439013254  0.2938992953423991  1.0000
  H   H24       1.0  0.1345226047425498  0.8778242731638887  0.20610191309870626  1.0000
  H   H25       1.0  0.26404835403714333  0.5168838257575886  0.664218368627388  1.0000
  H   H26       1.0  0.23595296963598864  0.016887416652366507  0.8357812846355795  1.0000
  H   H27       1.0  0.7359513283346572  0.48311518529433795  0.3357815769251005  1.0000
  H   H28       1.0  0.7640498244045516  0.9831135614729691  0.1642173347664979  1.0000
  H   H29       1.0  0.20547653017565176  0.6696820809023123  0.36477379985415587  1.0000
  H   H30       1.0  0.29452256407991223  0.1696840276450118  0.13522642628680606  1.0000
  H   H31       1.0  0.7945231499491356  0.33031791368725294  0.6352253709481771  1.0000
  H   H32       1.0  0.7054750408480641  0.8303179340244075  0.8647733703682761  1.0000
  H   H33       1.0  0.44967711584325093  0.7551593140285179  0.377782698883422  1.0000
  H   H34       1.0  0.05032186602176839  0.25516058220971166  0.12221844839125848  1.0000
  H   H35       1.0  0.5503236052488133  0.24484068056153774  0.6222173211198622  1.0000
  H   H36       1.0  0.9496778163493713  0.7448394123809692  0.8777814971620685  1.0000
  H   H37       1.0  0.6054480551740155  0.7167168444412652  0.5408709246480753  1.0000
  H   H38       1.0  0.8945523699133844  0.21671663451564885  0.9591293205235444  1.0000
  H   H39       1.0  0.3945505884761999  0.28328315015004085  0.4591289464552871  1.0000
  H   H40       1.0  0.10544835342503228  0.7832833600755295  0.0408714742307339  1.0000
  C   C1        1.0  0.5632422287755077  0.2929568462146932  0.9519745667586647  1.0000
  C   C2        1.0  0.9367560166205209  0.7929575956460301  0.5480256600780179  1.0000
  C   C3        1.0  0.43675745359629303  0.7070421648372403  0.04802537879381669  1.0000
  C   C4        1.0  0.0632415883087774  0.20704239894589452  0.4519741365753802  1.0000
  C   C5        1.0  0.6370815386894292  0.41112699960862653  0.9461067882109049  1.0000
  C   C6        1.0  0.8629175846997795  0.9111249189085412  0.5538929406936289  1.0000
  C   C7        1.0  0.362918145928731  0.5888720114444156  0.0538939320925707  1.0000
  C   C8        1.0  0.1370810544610279  0.08887015798678281  0.446105380903539  1.0000
  C   C9        1.0  0.734089794818196  0.4442551297303154  0.030067720355127395  1.0000
  C   C10       1.0  0.765910378054869  0.9442553686190254  0.46993337459161205  1.0000
  C   C11       1.0  0.2659109262738681  0.5557448648597472  0.969932299648164  1.0000
  C   C12       1.0  0.2340882655960144  0.055743642433526495  0.530066496510905  1.0000
  C   C13       1.0  0.7509218456957639  0.3613842339209938  0.11599640565643196  1.0000
  C   C14       1.0  0.7490784338259502  0.8613852321070186  0.38400299786913183  1.0000
  C   C15       1.0  0.2490778366753759  0.638615760669687  0.884003539896895  1.0000
  C   C16       1.0  0.2509212440531384  0.13861377894268403  0.6159953981813686  1.0000
  C   C17       1.0  0.6741374167181107  0.24566997062564172  0.11616202762693459  1.0000
  C   C18       1.0  0.8258619770266478  0.7456698771021381  0.38383632853124533  1.0000
  C   C19       1.0  0.3258612269327656  0.7543290404269174  0.8838378434755825  1.0000
  C   C20       1.0  0.1741377030994613  0.25432815040993273  0.6161628422694037  1.0000
  C   C21       1.0  0.5155777610099364  0.4917829239684935  0.7800285454386112  1.0000
  C   C22       1.0  0.9844254090928003  0.9917791848002082  0.719971619390975  1.0000
  C   C23       1.0  0.4844177642337896  0.5082131364685624  0.21997032756049606  1.0000
  C   C24       1.0  0.015575311998610196  0.0082217933286017  0.2800284006131548  1.0000
  C   C25       1.0  0.44805365404365466  0.6100690047071353  0.6151214140747213  1.0000
  C   C26       1.0  0.051947546903384996  0.11006906113222212  0.8848791735196995  1.0000
  C   C27       1.0  0.5519460283274853  0.38993098988354563  0.38487853147860557  1.0000
  C   C28       1.0  0.9480542174003402  0.8899338840757027  0.11512247043805958  1.0000
  C   C29       1.0  0.3087969889829907  0.5684949006231861  0.602077474198431  1.0000
  C   C30       1.0  0.19120322450609714  0.0684967664358567  0.8979214182482096  1.0000
  C   C31       1.0  0.6912037321090737  0.43150509396687653  0.3979225458048602  1.0000
  C   C32       1.0  0.8087954213891564  0.9315051952340598  0.102079227607824  1.0000
  C   C33       1.0  0.27642262005690554  0.6551169068415775  0.43482678363424304  1.0000
  C   C34       1.0  0.22357649598106374  0.15511580041722794  0.06517419231162339  1.0000
  C   C35       1.0  0.723578105526549  0.3448850548282181  0.5651747858727134  1.0000
  C   C36       1.0  0.7764231908808128  0.844887144791933  0.934827302746207  1.0000
  C   C37       1.0  0.41213743746060766  0.7025509297760094  0.4426695618649034  1.0000
  C   C38       1.0  0.0878616104679821  0.2025509746108086  0.05732994581270388  1.0000
  C   C39       1.0  0.5878632858771552  0.2974500483539161  0.5573312328902204  1.0000
  C   C40       1.0  0.912139108376408  0.7974509870556407  0.9426692994412774  1.0000
  C   C41       1.0  0.4988483756354043  0.6804400649865131  0.5332544088361215  1.0000
  C   C42       1.0  0.0011516854743191998  0.18043944524239924  0.9667439005681471  1.0000
  C   C43       1.0  0.5011523432096467  0.3195609131411814  0.4667448364170211  1.0000
  C   C44       1.0  0.9988479968961671  0.819561532887029  0.033256044986025295  1.0000
  N   N1        1.0  0.5838667134346024  0.2122591044742208  0.03423984000635729  1.0000
  N   N2        1.0  0.9161316908926551  0.7122561700204529  0.4657599339839251  1.0000
  N   N3        1.0  0.4161329711815752  0.7877428571950704  0.9657608802996475  1.0000
  N   N4        1.0  0.08386591628365639  0.2877428410338396  0.5342406374196216  1.0000
  N   N5        1.0  0.6212318545743969  0.49460572164689165  0.860157887230194  1.0000
  N   N6        1.0  0.8787692387921597  0.9946038666231092  0.6398436830372204  1.0000
  N   N7        1.0  0.37876990523793097  0.5053952564812931  0.1398422072239072  1.0000
  N   N8        1.0  0.12123252775989357  0.0053961279696821  0.36015873566901035  1.0000
  N   N9        1.0  0.5353120504997406  0.5862802214765924  0.7050468182456411  1.0000
  N   N10       1.0  0.9646895837513227  0.08627845610458712  0.7949517284944958  1.0000
  N   N11       1.0  0.46468970706623475  0.41372075665047714  0.294952501457459  1.0000
  N   N12       1.0  0.035311132847375894  0.9137225220219917  0.20504674200765285  1.0000
  N   N13       1.0  0.22654814824058891  0.5900392474011938  0.5138759537309098  1.0000
  N   N14       1.0  0.2734499634051772  0.09004125226316972  0.986124376213496  1.0000
  N   N15       1.0  0.7734504976579616  0.409957796574979  0.4861246921209171  1.0000
  N   N16       1.0  0.7265486869847704  0.9099577587927288  0.013877819142002987  1.0000
  N   N17       1.0  0.4214720525836739  0.9569370403737948  0.24914061748741284  1.0000
  N   N18       1.0  0.0785297658479536  0.45693470588167173  0.2508579996828431  1.0000
  N   N19       1.0  0.57852866626137  0.0430639377538995  0.7508586277657228  1.0000
  N   N20       1.0  0.9214730281945689  0.5430633216274147  0.7491406197167121  1.0000
  O   O1        1.0  0.41517577358813895  0.4162727850786396  0.7763062353868121  1.0000
  O   O2        1.0  0.0848219005353386  0.9162686335595612  0.7236946532408054  1.0000
  O   O3        1.0  0.5848270249451133  0.5837281930489269  0.22369393351725356  1.0000
  O   O4        1.0  0.9151808980012105  0.0837274268742547  0.2763055156590467  1.0000
  O   O5        1.0  0.5157272933938727  0.9886215906380262  0.19058757804211976  1.0000
  O   O6        1.0  0.9842717812557709  0.4886227901247582  0.3094135184348872  1.0000
  O   O7        1.0  0.4842703137824317  0.0113774204162667  0.8094129933614269  1.0000
  O   O8        1.0  0.015728942082645896  0.511377204466413  0.6905872763193983  1.0000
  O   O9        1.0  0.3285710634560957  0.8740935894058455  0.2163619473016496  1.0000
  O   O10       1.0  0.17142567472367887  0.3740892520884458  0.2836369304952129  1.0000
  O   O11       1.0  0.6714265369791691  0.12590837226134974  0.7836362998514513  1.0000
  O   O12       1.0  0.828575046369707  0.6259087754241152  0.7163630895063946  1.0000
  O   O13       1.0  0.4238887928406853  0.005721435834253401  0.3385108860280254  1.0000
  O   O14       1.0  0.07611052131272089  0.505719084191931  0.161489059319841  1.0000
  O   O15       1.0  0.5761119304957559  0.994281509373167  0.6614899087287822  1.0000
  O   O16       1.0  0.9238901997793435  0.494280910398132  0.8385109606834504  1.0000
