data_image0
_chemical_formula_structural       Hg2H44C40I4N6O4
_chemical_formula_sum              "Hg2 H44 C40 I4 N6 O4"
_cell_length_a       7.989083743478472
_cell_length_b       9.640886145430436
_cell_length_c       15.625620048146295
_cell_angle_alpha    87.04501280737159
_cell_angle_beta     86.99494807991974
_cell_angle_gamma    68.71484094832819

_space_group_name_H-M_alt    "P 1"
_space_group_IT_number       1

loop_
  _space_group_symop_operation_xyz
  'x, y, z'

loop_
  _atom_site_type_symbol
  _atom_site_label
  _atom_site_symmetry_multiplicity
  _atom_site_fract_x
  _atom_site_fract_y
  _atom_site_fract_z
  _atom_site_occupancy
  Hg  Hg1       1.0  0.8877286762996376  0.036831041208714096  0.7363079622249844  1.0000
  Hg  Hg2       1.0  0.11226474355765975  0.9631671111941312  0.2636920587772026  1.0000
  H   H1        1.0  0.19190104164260896  0.7201223556529897  0.77393200196439  1.0000
  H   H2        1.0  0.8081076377220101  0.2798782504137094  0.2260706295561833  1.0000
  H   H3        1.0  0.3203601462399418  0.5195901082644597  0.8836726689088936  1.0000
  H   H4        1.0  0.6796480489866994  0.4804172361311813  0.11633163488333763  1.0000
  H   H5        1.0  0.9402682902779701  0.7964806314404954  0.06858808203453756  1.0000
  H   H6        1.0  0.059725628824082784  0.2035220129016153  0.931412387195593  1.0000
  H   H7        1.0  0.8213007177971007  0.9856477284518232  0.9478344503864098  1.0000
  H   H8        1.0  0.17869666970445755  0.014352687570280399  0.052164073657074525  1.0000
  H   H9        1.0  0.1312355686177398  0.5574764840099106  0.11766388339537316  1.0000
  H   H10       1.0  0.8687638787321105  0.4425251394608339  0.8823390070350288  1.0000
  H   H11       1.0  0.3934452972621613  0.3626720632661815  0.9814347397039075  1.0000
  H   H12       1.0  0.6065603578779745  0.6373296006513058  0.018566028190036808  1.0000
  H   H13       1.0  0.5677671786815566  0.1253878675786808  0.016130241774782  1.0000
  H   H14       1.0  0.4322134876416044  0.8746022624605133  0.983867305391137  1.0000
  H   H15       1.0  0.6982893215522877  0.9151631547892763  0.12059033905635637  1.0000
  H   H16       1.0  0.3016783919324624  0.08482236459766308  0.8794084475213995  1.0000
  H   H17       1.0  0.3785375204991083  0.1840640070325819  0.3240549838711433  1.0000
  H   H18       1.0  0.6214811159892477  0.8159422959017774  0.6759464626858149  1.0000
  H   H19       1.0  0.25301105418206765  0.3943663211426056  0.22096673569568995  1.0000
  H   H20       1.0  0.747018059631202  0.6056445838292034  0.7790348319506397  1.0000
  H   H21       1.0  0.7451600212842066  0.8837719261996213  0.4865149916522286  1.0000
  H   H22       1.0  0.25484654732652967  0.11621420891530221  0.513495314429214  1.0000
  H   H23       1.0  0.7634832960554405  0.7088854796693056  0.5367339933663616  1.0000
  H   H24       1.0  0.2365158857133735  0.2910914514776977  0.4632653909882764  1.0000
  H   H25       1.0  0.5490717543777136  0.8538405922510748  0.5280668148406777  1.0000
  H   H26       1.0  0.45093201026923424  0.1461376022337433  0.4719387721910808  1.0000
  H   H27       1.0  0.42809505641695733  0.6915550563931205  0.46870715290442905  1.0000
  H   H28       1.0  0.5719016040257614  0.308444251036498  0.5312927180843732  1.0000
  H   H29       1.0  0.6346228656164785  0.5362267730825392  0.46347167351026314  1.0000
  H   H30       1.0  0.365373927607628  0.46376905645153943  0.5365200087224552  1.0000
  H   H31       1.0  0.5068123143883058  0.6026439874501432  0.3696776732441622  1.0000
  H   H32       1.0  0.4931797668299112  0.3973708831342292  0.6303178971003692  1.0000
  H   H33       1.0  0.10922780374963999  0.625047098187565  0.34345567992028964  1.0000
  H   H34       1.0  0.8907662118244773  0.37497446261129147  0.6565363660449963  1.0000
  H   H35       1.0  0.026026355751938075  0.5618887198973397  0.43971810437336983  1.0000
  H   H36       1.0  0.9739874395845124  0.4381252803605875  0.5602774374963959  1.0000
  H   H37       1.0  0.9996154693351329  0.7532104148059418  0.42483160889579363  1.0000
  H   H38       1.0  0.0003805700240775477  0.24680670994282383  0.5751618251317513  1.0000
  H   H39       1.0  0.9483278658060782  0.519522565992169  0.25440509074489637  1.0000
  H   H40       1.0  0.051677307145958244  0.48048023057502587  0.7455969285291817  1.0000
  H   H41       1.0  0.7138391694598524  0.5584959246027167  0.2685104491078364  1.0000
  H   H42       1.0  0.28616555371365854  0.44149682162036186  0.731493897838192  1.0000
  H   H43       1.0  0.8647752417035193  0.4441993118730991  0.34616550153326414  1.0000
  H   H44       1.0  0.13523670675633076  0.5558024775849972  0.6538388980487684  1.0000
  C   C1        1.0  0.13775661475077786  0.7308666827587585  0.8399417984368616  1.0000
  C   C2        1.0  0.8622480380000823  0.2691372086386464  0.1600589147842372  1.0000
  C   C3        1.0  0.2085297145304423  0.619723838402045  0.9019061300675164  1.0000
  C   C4        1.0  0.7914799292103823  0.38027450236522503  0.09809399869276804  1.0000
  C   C5        1.0  0.1361812587269355  0.6384946346678787  0.9864736469409441  1.0000
  C   C6        1.0  0.8638177064348086  0.3615081214525802  0.013530494869598916  1.0000
  C   C7        1.0  0.996098009601596  0.7745961641698074  0.0033690110503385917  1.0000
  C   C8        1.0  0.0039021267940171256  0.22540653007391848  0.9966299750016181  1.0000
  C   C9        1.0  0.9313108467159028  0.8797800955503163  0.9372432328748135  1.0000
  C   C10       1.0  0.06869254171827781  0.12021815749583448  0.06275582163051753  1.0000
  C   C11       1.0  0.19871481058740406  0.526274658365658  0.055164562629102014  1.0000
  C   C12       1.0  0.8013038222473268  0.4737148180761322  0.9448349818950068  1.0000
  C   C13       1.0  0.32995732720900856  0.3913346081250708  0.04511861366817982  1.0000
  C   C14       1.0  0.6700348775517073  0.6086803853726934  0.9548852683340175  1.0000
  C   C15       1.0  0.4000226240040163  0.2745108166429375  0.11034640341843988  1.0000
  C   C16       1.0  0.5999832589502033  0.7254874639277561  0.8896525693022501  1.0000
  C   C17       1.0  0.5276611030985094  0.13759036435580188  0.08403407040414385  1.0000
  C   C18       1.0  0.4723283700709402  0.8623999376583028  0.915968305381789  1.0000
  C   C19       1.0  0.6012657830793202  0.020144288508404898  0.14213320998914017  1.0000
  C   C20       1.0  0.39871431552631975  0.9798468890866161  0.8578598343323807  1.0000
  C   C21       1.0  0.5486607620148476  0.0350963675818008  0.22954969688911592  1.0000
  C   C22       1.0  0.45133223462384126  0.9648973685207874  0.7704549907513896  1.0000
  C   C23       1.0  0.42076089358963736  0.17146758426698477  0.25672465067960104  1.0000
  C   C24       1.0  0.5792516564366751  0.8285407965494471  0.7432705111909642  1.0000
  C   C25       1.0  0.3491201364530454  0.2891393975560773  0.1981947226451767  1.0000
  C   C26       1.0  0.6509080492933563  0.7108513783628679  0.8018095822701955  1.0000
  C   C27       1.0  0.62347717101045  0.9095869487016442  0.2896041874722429  1.0000
  C   C28       1.0  0.37651488559771457  0.09041668215964188  0.7103886230143959  1.0000
  C   C29       1.0  0.6500031541270277  0.7423012548899024  0.4105106033102859  1.0000
  C   C30       1.0  0.34999874022651073  0.25770034883100823  0.5894890085440567  1.0000
  C   C31       1.0  0.8222824712708817  0.68054364975184  0.3501919851272037  1.0000
  C   C32       1.0  0.17771590716679947  0.3194601350147011  0.6498063751223742  1.0000
  C   C33       1.0  0.6804468396406023  0.8012140763582136  0.49547827956644874  1.0000
  C   C34       1.0  0.31955462589082373  0.1987718902491054  0.5045245177848872  1.0000
  C   C35       1.0  0.5485022473684605  0.6361456562027071  0.42852105185513545  1.0000
  C   C36       1.0  0.4514928809805383  0.3638569640821742  0.5714768190495436  1.0000
  C   C37       1.0  0.999724125637897  0.6549753909167961  0.3924979155332553  1.0000
  C   C38       1.0  0.0002746740685069551  0.3450384158292294  0.6074961989695284  1.0000
  C   C39       1.0  0.837013920262784  0.5418384909332515  0.30220649586026144  1.0000
  C   C40       1.0  0.1629907914575739  0.4581598515141819  0.6977976326190146  1.0000
  I   I1        1.0  0.6315842319681052  0.26271778416597147  0.819675915406407  1.0000
  I   I2        1.0  0.3684136472248267  0.7372815086613045  0.18032199661521997  1.0000
  I   I3        1.0  0.11533165520881282  0.8821317446121739  0.6104344873563293  1.0000
  I   I4        1.0  0.8846502659277605  0.11786401432339488  0.38956407916707303  1.0000
  N   N1        1.0  0.5343921225072351  0.8754794396307658  0.358962393820427  1.0000
  N   N2        1.0  0.4656016562600342  0.12452106747278438  0.6410452039159865  1.0000
  N   N3        1.0  0.7899621290476732  0.8043904737790866  0.2831278551382398  1.0000
  N   N4        1.0  0.21003172548137877  0.19560649869966798  0.7168677176923952  1.0000
  N   N5        1.0  0.9998185393649879  0.8580509599855191  0.8565753881287538  1.0000
  N   N6        1.0  0.00018213623833669956  0.14195065833774828  0.14342618269275684  1.0000
  O   O1        1.0  0.36981525592042175  0.9459070226803592  0.3814695867175716  1.0000
  O   O2        1.0  0.6301806850168461  0.054096791290888305  0.6185326914663423  1.0000
  O   O3        1.0  0.9125310130061097  0.8007397581270652  0.2254428048359572  1.0000
  O   O4        1.0  0.0874523317884552  0.19926379530806318  0.774551570613497  1.0000
