data_image0
_chemical_formula_structural       Al2H10C16S2N2O10
_chemical_formula_sum              "Al2 H10 C16 S2 N2 O10"
_cell_length_a       6.702014997552622
_cell_length_b       11.01125668532256
_cell_length_c       12.761224696707052
_cell_angle_alpha    67.10173233373258
_cell_angle_beta     74.77291488539868
_cell_angle_gamma    74.05433111727692

_space_group_name_H-M_alt    "P 1"
_space_group_IT_number       1

loop_
  _space_group_symop_operation_xyz
  'x, y, z'

loop_
  _atom_site_type_symbol
  _atom_site_label
  _atom_site_symmetry_multiplicity
  _atom_site_fract_x
  _atom_site_fract_y
  _atom_site_fract_z
  _atom_site_occupancy
  Al  Al1       1.0  0.49999160895964667  0.49964908598049357  0.5005928854310612  1.0000
  Al  Al2       1.0  3.402194960229822e-05  0.499365317107575  0.500437444877619  1.0000
  H   H1        1.0  0.25478859956969296  0.6354140192325701  0.36795211412302825  1.0000
  H   H2        1.0  0.7341711666324571  0.3804154054060192  0.640454263999132  1.0000
  H   H3        1.0  0.7051835048164677  0.10654689670901972  0.5620224373221419  1.0000
  H   H4        1.0  0.29676846901063647  0.8970314402911581  0.43228419837122106  1.0000
  H   H5        1.0  0.3944050095459346  0.4855682017851634  0.8582226008085315  1.0000
  H   H6        1.0  0.6058016679585307  0.5112639334228603  0.14464339364291587  1.0000
  H   H7        1.0  0.9598119055270117  0.7752744192474879  0.5469452872889349  1.0000
  H   H8        1.0  0.9605508063906428  0.8968070919878672  0.6011123197626702  1.0000
  H   H9        1.0  0.03259623056911919  0.2199142343588106  0.45622134927790375  1.0000
  H   H10       1.0  0.022342427665172703  0.08472020305430307  0.42099043203083414  1.0000
  C   C1        1.0  0.8400922064243873  0.5148561684609945  0.3004212039060121  1.0000
  C   C2        1.0  0.6527801642544231  0.7357796724600618  0.48174746149477704  1.0000
  C   C3        1.0  0.16015648421792142  0.48310111219556257  0.7017019998144037  1.0000
  C   C4        1.0  0.34775198849701644  0.2654081918633295  0.5161010067408327  1.0000
  C   C5        1.0  0.5839143795843214  0.8732608199671643  0.4875172023152673  1.0000
  C   C6        1.0  0.4197645245901143  0.13037375962959893  0.5055959066868922  1.0000
  C   C7        1.0  0.707213510579962  0.9317791778039461  0.5238600801127902  1.0000
  C   C8        1.0  0.2990779644790393  0.07378577282021577  0.46580242087620866  1.0000
  C   C9        1.0  0.6178461805119471  0.058787240035592006  0.5331007021487153  1.0000
  C   C10       1.0  0.38641232032624356  0.9448766543062135  0.459579788307842  1.0000
  C   C11       1.0  0.22584585692447934  0.4892450141205983  0.887476741257089  1.0000
  C   C12       1.0  0.7743224139212544  0.5076242150965198  0.1151700877634099  1.0000
  C   C13       1.0  0.09673978650331344  0.48792799513388746  0.8193950767614311  1.0000
  C   C14       1.0  0.9036370672645191  0.5091875986529929  0.18298342651893762  1.0000
  C   C15       1.0  0.891242800658411  0.5004445189354882  0.007613570290239023  1.0000
  C   C16       1.0  0.10905627734163655  0.4961027586196635  0.995160145117602  1.0000
  S   S1        1.0  0.8331556970013237  0.4958451699071701  0.8855078428886857  1.0000
  S   S2        1.0  0.1671502205299547  0.5007927318802387  0.1171794627988092  1.0000
  N   N1        1.0  0.9093367462711369  0.8715129726966349  0.5458403070929593  1.0000
  N   N2        1.0  0.11003733542325729  0.14097930970665115  0.42955779422651125  1.0000
  O   O1        1.0  0.6480753457135434  0.5113414641139542  0.34743425443822673  1.0000
  O   O2        1.0  0.8469928736525817  0.678838463553248  0.48590542136115283  1.0000
  O   O3        1.0  0.01667316055685564  0.47619534443095546  0.6561119103589094  1.0000
  O   O4        1.0  0.4833017115017739  0.3191855283618565  0.5275976954575228  1.0000
  O   O5        1.0  0.35226531416248724  0.4869048127998992  0.6547442794546044  1.0000
  O   O6        1.0  0.152734289709457  0.3208847750955783  0.5140486365621797  1.0000
  O   O7        1.0  0.9831814089764704  0.5226585664420041  0.34561101642853503  1.0000
  O   O8        1.0  0.5155607877225492  0.6812118950142787  0.4729122455268283  1.0000
  O   O9        1.0  0.2475036535455998  0.5667342325912015  0.4437650980982043  1.0000
  O   O10       1.0  0.7517919633234981  0.4323687483591242  0.5586867223921388  1.0000
