data_image0
_chemical_formula_structural       Cu2H16C24N4O8
_chemical_formula_sum              "Cu2 H16 C24 N4 O8"
_cell_length_a       8.988498067067663
_cell_length_b       8.255342539653205
_cell_length_c       9.73972646850985
_cell_angle_alpha    115.22102017275323
_cell_angle_beta     97.58086545315085
_cell_angle_gamma    103.01307484808136

_space_group_name_H-M_alt    "P 1"
_space_group_IT_number       1

loop_
  _space_group_symop_operation_xyz
  'x, y, z'

loop_
  _atom_site_type_symbol
  _atom_site_label
  _atom_site_symmetry_multiplicity
  _atom_site_fract_x
  _atom_site_fract_y
  _atom_site_fract_z
  _atom_site_occupancy
  Cu  Cu1       1.0  0.280463165831037  0.0217144088556012  0.18345724141656214  1.0000
  Cu  Cu2       1.0  0.7195374661302691  0.9782801536924096  0.8165415329774462  1.0000
  H   H1        1.0  0.5901901559062708  0.3387868722432117  0.29505172849717815  1.0000
  H   H2        1.0  0.40981337329694867  0.661206084451827  0.7049458152872248  1.0000
  H   H3        1.0  0.7908058865855806  0.5541971413564611  0.5580107191847505  1.0000
  H   H4        1.0  0.20918946438485617  0.4458061965695421  0.44198839029650133  1.0000
  H   H5        1.0  0.7419611530159572  0.5239899037953819  0.7912311696541466  1.0000
  H   H6        1.0  0.2580268913734757  0.4760153238543128  0.2087707889880407  1.0000
  H   H7        1.0  0.5037431934272902  0.2728370927895938  0.7601837014375478  1.0000
  H   H8        1.0  0.4962460905768182  0.727160893931142  0.23981488176711727  1.0000
  H   H9        1.0  0.2909430191291165  0.06230424594903642  0.7114752492237814  1.0000
  H   H10       1.0  0.7090633644778492  0.9376984139383139  0.2885208529008736  1.0000
  H   H11       1.0  0.043039986303767826  0.7976419656016064  0.6292625357215798  1.0000
  H   H12       1.0  0.956974767509898  0.20235478433919243  0.37073972858441817  1.0000
  H   H13       1.0  0.8974201590933647  0.6093681330083601  0.3405631045266519  1.0000
  H   H14       1.0  0.10258928534778285  0.3906220232764924  0.6594454853208236  1.0000
  H   H15       1.0  0.002508312371602938  0.7071683235761553  0.15185291778308135  1.0000
  H   H16       1.0  0.9974869916396257  0.29281958203964115  0.8481501041089674  1.0000
  C   C1        1.0  0.5768731215594015  0.32921214414306377  0.4011477986352433  1.0000
  C   C2        1.0  0.4231269540707957  0.6707881637781629  0.5988528908406183  1.0000
  C   C3        1.0  0.6863127682271112  0.44733462143850733  0.5456083654833038  1.0000
  C   C4        1.0  0.3136833160765278  0.5526788463583756  0.454399462809299  1.0000
  C   C5        1.0  0.6586740244185663  0.42988529874497783  0.6769286362944629  1.0000
  C   C6        1.0  0.3413176902937138  0.5701209507609305  0.32306693002177417  1.0000
  C   C7        1.0  0.5241589793219389  0.29284771655743214  0.6597466070821414  1.0000
  C   C8        1.0  0.47582460567876683  0.7071461695363582  0.3402467909443487  1.0000
  C   C9        1.0  0.41944869544629876  0.1777474692638421  0.5106424688375953  1.0000
  C   C10       1.0  0.5805444472488616  0.8222445433615775  0.48935246586087555  1.0000
  C   C11       1.0  0.27508813754540984  0.02496415722794151  0.47592289370151536  1.0000
  C   C12       1.0  0.7249055557978039  0.9750335456220753  0.5240740709518336  1.0000
  C   C13       1.0  0.22333856048130232  0.9814018210207751  0.5888524306931303  1.0000
  C   C14       1.0  0.7766591370829872  0.018594220827665705  0.411143418223631  1.0000
  C   C15       1.0  0.08587390363147311  0.8317162341388169  0.5418809371047787  1.0000
  C   C16       1.0  0.9141301947973587  0.1682824760570938  0.45812071467792503  1.0000
  C   C17       1.0  0.004044236213367492  0.7292684333999303  0.3833530480306707  1.0000
  C   C18       1.0  0.9959608515309311  0.27072600346803455  0.6166493029205925  1.0000
  C   C19       1.0  0.061389354020335  0.780956839007402  0.27693229537896974  1.0000
  C   C20       1.0  0.9386140611249159  0.21904336674425912  0.7230708167593961  1.0000
  C   C21       1.0  0.4758184739861946  0.08076087514373143  0.9901879784136938  1.0000
  C   C22       1.0  0.5241891863905721  0.9192346703671959  0.009808904360312485  1.0000
  C   C23       1.0  0.005554514314880511  0.9023727585314631  0.9411842351923528  1.0000
  C   C24       1.0  0.9944530020602683  0.0976528439554443  0.05882402796564887  1.0000
  N   N1        1.0  0.4463661895169934  0.1986597172776854  0.3845675076896741  1.0000
  N   N2        1.0  0.553631480180961  0.8013362296563501  0.6154252241619462  1.0000
  N   N3        1.0  0.19301009742844144  0.9253621340409668  0.3224861917407155  1.0000
  N   N4        1.0  0.8069872321729292  0.0746326572291451  0.677514316077641  1.0000
  O   O1        1.0  0.3752069177956159  0.14245221159217894  0.062239428228849626  1.0000
  O   O2        1.0  0.624803893728007  0.8575502277007275  0.937757133387912  1.0000
  O   O3        1.0  0.10840364515633645  0.8404883588817642  0.9898029567684576  1.0000
  O   O4        1.0  0.891601329045315  0.15952860116234996  0.010195855017393255  1.0000
  O   O5        1.0  0.5378681005182031  0.1413985280474321  0.9062990229284299  1.0000
  O   O6        1.0  0.46214024314213725  0.8585955219077521  0.09369639948991454  1.0000
  O   O7        1.0  0.08687727159641409  0.1839000647164823  0.1937311093905266  1.0000
  O   O8        1.0  0.9131252847915832  0.8161201314165397  0.8062767423639132  1.0000
