data_image0
_chemical_formula_structural       Ga2H10C16O10
_chemical_formula_sum              "Ga2 H10 C16 O10"
_cell_length_a       6.846036066313154
_cell_length_b       11.010775573045855
_cell_length_c       11.234981249894483
_cell_angle_alpha    119.34241609574715
_cell_angle_beta     107.73034071193305
_cell_angle_gamma    89.99924850764253

_space_group_name_H-M_alt    "P 1"
_space_group_IT_number       1

loop_
  _space_group_symop_operation_xyz
  'x, y, z'

loop_
  _atom_site_type_symbol
  _atom_site_label
  _atom_site_symmetry_multiplicity
  _atom_site_fract_x
  _atom_site_fract_y
  _atom_site_fract_z
  _atom_site_occupancy
  Ga  Ga1       1.0  3.772519008949775e-07  0.49999972436785345  0.9999989109822209  1.0000
  Ga  Ga2       1.0  0.5000001047826858  0.49999946704464543  0.9999991126103324  1.0000
  H   H1        1.0  0.8757403823919746  0.5140483868466035  0.6247227787974127  1.0000
  H   H2        1.0  0.6242605828283843  0.8893251851171583  0.37528073013810126  1.0000
  H   H3        1.0  0.7508824866023716  0.48591447476767496  0.3751808534652525  1.0000
  H   H4        1.0  0.7491207911429997  0.11073491992858916  0.624824032374285  1.0000
  H   H5        1.0  0.1242604037141888  0.48595110370435873  0.3752774867764542  1.0000
  H   H6        1.0  0.3757381092164919  0.11067590437121301  0.6247190127630873  1.0000
  H   H7        1.0  0.24911829950379172  0.5140850157832871  0.6248194121086145  1.0000
  H   H8        1.0  0.25087915139347666  0.8892669454437155  0.37517542567364637  1.0000
  H   H9        1.0  0.7500017661877506  0.3314006572187225  4.774511595327828e-07  1.0000
  H   H10       1.0  0.25000054878377403  0.6685982219537294  0.9999991801664765  1.0000
  C   C1        1.0  0.7118506917073616  0.5080770001589555  0.5688289422346743  1.0000
  C   C2        1.0  0.7881524161006722  0.939249459697386  0.4311748073648474  1.0000
  C   C3        1.0  0.6429796466246958  0.49188197095147496  0.4311039628259722  1.0000
  C   C4        1.0  0.8570218222906971  0.060779972030154214  0.5689022287600523  1.0000
  C   C5        1.0  0.28815162748836787  0.49192277249648714  0.4311716038004009  1.0000
  C   C6        1.0  0.21184655854216322  0.060751136011539524  0.5688255008507994  1.0000
  C   C7        1.0  0.3570193237939422  0.5081177312744456  0.5688954569722426  1.0000
  C   C8        1.0  0.14297716080053394  0.9392224106447599  0.4310998562904588  1.0000
  C   C9        1.0  0.5691858680650198  0.5164533677086283  0.6384221803992887  1.0000
  C   C10       1.0  0.6423043695137951  0.5297250298892706  0.7847560556079288  1.0000
  C   C11       1.0  0.930812096472678  0.8780324625051037  0.361576776747988  1.0000
  C   C12       1.0  0.8576977461562478  0.7449688783905162  0.21523985681687935  1.0000
  C   C13       1.0  0.4308151964148977  0.4835447355798976  0.3615777620716046  1.0000
  C   C14       1.0  0.3576964123681705  0.4702735671786939  0.21524332154849907  1.0000
  C   C15       1.0  0.06918687394595224  0.12196723972082422  0.6384226430502196  1.0000
  C   C16       1.0  0.14230429466572056  0.25503228152737023  0.7847610123211767  1.0000
  O   O1        1.0  0.8365916450338774  0.5343580559479975  0.8405224328710547  1.0000
  O   O2        1.0  0.6634040507203166  0.6938361058142348  0.1594738330023803  1.0000
  O   O3        1.0  0.4962187045768116  0.46551874661766124  0.15943503087158467  1.0000
  O   O4        1.0  0.003784353365340162  0.30608351010837953  0.84056534885017  1.0000
  O   O5        1.0  0.16340732538475314  0.4656416462779305  0.15947698692715306  1.0000
  O   O6        1.0  0.33659701798380576  0.3061628909572748  0.8405269978859453  1.0000
  O   O7        1.0  0.5037817947071871  0.5344803442297561  0.840563780970392  1.0000
  O   O8        1.0  0.9962146170532974  0.6939161921175483  0.15943407094803771  1.0000
  O   O9        1.0  0.7500007261421757  0.4194230644524096  0.9999992488094237  1.0000
  O   O10       1.0  0.2500000557397896  0.5805755326155548  1.2834701125292617e-07  1.0000
