data_image0
_chemical_formula_structural       Zn2H22C28N4O14
_chemical_formula_sum              "Zn2 H22 C28 N4 O14"
_cell_length_a       7.205716817638506
_cell_length_b       9.509143183474903
_cell_length_c       12.307390135939432
_cell_angle_alpha    68.35934164712526
_cell_angle_beta     80.74662427500712
_cell_angle_gamma    73.83602300956544

_space_group_name_H-M_alt    "P 1"
_space_group_IT_number       1

loop_
  _space_group_symop_operation_xyz
  'x, y, z'

loop_
  _atom_site_type_symbol
  _atom_site_label
  _atom_site_symmetry_multiplicity
  _atom_site_fract_x
  _atom_site_fract_y
  _atom_site_fract_z
  _atom_site_occupancy
  Zn  Zn1       1.0  0.11371875290451065  0.12655452511098997  0.11555675921394479  1.0000
  Zn  Zn2       1.0  0.886287012635293  0.8734498527573252  0.8844416458045431  1.0000
  H   H1        1.0  0.353096863961575  0.14999874677271663  0.9252033906666881  1.0000
  H   H2        1.0  0.6468959432890456  0.8500104232118559  0.0748003055084752  1.0000
  H   H3        1.0  0.47130172782070184  0.15700260209817432  0.02108551795619458  1.0000
  H   H4        1.0  0.528703591964188  0.8429924854599876  0.9789187466388114  1.0000
  H   H5        1.0  0.5027933573063166  0.5723193748133183  0.3773519829666724  1.0000
  H   H6        1.0  0.4972260091149466  0.42767324296305276  0.6226413900220037  1.0000
  H   H7        1.0  0.5332494450025604  0.22662750342527002  0.2216536897397319  1.0000
  H   H8        1.0  0.46674145077822937  0.7733701054500912  0.7783460295161079  1.0000
  H   H9        1.0  0.3520125132088125  0.4333769599454128  0.054593997517429216  1.0000
  H   H10       1.0  0.6479771408753691  0.5666253104140467  0.9454037053884718  1.0000
  H   H11       1.0  0.9436050065520188  0.440057157967594  0.13657941712249058  1.0000
  H   H12       1.0  0.05638763976532603  0.559953182228881  0.8634215267874126  1.0000
  H   H13       1.0  0.914725738104714  0.5656323655107585  0.28392295004348267  1.0000
  H   H14       1.0  0.08527074745928326  0.4343686318678621  0.7160827481663432  1.0000
  H   H15       1.0  0.20869100884203817  0.1192394749265091  0.5176442213771892  1.0000
  H   H16       1.0  0.7912960379605565  0.8807604876671891  0.48236081293588023  1.0000
  H   H17       1.0  0.23025483429487537  0.0114735773784034  0.3594485893853232  1.0000
  H   H18       1.0  0.7697284689616523  0.9885252798333255  0.6405545798352605  1.0000
  H   H19       1.0  0.988992207745781  0.33922566398656073  0.5918603153365609  1.0000
  H   H20       1.0  0.011006558937900505  0.6607776305959092  0.40814295658123706  1.0000
  H   H21       1.0  0.20413390951109986  0.39824052754214284  0.5319388789953763  1.0000
  H   H22       1.0  0.7958685321974455  0.6017511318134439  0.46806084984575597  1.0000
  C   C1        1.0  0.33197545565072767  0.6187080381362051  0.1202138118919507  1.0000
  C   C2        1.0  0.6680255345037978  0.38129408926885583  0.8797823061416779  1.0000
  C   C3        1.0  0.3753348916181096  0.6588939635804394  0.21079275049071808  1.0000
  C   C4        1.0  0.6246809519868677  0.3411010184761807  0.7892010324400474  1.0000
  C   C5        1.0  0.4703079374513023  0.5431022536995728  0.30610532347749597  1.0000
  C   C6        1.0  0.5297051400864845  0.4568927662960434  0.6938878337723509  1.0000
  C   C7        1.0  0.5225953471359405  0.38959509614380744  0.3082828980019983  1.0000
  C   C8        1.0  0.4774023300597037  0.6104035889761266  0.6917152244312844  1.0000
  C   C9        1.0  0.486136576631459  0.3473038297616001  0.21797820464750117  1.0000
  C   C10       1.0  0.5138468897060162  0.6526950327310885  0.7820225120155085  1.0000
  C   C11       1.0  0.3871300405244327  0.4632072521456934  0.12497165678608717  1.0000
  C   C12       1.0  0.6128542423586509  0.5367939238798557  0.8750275470232296  1.0000
  C   C13       1.0  0.2337308669212917  0.7425811569175876  0.01524127684768223  1.0000
  C   C14       1.0  0.7662737602063459  0.2574232478416646  0.9847531364939782  1.0000
  C   C15       1.0  0.32595922823170287  0.8271859843136442  0.2022953339491309  1.0000
  C   C16       1.0  0.6740556411829032  0.1728113170429495  0.7977027546814172  1.0000
  C   C17       1.0  0.00018752404972838802  0.37261521673020337  0.2224995266830234  1.0000
  C   C18       1.0  0.9998102651550695  0.6273869345313018  0.7775025058232216  1.0000
  C   C19       1.0  0.9846377131578945  0.4420776020468011  0.3062782340493301  1.0000
  C   C20       1.0  0.015357686206591807  0.5579222484902147  0.693727859787316  1.0000
  C   C21       1.0  0.06054405995956099  0.35281574645408403  0.4153655755732473  1.0000
  C   C22       1.0  0.9394456463372617  0.6471853501728332  0.5846365146362943  1.0000
  C   C23       1.0  0.14856637095689249  0.1950913350433368  0.4342980504485893  1.0000
  C   C24       1.0  0.8514197527271391  0.8049074859897091  0.5657049269337263  1.0000
  C   C25       1.0  0.16022818210204542  0.13337654821592082  0.34688283034448386  1.0000
  C   C26       1.0  0.8397601139810218  0.8666245665003345  0.6531193557841917  1.0000
  C   C27       1.0  0.053620648203015264  0.41524606268487224  0.5123108151667708  1.0000
  C   C28       1.0  0.9463841322740477  0.5847513582558223  0.4876912149744825  1.0000
  N   N1        1.0  0.6193620344462402  0.2672722044847191  0.4086381331583482  1.0000
  N   N2        1.0  0.380637371541205  0.7327206595011263  0.5913598527749854  1.0000
  N   N3        1.0  0.08725240669728153  0.22120268602833457  0.24164641593517186  1.0000
  N   N4        1.0  0.9127395861554034  0.7788053459162257  0.7583535882708574  1.0000
  O   O1        1.0  0.07496738578443274  0.7213884888907742  0.996774724250976  1.0000
  O   O2        1.0  0.9250375164333065  0.278619387291009  0.003221146606072997  1.0000
  O   O3        1.0  0.3111549075279356  0.8520112025502798  0.9530067513382078  1.0000
  O   O4        1.0  0.6888493977331434  0.1479955426327706  0.0469821574729323  1.0000
  O   O5        1.0  0.14653305845482845  0.9000880749788109  0.18344623746332894  1.0000
  O   O6        1.0  0.8534815445943733  0.09991385568998368  0.8165562790516815  1.0000
  O   O7        1.0  0.4573297185458143  0.8852739005609181  0.20939630671608706  1.0000
  O   O8        1.0  0.5426887802580465  0.1147198645432042  0.7906049417568255  1.0000
  O   O9        1.0  0.6294079815182911  0.30021076364859306  0.49619685704199407  1.0000
  O   O10       1.0  0.3705869709504414  0.6997775094502001  0.5038043464370004  1.0000
  O   O11       1.0  0.6873940776154228  0.1357196843130311  0.4013875707127354  1.0000
  O   O12       1.0  0.31260701582355177  0.8642778084988693  0.5986065719940044  1.0000
  O   O13       1.0  0.3357535075911287  0.1790682402542743  0.9957647943623726  1.0000
  O   O14       1.0  0.6642511152411642  0.820933813519254  0.004240028624963151  1.0000
