data_image0
_chemical_formula_structural       Co2H20C28N4O8
_chemical_formula_sum              "Co2 H20 C28 N4 O8"
_cell_length_a       7.315019460009668
_cell_length_b       9.255897218350823
_cell_length_c       9.487368479768854
_cell_angle_alpha    99.62189260130705
_cell_angle_beta     91.35546039400239
_cell_angle_gamma    110.65044360505482

_space_group_name_H-M_alt    "P 1"
_space_group_IT_number       1

loop_
  _space_group_symop_operation_xyz
  'x, y, z'

loop_
  _atom_site_type_symbol
  _atom_site_label
  _atom_site_symmetry_multiplicity
  _atom_site_fract_x
  _atom_site_fract_y
  _atom_site_fract_z
  _atom_site_occupancy
  Co  Co1       1.0  0.6818928339719859  0.9502701070546423  0.907409172167263  1.0000
  Co  Co2       1.0  0.3181092239249919  0.04972875359707269  0.09258965216992718  1.0000
  H   H1        1.0  0.7592698906905466  0.2630796543092231  0.3754375463743215  1.0000
  H   H2        1.0  0.24073298996668754  0.7369239427603486  0.6245651987512132  1.0000
  H   H3        1.0  0.996296942137121  0.25494447022443006  0.39947740060421205  1.0000
  H   H4        1.0  0.003704861102448672  0.7450567845492413  0.6005260121029038  1.0000
  H   H5        1.0  0.6755351057384613  0.5271046482933741  0.988398787834768  1.0000
  H   H6        1.0  0.3244675063586299  0.4728954046263922  0.011602341448757202  1.0000
  H   H7        1.0  0.7820970396276435  0.9870835204401939  0.24510251905184072  1.0000
  H   H8        1.0  0.21790582244004494  0.012920051285263402  0.7548970595891333  1.0000
  H   H9        1.0  0.6142696392929422  0.6749305269807522  0.6431633441932687  1.0000
  H   H10       1.0  0.3857264059768325  0.32506717129825086  0.3568320336117877  1.0000
  H   H11       1.0  0.8073906302800891  0.26102347335483955  0.7550670263898522  1.0000
  H   H12       1.0  0.19260872009114385  0.7389754318126904  0.24493492138641665  1.0000
  H   H13       1.0  0.8286756266537267  0.46671020017603126  0.5959620621593087  1.0000
  H   H14       1.0  0.1713275520365086  0.5332910619078743  0.4040434830602492  1.0000
  H   H15       1.0  0.05760031449157309  0.4490667575512006  0.6353265293407799  1.0000
  H   H16       1.0  0.9424009593339232  0.5509333387465744  0.3646788003994103  1.0000
  H   H17       1.0  0.6006245424585116  0.5420367636831216  0.3867735625767991  1.0000
  H   H18       1.0  0.39937121717129287  0.4579632864776356  0.6132211261239319  1.0000
  H   H19       1.0  0.6774303437259802  0.6959894061710157  0.19299528940923236  1.0000
  H   H20       1.0  0.32257114908755813  0.304014166692248  0.8070032122141625  1.0000
  C   C1        1.0  0.8333452343479945  0.37739047588743796  0.027787395414350182  1.0000
  C   C2        1.0  0.16665602088796308  0.6226095950662156  0.9722147678412865  1.0000
  C   C3        1.0  0.018415252515715942  0.3626752049032901  0.03315818205220468  1.0000
  C   C4        1.0  0.9815859717376865  0.6373248238101681  0.9668387037291808  1.0000
  C   C5        1.0  0.6522879966145962  0.25633026999978636  0.06521490322485589  1.0000
  C   C6        1.0  0.3477113537566367  0.7436686351677366  0.9347870445514131  1.0000
  C   C7        1.0  0.04286597802895638  0.21740835380521867  0.06619905425348799  1.0000
  C   C8        1.0  0.9571347168103795  0.7825905164323429  0.9337997485609646  1.0000
  C   C9        1.0  0.8759884569259949  0.2753661233547646  0.45671163399394027  1.0000
  C   C10       1.0  0.12401306067359025  0.7246374833006541  0.543291089608857  1.0000
  C   C11       1.0  0.7506829492883751  0.9904536718603649  0.4733956312113249  1.0000
  C   C12       1.0  0.24931638249331908  0.009545207963043397  0.5266031500803905  1.0000
  C   C13       1.0  0.7018112913809771  0.9044186537335859  0.5856450383321741  1.0000
  C   C14       1.0  0.2981836826676484  0.09557671069754999  0.41435206254931956  1.0000
  C   C15       1.0  0.8175391237509044  0.5138748577637741  0.9940525575097041  1.0000
  C   C16       1.0  0.1824634945427022  0.4861252036040398  0.005949627268670108  1.0000
  C   C17       1.0  0.7441952158907268  0.9195997247513645  0.3306968363966546  1.0000
  C   C18       1.0  0.2558062831193196  0.0804038565599399  0.669302720721589  1.0000
  C   C19       1.0  0.647812638929224  0.7408561791789481  0.5564640658859261  1.0000
  C   C20       1.0  0.35218395434415567  0.2591427029200659  0.4435325613706168  1.0000
  C   C21       1.0  0.7808613831122313  0.15284262160002268  0.6792831292356921  1.0000
  C   C22       1.0  0.21913796106248623  0.8471562751194593  0.320717763045728  1.0000
  C   C23       1.0  0.9509386588087662  0.4398101660251682  0.5472119558803853  1.0000
  C   C24       1.0  0.04906315062731183  0.5601910971965367  0.4527925123215865  1.0000
  C   C25       1.0  0.6402125877119855  0.6689373831067016  0.4139195146142639  1.0000
  C   C26       1.0  0.3597845473684842  0.3310626743642898  0.5860773065989091  1.0000
  C   C27       1.0  0.6864064575173712  0.7565411973046635  0.3031068847274553  1.0000
  C   C28       1.0  0.31359175498076997  0.24346120246224243  0.6968892689041224  1.0000
  N   N1        1.0  0.7217463245178874  0.010009100476473496  0.7139572431387363  1.0000
  N   N2        1.0  0.278251650402673  0.9899897973808223  0.28604257212509754  1.0000
  N   N3        1.0  0.8019614127517726  0.14761002069678847  0.537181565725561  1.0000
  N   N4        1.0  0.19803902123364037  0.8523912352146824  0.4628207699639688  1.0000
  O   O1        1.0  0.8907614437991139  0.09503181745110108  0.06391471752061759  1.0000
  O   O2        1.0  0.10923708532156702  0.9049682726742461  0.9360874026895443  1.0000
  O   O3        1.0  0.5447832657361926  0.14093936414886335  0.9662444247139916  1.0000
  O   O4        1.0  0.45521605984898617  0.8590595072265046  0.03375330108287499  1.0000
  O   O5        1.0  0.6009523966047821  0.2739280714608512  0.19014980381101756  1.0000
  O   O6        1.0  0.39904995932520376  0.7260684542051903  0.8098518206201957  1.0000
  O   O7        1.0  0.21777222942436225  0.22755132992079294  0.09721860049256037  1.0000
  O   O8        1.0  0.7822265729432656  0.772446391426719  0.9027820978322223  1.0000
