data_image0
_chemical_formula_structural       Cd2H36Pd2C36N12O4
_chemical_formula_sum              "Cd2 H36 Pd2 C36 N12 O4"
_cell_length_a       8.89861579301518
_cell_length_b       10.439273077263389
_cell_length_c       10.691706747128622
_cell_angle_alpha    93.88796379693795
_cell_angle_beta     90.00005947923565
_cell_angle_gamma    90.00019803318209

_space_group_name_H-M_alt    "P 1"
_space_group_IT_number       1

loop_
  _space_group_symop_operation_xyz
  'x, y, z'

loop_
  _atom_site_type_symbol
  _atom_site_label
  _atom_site_symmetry_multiplicity
  _atom_site_fract_x
  _atom_site_fract_y
  _atom_site_fract_z
  _atom_site_occupancy
  Cd  Cd1       1.0  1.3200379597999996e-06  0.500000560873495  0.5000000920969043  1.0000
  Cd  Cd2       1.0  0.5000011365248654  0.9999998685756213  8.335377541548046e-08  1.0000
  H   H1        1.0  0.06954243003623621  0.5578008942074816  0.2407824120552746  1.0000
  H   H2        1.0  0.5695412082287705  0.9421997456643467  0.2592178381308798  1.0000
  H   H3        1.0  0.9304584352706797  0.442200780358398  0.759218248460968  1.0000
  H   H4        1.0  0.43045853330588113  0.0578009687725682  0.7407827613567121  1.0000
  H   H5        1.0  0.8420523163763678  0.5184913731456504  0.1282161852352885  1.0000
  H   H6        1.0  0.34204979586711914  0.9815100939155744  0.37178529329067084  1.0000
  H   H7        1.0  0.15794854892856597  0.4815093412929555  0.8717844142529145  1.0000
  H   H8        1.0  0.6579499456714971  0.0184925407758811  0.6282154282530144  1.0000
  H   H9        1.0  0.8357022450020396  0.6634237306581809  0.22749577465486226  1.0000
  H   H10       1.0  0.33570126302885234  0.8365777197950307  0.2725066325208231  1.0000
  H   H11       1.0  0.16429749653318745  0.3365769863830507  0.7725057603060748  1.0000
  H   H12       1.0  0.664298478509757  0.16342491489642444  0.727494089022862  1.0000
  H   H13       1.0  0.6128380385958111  0.4988664600419739  0.2305699162920476  1.0000
  H   H14       1.0  0.11283569501617315  0.0011323209592787997  0.269431318135176  1.0000
  H   H15       1.0  0.3871639504709067  0.5011304112849331  0.769429503611228  1.0000
  H   H16       1.0  0.8871651702921428  0.9988703111295507  0.7305684679357682  1.0000
  H   H17       1.0  0.7355805885735621  0.40550342910049153  0.3172329305318442  1.0000
  H   H18       1.0  0.23557963988354658  0.09449571810061738  0.1827665648612111  1.0000
  H   H19       1.0  0.2644214004982787  0.5944953676896034  0.6827684823742075  1.0000
  H   H20       1.0  0.7644223491964511  0.9055078715128531  0.8172323467650457  1.0000
  H   H21       1.0  0.4516492777650001  0.6410352788566697  0.3375836782181878  1.0000
  H   H22       1.0  0.9516464759758636  0.8589636394515097  0.1624177350076508  1.0000
  H   H23       1.0  0.5483504637645211  0.3589635101170501  0.6624149282666281  1.0000
  H   H24       1.0  0.04835326556275281  0.1410389952399456  0.8375829865360345  1.0000
  H   H25       1.0  0.38038577106930666  0.7723690248716508  0.5324646544448938  1.0000
  H   H26       1.0  0.8803839374425239  0.7276307247138405  0.9675360552079226  1.0000
  H   H27       1.0  0.619617341776433  0.22763264188466073  0.4675331996525287  1.0000
  H   H28       1.0  0.11961692786159261  0.2723690348061539  0.0324663541989167  1.0000
  H   H29       1.0  0.5577539339363115  0.7791845529614818  0.7171292643090581  1.0000
  H   H30       1.0  0.057752496153732104  0.7208151778966185  0.7828702241653076  1.0000
  H   H31       1.0  0.4422480551379807  0.2208171085844768  0.2828667188410705  1.0000
  H   H32       1.0  0.9422483691484017  0.2791836214961024  0.2171321242134852  1.0000
  H   H33       1.0  0.7982551216587199  0.6564242098381498  0.6949180049462598  1.0000
  H   H34       1.0  0.29825308438689296  0.8435743284964943  0.8050816199390095  1.0000
  H   H35       1.0  0.2017446198722013  0.34357553665851276  0.3050797270932577  1.0000
  H   H36       1.0  0.7017455333740942  0.15642446828849899  0.19491979296523707  1.0000
  Pd  Pd1       1.0  0.9999974095428006  5.988143100997998e-07  0.5000010677880908  1.0000
  Pd  Pd2       1.0  0.5000001245707326  0.4999993615122166  3.3891431669999486e-06  1.0000
  C   C1        1.0  0.17543114618092662  0.05926684721666929  0.6019685847606411  1.0000
  C   C2        1.0  0.6754312132836163  0.4407370236312005  0.8980370114293308  1.0000
  C   C3        1.0  0.8245652240428714  0.9407338672151438  0.39803201472514615  1.0000
  C   C4        1.0  0.3245629094121868  0.559267552140895  0.1019713159541809  1.0000
  C   C5        1.0  0.0592336618249192  0.8198407201423945  0.5167355558512057  1.0000
  C   C6        1.0  0.5592361505154528  0.6801638184398301  0.9832651748291141  1.0000
  C   C7        1.0  0.9407593370947894  0.18016382958474958  0.48326341679825896  1.0000
  C   C8        1.0  0.44076920987399865  0.31983881365579947  0.01673461124424589  1.0000
  C   C9        1.0  0.8431964549467355  0.557961870313612  0.22646313450937333  1.0000
  C   C10       1.0  0.3431947773665557  0.9420396028152564  0.2735392807199872  1.0000
  C   C11       1.0  0.15680665789678733  0.442037884001124  0.773537403951984  1.0000
  C   C12       1.0  0.6568060879435083  0.05796303708654451  0.726463311770992  1.0000
  C   C13       1.0  0.7090283308760875  0.504379282316961  0.2952667384221854  1.0000
  C   C14       1.0  0.20902566162121874  0.9956188966366001  0.20473254311161065  1.0000
  C   C15       1.0  0.2909747819628876  0.4956185491389107  0.7047327425097407  1.0000
  C   C16       1.0  0.790975203684532  0.004382772720631999  0.7952662464579489  1.0000
  C   C17       1.0  0.6632675102068576  0.5818594248701674  0.41255194369306736  1.0000
  C   C18       1.0  0.16326550656374653  0.9181386208254948  0.0874491596084823  1.0000
  C   C19       1.0  0.3367288600132099  0.4181403216213936  0.5874457883446381  1.0000
  C   C20       1.0  0.8367308636592342  0.0818611386876924  0.9125532497959411  1.0000
  C   C21       1.0  0.5263014014307075  0.6478546837259316  0.4185275299580837  1.0000
  C   C22       1.0  0.026302494602617806  0.852145827910789  0.08147360923140208  1.0000
  C   C23       1.0  0.473698340111284  0.35214986861573283  0.5814723781683497  1.0000
  C   C24       1.0  0.9736983706960276  0.1478529558559742  0.9185231263073276  1.0000
  C   C25       1.0  0.48672804505550726  0.7205413576902443  0.5273895815681726  1.0000
  C   C26       1.0  0.9867275512399307  0.7794558463179225  0.9726157366542906  1.0000
  C   C27       1.0  0.5132716964748384  0.2794583862020943  0.4726072149979998  1.0000
  C   C28       1.0  0.0132755616082463  0.22054392883141818  0.0273922855938196  1.0000
  C   C29       1.0  0.5843815064342053  0.7246168491481342  0.6295719705117762  1.0000
  C   C30       1.0  0.08438264497182502  0.7753829622861731  0.8704275465807  1.0000
  C   C31       1.0  0.41562048264835044  0.2753877031969338  0.3704279376158652  1.0000
  C   C32       1.0  0.9156193440917452  0.22461294370480542  0.12956994134783878  1.0000
  C   C33       1.0  0.7184550229635179  0.6567367006821884  0.6175588822677369  1.0000
  C   C34       1.0  0.21845307975770112  0.8432606438713607  0.8824434022481781  1.0000
  C   C35       1.0  0.28154359479712104  0.34326304581277617  0.3824388497711765  1.0000
  C   C36       1.0  0.7815421666941733  0.1567381607215026  0.1175608170742848  1.0000
  N   N1        1.0  0.2781910545493958  0.0926619212078208  0.6643522496413821  1.0000
  N   N2        1.0  0.7781998997475911  0.4073383966462886  0.8356447936173906  1.0000
  N   N3        1.0  0.7218053156672968  0.9073359076335236  0.3356462958135751  1.0000
  N   N4        1.0  0.22181107948384954  0.5926613394500747  0.1643491965347863  1.0000
  N   N5        1.0  0.09097996108861393  0.7121950323422723  0.5274406555020192  1.0000
  N   N6        1.0  0.5909738821327294  0.7877980859694416  0.972561247901666  1.0000
  N   N7        1.0  0.9090220279741388  0.2877999187300873  0.47255864234516304  1.0000
  N   N8        1.0  0.4090224880664764  0.2121901520164968  0.027440429166205097  1.0000
  N   N9        1.0  0.7577710443855566  0.5872421968894341  0.5119123591603412  1.0000
  N   N10       1.0  0.2577706364362983  0.9127533359608506  0.988086103659974  1.0000
  N   N11       1.0  0.24222757337880554  0.4127585175457753  0.48808824032665393  1.0000
  N   N12       1.0  0.7422279813158356  0.08724256742070217  0.011910448793415197  1.0000
  O   O1        1.0  0.9804615833767587  0.5203021432535664  0.2844473105409122  1.0000
  O   O2        1.0  0.4804599867804884  0.9796987877027163  0.2155561266530199  1.0000
  O   O3        1.0  0.0195415294653642  0.47969665353822677  0.7155541023657506  1.0000
  O   O4        1.0  0.5195408785309752  0.0203048097220346  0.7844455913926608  1.0000
