data_image0
_chemical_formula_structural       Sm2H14C16S2O18
_chemical_formula_sum              "Sm2 H14 C16 S2 O18"
_cell_length_a       6.387288230731959
_cell_length_b       8.688222778186395
_cell_length_c       10.646386734600561
_cell_angle_alpha    91.0627658600489
_cell_angle_beta     99.38793824091243
_cell_angle_gamma    107.40484774328101

_space_group_name_H-M_alt    "P 1"
_space_group_IT_number       1

loop_
  _space_group_symop_operation_xyz
  'x, y, z'

loop_
  _atom_site_type_symbol
  _atom_site_label
  _atom_site_symmetry_multiplicity
  _atom_site_fract_x
  _atom_site_fract_y
  _atom_site_fract_z
  _atom_site_occupancy
  Sm  Sm1       1.0  0.14956234707769764  0.23938413693584687  0.6109116089456703  1.0000
  Sm  Sm2       1.0  0.8504402589437273  0.7606173214800406  0.38908886153494376  1.0000
  H   H1        1.0  0.6203645593148366  0.4141617375236919  0.14341049438019124  1.0000
  H   H2        1.0  0.379633343390047  0.5858360910729272  0.8565903993080181  1.0000
  H   H3        1.0  0.6584793272840557  0.36302933984057256  0.9191443165619898  1.0000
  H   H4        1.0  0.34152010489184187  0.6369721166768086  0.08085678338130008  1.0000
  H   H5        1.0  0.17427160550379736  0.1503980532186588  0.05448524965046889  1.0000
  H   H6        1.0  0.8257299228477493  0.8496046146255977  0.9455141953451827  1.0000
  H   H7        1.0  0.5311174436613796  0.0788883181477757  0.6788109397708766  1.0000
  H   H8        1.0  0.46888408469016696  0.9211143496964808  0.3211885052247751  1.0000
  H   H9        1.0  0.3096068175072445  0.9481715907368199  0.6085345410508082  1.0000
  H   H10       1.0  0.6903936915774834  0.0518286577797937  0.39146570575345396  1.0000
  H   H11       1.0  0.6538589667359247  0.34943020893197024  0.7112620193226105  1.0000
  H   H12       1.0  0.3461420521724674  0.650571248891559  0.2887382962333404  1.0000
  H   H13       1.0  0.5846588013610797  0.5000037224363609  0.6540661117000608  1.0000
  H   H14       1.0  0.4153401202300983  0.49999652620169843  0.3459330408675426  1.0000
  C   C1        1.0  0.018311785850734473  0.22580610997736977  0.19891705661655118  1.0000
  C   C2        1.0  0.9816855490079487  0.7741941373545344  0.8010828803383986  1.0000
  C   C3        1.0  0.8661025203474467  0.3053473588741511  0.22580787855235937  1.0000
  C   C4        1.0  0.1338922077508683  0.694650469251563  0.7741917659745423  1.0000
  C   C5        1.0  0.7375197086163181  0.3523271877676066  0.12274693204718547  1.0000
  C   C6        1.0  0.26247711603816265  0.647671850971186  0.8772519968440662  1.0000
  C   C7        1.0  0.7598817147648161  0.3242060007745593  0.9970669911483935  1.0000
  C   C8        1.0  0.2401166977637387  0.6757930371289758  0.00293397129151169  1.0000
  C   C9        1.0  0.9195828424503533  0.25235526471812614  0.9724779934249311  1.0000
  C   C10       1.0  0.08041556931715367  0.7476437746130171  0.027521090390983678  1.0000
  C   C11       1.0  0.04709806647250758  0.20277241757942482  0.07395006426271068  1.0000
  C   C12       1.0  0.9529019327885421  0.7972266216302728  0.9260501137898557  1.0000
  C   C13       1.0  0.8418515028532242  0.34955584876600915  0.35915731719578037  1.0000
  C   C14       1.0  0.15814798696468557  0.6504419804229685  0.6408437314170923  1.0000
  C   C15       1.0  0.9763170223121166  0.2375848116701391  0.8432329413730882  1.0000
  C   C16       1.0  0.023683996596282886  0.7624166461533902  0.15676737418286274  1.0000
  S   S1        1.0  0.20992005796822608  0.17150622564897594  0.31836580128260283  1.0000
  S   S2        1.0  0.7900820370879486  0.828494025601394  0.6816317825103225  1.0000
  O   O1        1.0  0.08733733524722707  0.039869233493476486  0.3911012226347026  1.0000
  O   O2        1.0  0.912664760950527  0.9601310156154951  0.608899179094216  1.0000
  O   O3        1.0  0.3100437670042524  0.31630462059913356  0.4105597466995049  1.0000
  O   O4        1.0  0.6899593476992648  0.6836980492650752  0.5894379745968121  1.0000
  O   O5        1.0  0.36589904718918825  0.1266827729849922  0.25237403390673296  1.0000
  O   O6        1.0  0.6340988551351713  0.873315056325431  0.7476259204694811  1.0000
  O   O7        1.0  0.8456298743430252  0.24826297078443818  0.4445490505149151  1.0000
  O   O8        1.0  0.1543717124115743  0.7517360683038062  0.5554522217743096  1.0000
  O   O9        1.0  0.8191920214318245  0.48635816523118786  0.3792009480092843  1.0000
  O   O10       1.0  0.18081375919616943  0.5136432936556117  0.6208007716326376  1.0000
  O   O11       1.0  0.15890462033036803  0.2093564897729792  0.8360480058875268  1.0000
  O   O12       1.0  0.8410963985780311  0.7906449680505502  0.1639523096684242  1.0000
  O   O13       1.0  0.8501535272722976  0.25646233077601016  0.7411823104071187  1.0000
  O   O14       1.0  0.14984698143189942  0.7435379184544074  0.2588169970851411  1.0000
  O   O15       1.0  0.38063985126554206  0.06562449096677618  0.6327361504660374  1.0000
  O   O16       1.0  0.6193606578191789  0.9343757575498371  0.3672640963382249  1.0000
  O   O17       1.0  0.5299877537600679  0.39857143332469747  0.6959827560186651  1.0000
  O   O18       1.0  0.47001275532465286  0.6014288151919229  0.30401749078559687  1.0000
