data_image0
_chemical_formula_structural       Cu4H20C20N8Cl4O12
_chemical_formula_sum              "Cu4 H20 C20 N8 Cl4 O12"
_cell_length_a       5.517856075755425
_cell_length_b       10.948714149865632
_cell_length_c       12.836037067142517
_cell_angle_alpha    90.0002607671098
_cell_angle_beta     89.99946477882003
_cell_angle_gamma    104.02635038872006

_space_group_name_H-M_alt    "P 1"
_space_group_IT_number       1

loop_
  _space_group_symop_operation_xyz
  'x, y, z'

loop_
  _atom_site_type_symbol
  _atom_site_label
  _atom_site_symmetry_multiplicity
  _atom_site_fract_x
  _atom_site_fract_y
  _atom_site_fract_z
  _atom_site_occupancy
  Cu  Cu1       1.0  0.9375681508175902  0.6614510886754702  0.7763643272871475  1.0000
  Cu  Cu2       1.0  0.5624347714644741  0.8385509414049185  0.2763622073465086  1.0000
  Cu  Cu3       1.0  0.062433014260150854  0.3385501150550142  0.223637294163332  1.0000
  Cu  Cu4       1.0  0.4375596742905614  0.16144738686204363  0.7236362978857969  1.0000
  H   H1        1.0  0.41572604561177684  0.39320879190557173  0.5991061360845009  1.0000
  H   H2        1.0  0.08426013148349648  0.10678449612522911  0.0991092783321292  1.0000
  H   H3        1.0  0.584261261299524  0.6067857196396106  0.4008908110419966  1.0000
  H   H4        1.0  0.91573599228672  0.8932175971854903  0.9008900059604983  1.0000
  H   H5        1.0  0.1889738046864906  0.25783884050858324  0.8969661911792812  1.0000
  H   H6        1.0  0.31102667592090694  0.2421639826700925  0.396965016199033  1.0000
  H   H7        1.0  0.8110301619602823  0.7421605151482781  0.10303309309196608  1.0000
  H   H8        1.0  0.6889799500083595  0.7578372727348535  0.6030350471269799  1.0000
  H   H9        1.0  0.9479294112543215  0.426256573339984  0.9164242214522388  1.0000
  H   H10       1.0  0.552072214160397  0.07374660924905642  0.4164219177209176  1.0000
  H   H11       1.0  0.052073154596449574  0.5737437063554723  0.08357739999359379  1.0000
  H   H12       1.0  0.4479321719844193  0.9262536876696287  0.5835781456078948  1.0000
  H   H13       1.0  0.25138376992414635  0.8050227958553011  0.9293859856154612  1.0000
  H   H14       1.0  0.248621898467924  0.6949794699602451  0.42938722623078723  1.0000
  H   H15       1.0  0.7486178146899362  0.19497934913106724  0.0706125196093552  1.0000
  H   H16       1.0  0.7513752065619529  0.30502075805598855  0.5706128371129253  1.0000
  H   H17       1.0  0.38492893715055493  0.7005404066281147  0.888270797040775  1.0000
  H   H18       1.0  0.11507123955506417  0.7994597995425822  0.3882698694805313  1.0000
  H   H19       1.0  0.6150748872250063  0.29946269684807447  0.1117300453511803  1.0000
  H   H20       1.0  0.8849236257056816  0.20053946998502428  0.6117286357526908  1.0000
  C   C1        1.0  0.1926781227998049  0.496235970588259  0.6842545673787582  1.0000
  C   C2        1.0  0.30731981938713193  0.0037633281467818994  0.1842556185802877  1.0000
  C   C3        1.0  0.8073230423162272  0.5037652331362779  0.31574315878848574  1.0000
  C   C4        1.0  0.6926805067098201  0.9962359930576598  0.8157428866417575  1.0000
  C   C5        1.0  0.3153315104774991  0.4004742111075715  0.6709961463747335  1.0000
  C   C6        1.0  0.18465857216018833  0.09952309575567853  0.17099962566794596  1.0000
  C   C7        1.0  0.6846619540102169  0.599525982455063  0.3290023588631357  1.0000
  C   C8        1.0  0.8153411921445296  0.9004790320098264  0.8290019957871806  1.0000
  C   C9        1.0  0.18536966825937642  0.32505524737438674  0.8349019993970472  1.0000
  C   C10       1.0  0.3146316127251296  0.17494644518746583  0.33490289144506846  1.0000
  C   C11       1.0  0.8146316390972289  0.6749422085355762  0.16509728487608297  1.0000
  C   C12       1.0  0.6853736124234546  0.8250557342536954  0.6650979509422399  1.0000
  C   C13       1.0  0.056336150615045696  0.4192232206695508  0.8468111044302519  1.0000
  C   C14       1.0  0.4436693758676071  0.08078042519841941  0.3468111062232211  1.0000
  C   C15       1.0  0.9436664152663495  0.5807770590211518  0.153187400788994  1.0000
  C   C16       1.0  0.5563376695597099  0.9192217714683577  0.6531897361603639  1.0000
  C   C17       1.0  0.18974395775135383  0.5955309038889071  0.6038210584413264  1.0000
  C   C18       1.0  0.31026390750587746  0.90447314071902  0.1038181658362589  1.0000
  C   C19       1.0  0.8102559487862919  0.40446747606321753  0.3961829001763277  1.0000
  C   C20       1.0  0.6897299764875555  0.09552799410425193  0.8961803394025337  1.0000
  N   N1        1.0  0.062279735929926985  0.5039982464086137  0.7716182636645428  1.0000
  N   N2        1.0  0.43772315311352367  0.9960025451180954  0.2716206459027788  1.0000
  N   N3        1.0  0.9377250697435713  0.4960029917671562  0.2283794624952549  1.0000
  N   N4        1.0  0.5622757721874337  0.003997700124941199  0.7283801964938591  1.0000
  N   N5        1.0  0.30937116347077165  0.3149173270475956  0.7466914772278557  1.0000
  N   N6        1.0  0.1906251319775052  0.18508122092391233  0.2466929196468186  1.0000
  N   N7        1.0  0.6906287431281227  0.685081052895022  0.2533062489366245  1.0000
  N   N8        1.0  0.8093782728846862  0.814920941292819  0.7533087018008614  1.0000
  Cl  Cl1       1.0  0.6620711269582884  0.593389458961383  0.9068076744928958  1.0000
  Cl  Cl2       1.0  0.8379269915872598  0.906612010621949  0.4068077920310316  1.0000
  Cl  Cl3       1.0  0.3379322779268748  0.40661270325178833  0.09319160978483859  1.0000
  Cl  Cl4       1.0  0.16206927445416847  0.09338633486944303  0.5931899341408949  1.0000
  O   O1        1.0  0.29778848370886385  0.5922201144344826  0.5184144070429824  1.0000
  O   O2        1.0  0.20221028081538614  0.90777981842934  0.0184143101898826  1.0000
  O   O3        1.0  0.7021954598871218  0.4077790517382526  0.4815833191559378  1.0000
  O   O4        1.0  0.7977890639759692  0.0922213680767214  0.9815880903209688  1.0000
  O   O5        1.0  0.07409274344318115  0.679421612488703  0.6305407622584482  1.0000
  O   O6        1.0  0.42592187773983886  0.8205825825441125  0.130537852716138  1.0000
  O   O7        1.0  0.9259197628050374  0.32058063585729  0.36946163822725  1.0000
  O   O8        1.0  0.5740734070189575  0.17941762824532506  0.8694614315746492  1.0000
  O   O9        1.0  0.2743844933348926  0.7546528958524807  0.8666484107066097  1.0000
  O   O10       1.0  0.22561652786657765  0.7453481856098066  0.3666483794450883  1.0000
  O   O11       1.0  0.7256193310483213  0.245350207622522  0.1333516526286971  1.0000
  O   O12       1.0  0.7743809966690093  0.2546529836670715  0.6333516838995479  1.0000
