data_image0
_chemical_formula_structural       Cu6P12H162C210Br6N6
_chemical_formula_sum              "Cu6 P12 H162 C210 Br6 N6"
_cell_length_a       18.49429673996642
_cell_length_b       18.502780025917556
_cell_length_c       21.154974154303268
_cell_angle_alpha    89.98964444046321
_cell_angle_beta     90.00008586142319
_cell_angle_gamma    119.98481653120362

_space_group_name_H-M_alt    "P 1"
_space_group_IT_number       1

loop_
  _space_group_symop_operation_xyz
  'x, y, z'

loop_
  _atom_site_type_symbol
  _atom_site_label
  _atom_site_symmetry_multiplicity
  _atom_site_fract_x
  _atom_site_fract_y
  _atom_site_fract_z
  _atom_site_occupancy
  Cu  Cu1       1.0  0.842345557257353  0.5086001993559748  0.9894435050567836  1.0000
  Cu  Cu2       1.0  0.6662995854925171  0.15785031969307542  0.32295550997091027  1.0000
  Cu  Cu3       1.0  0.4914409492138603  0.3336742612545862  0.6563212567580478  1.0000
  Cu  Cu4       1.0  0.3337433554235289  0.49139746483484004  0.0105579594279988  1.0000
  Cu  Cu5       1.0  0.5084398250423448  0.8421483216964918  0.6770487897639795  1.0000
  Cu  Cu6       1.0  0.15777108977647455  0.6663309611126566  0.34367797075643125  1.0000
  P   P1        1.0  0.7360476822013807  0.3878693375199236  0.0261570619374751  1.0000
  P   P2        1.0  0.6690198068944397  0.14458657329635116  0.2175406893085139  1.0000
  P   P3        1.0  0.6518742869193659  0.26412649259177107  0.35966045599952423  1.0000
  P   P4        1.0  0.47546880040027867  0.3310614421588767  0.5509533252922978  1.0000
  P   P5        1.0  0.6122822544617321  0.3482527102962934  0.6929333230376927  1.0000
  P   P6        1.0  0.8557960793359244  0.524634851320329  0.8840575751148024  1.0000
  P   P7        1.0  0.34818173010967257  0.6121314237249323  0.9738419785440156  1.0000
  P   P8        1.0  0.5244321868682532  0.8554133564660232  0.7824607863852789  1.0000
  P   P9        1.0  0.38774777346789335  0.7358689658800444  0.6403357194316753  1.0000
  P   P10       1.0  0.144408382182064  0.6689398735912562  0.44904682869498197  1.0000
  P   P11       1.0  0.2640270121828721  0.6517468577103501  0.30706794467896975  1.0000
  P   P12       1.0  0.33116348762104764  0.4753646949267394  0.11594389635106947  1.0000
  H   H1        1.0  0.6548044621773316  0.22596715158374556  0.09765653327578151  1.0000
  H   H2        1.0  0.8113428721161213  0.28864500349632066  0.26242049903736836  1.0000
  H   H3        1.0  0.855021955670459  0.477942224715001  0.12386888649245258  1.0000
  H   H4        1.0  0.9525569283207603  0.3687839174903617  0.27080519489010163  1.0000
  H   H5        1.0  0.07290127565638468  0.480176213322821  0.3300145147575718  1.0000
  H   H6        1.0  0.018995398814133962  0.6612655880178411  0.2714361681023689  1.0000
  H   H7        1.0  0.893493823312589  0.5569513343841593  0.21112110823014518  1.0000
  H   H8        1.0  0.6298783991659961  0.3123628385265891  0.9140165641743535  1.0000
  H   H9        1.0  0.6159206761797974  0.20311154750143606  0.839709330381524  1.0000
  H   H10       1.0  0.6941258655806949  0.1279843769086427  0.857829732916052  1.0000
  H   H11       1.0  0.7862503187102802  0.1621735221168948  0.9522573665353207  1.0000
  H   H12       1.0  0.8002730199942859  0.27119407162287246  0.027266299442125295  1.0000
  H   H13       1.0  0.6978113720536712  0.5118723926219318  0.0631219961209268  1.0000
  H   H14       1.0  0.5672798139279396  0.5102135561750177  0.09401832149829659  1.0000
  H   H15       1.0  0.4305596518184061  0.37912893936908193  0.08512429899629131  1.0000
  H   H16       1.0  0.42463845099099723  0.24830620230691383  0.04902586481520639  1.0000
  H   H17       1.0  0.5547998387595714  0.24821661497701822  0.021182859989508498  1.0000
  H   H18       1.0  0.7518117201608804  0.14852290191547735  0.09493333346171082  1.0000
  H   H19       1.0  0.8149023911824643  0.06614554577693356  0.055734445971168584  1.0000
  H   H20       1.0  0.8205567010257584  0.9603870567937283  0.1253911389520113  1.0000
  H   H21       1.0  0.7662405812564829  0.9405861689332016  0.23565278877474324  1.0000
  H   H22       1.0  0.7070245051750419  0.026410362830248002  0.27580821698324337  1.0000
  H   H23       1.0  0.5274191340803966  0.16918821300585318  0.2223011261852079  1.0000
  H   H24       1.0  0.3937363439192509  0.10933648205853075  0.1646247696799321  1.0000
  H   H25       1.0  0.35901470441463346  0.9998970935441849  0.0821898362545426  1.0000
  H   H26       1.0  0.46096295996084546  0.9527036825094161  0.05794117917262299  1.0000
  H   H27       1.0  0.5957787469084437  0.014637323007470126  0.11406791606053449  1.0000
  H   H28       1.0  0.5711381428816225  0.3452882780465743  0.43114356116209507  1.0000
  H   H29       1.0  0.4772480763261484  0.18876124330698477  0.5959019907623712  1.0000
  H   H30       1.0  0.6230525415557722  0.14514313569831225  0.4573995717834548  1.0000
  H   H31       1.0  0.4161410257983391  0.047572693171225956  0.6041187401838571  1.0000
  H   H32       1.0  0.4071009011144114  0.927120623059132  0.6632584906211746  1.0000
  H   H33       1.0  0.6422504792884424  0.9810031549219076  0.6049442242507013  1.0000
  H   H34       1.0  0.6635602549931933  0.10663506324634411  0.5447508924293983  1.0000
  H   H35       1.0  0.6823440490937429  0.3700505675996624  0.2474033289638555  1.0000
  H   H36       1.0  0.5869532538448965  0.38394091914825884  0.17309671267903326  1.0000
  H   H37       1.0  0.43364888646087957  0.3058926791601523  0.1912970807946053  1.0000
  H   H38       1.0  0.3758333251816524  0.2140793868273506  0.2858896168890865  1.0000
  H   H39       1.0  0.4709360252767851  0.20011693944933037  0.3609090734008901  1.0000
  H   H40       1.0  0.8143250407820373  0.3024224771365737  0.3964493572014547  1.0000
  H   H41       1.0  0.9431650199343338  0.4330303873715666  0.4272054101889681  1.0000
  H   H42       1.0  0.9485637379960254  0.5695974280375681  0.41812063564086804  1.0000
  H   H43       1.0  0.8235079144320282  0.5753796721751814  0.38212761586309085  1.0000
  H   H44       1.0  0.6932317702181693  0.44517522204589016  0.3546175751675377  1.0000
  H   H45       1.0  0.39672830586845004  0.24845313584050643  0.42832812025662287  1.0000
  H   H46       1.0  0.25120102376736503  0.18529344496455033  0.3891427041568889  1.0000
  H   H47       1.0  0.13972926590218293  0.17944014091291655  0.4588496313870535  1.0000
  H   H48       1.0  0.17411769352154494  0.23353647670931826  0.5691381177481175  1.0000
  H   H49       1.0  0.31920413568058587  0.29281687553826435  0.609282479829524  1.0000
  H   H50       1.0  0.6415636549747887  0.4727434374066705  0.5558063452540196  1.0000
  H   H51       1.0  0.7153837674236954  0.6062225897841744  0.49789788092451903  1.0000
  H   H52       1.0  0.6406318791394483  0.6407192790805853  0.41526253057011786  1.0000
  H   H53       1.0  0.49151835401112726  0.538811737069324  0.39107144672355787  1.0000
  H   H54       1.0  0.4187415517819701  0.404139311075312  0.4473222398529727  1.0000
  H   H55       1.0  0.7742760399192646  0.4290244711840502  0.764227064683851  1.0000
  H   H56       1.0  0.7117208519339185  0.5229742531682007  0.9290106331765814  1.0000
  H   H57       1.0  0.5221487791858266  0.3770051855611457  0.7907297415747933  1.0000
  H   H58       1.0  0.6313446956589817  0.5839322228616982  0.937353210450908  1.0000
  H   H59       1.0  0.5198770364914084  0.5927490989987094  0.9966666237105881  1.0000
  H   H60       1.0  0.3388250745932524  0.35772202466387176  0.9382761142835391  1.0000
  H   H61       1.0  0.44323416751293376  0.3366351674525491  0.8779473563079846  1.0000
  H   H62       1.0  0.6878691546651723  0.31773824193174977  0.5807616915394291  1.0000
  H   H63       1.0  0.7970122859330431  0.4130572790776059  0.5063778710031386  1.0000
  H   H64       1.0  0.872084614360638  0.566301311454197  0.5244424133656764  1.0000
  H   H65       1.0  0.8379307912866523  0.624161894859441  0.6189328542371796  1.0000
  H   H66       1.0  0.7289252479421646  0.5291601160801349  0.6939897775457949  1.0000
  H   H67       1.0  0.4882196225412301  0.18615203891186385  0.7299865094969603  1.0000
  H   H68       1.0  0.48980626957018814  0.057272647955990436  0.760798904588405  1.0000
  H   H69       1.0  0.6208609348829058  0.051504812300841314  0.7516810233060979  1.0000
  H   H70       1.0  0.7517698110399776  0.17632116833301828  0.7155256119170943  1.0000
  H   H71       1.0  0.7519451673024236  0.3066116497722718  0.6878523209420281  1.0000
  H   H72       1.0  0.8519846917193661  0.6032796175963143  0.7613851725369187  1.0000
  H   H73       1.0  0.933971139920544  0.7487405680627931  0.7222108407744229  1.0000
  H   H74       1.0  0.039368169251396475  0.8602960307581499  0.7919089241584772  1.0000
  H   H75       1.0  0.05924233532512347  0.8259365674127113  0.9022076981653627  1.0000
  H   H76       1.0  0.973807660854966  0.6808681950834341  0.9423412923217143  1.0000
  H   H77       1.0  0.8312398828636847  0.3585765710871203  0.8890279046672658  1.0000
  H   H78       1.0  0.8907259195672594  0.2845085254635791  0.8311977517056304  1.0000
  H   H79       1.0  0.9999423084443251  0.35896441360301173  0.7485016954724698  1.0000
  H   H80       1.0  0.04732662252249042  0.50805600280777  0.724188151362597  1.0000
  H   H81       1.0  0.9856497591604382  0.5811161296302603  0.7804057062280308  1.0000
  H   H82       1.0  0.4288370701259297  0.7740288784623391  0.9023453434063241  1.0000
  H   H83       1.0  0.5227020132912585  0.7113599305289002  0.7375805957702398  1.0000
  H   H84       1.0  0.37708321230733344  0.5220564383019595  0.8761274149302738  1.0000
  H   H85       1.0  0.5837794186493781  0.6312264551784639  0.729192250549019  1.0000
  H   H86       1.0  0.5927377589820323  0.5198373393672995  0.6699795231500687  1.0000
  H   H87       1.0  0.3577444924354296  0.3387397500618692  0.7285590990789929  1.0000
  H   H88       1.0  0.33654884204494095  0.4430508156698422  0.7888742461602118  1.0000
  H   H89       1.0  0.31752037562640834  0.6876415478161492  0.08598191357500438  1.0000
  H   H90       1.0  0.412813350332236  0.7968939902763668  0.1602877825163418  1.0000
  H   H91       1.0  0.5661463389735389  0.8720191648070571  0.14217036821182208  1.0000
  H   H92       1.0  0.6240812419204572  0.8378287763142609  0.047742360408754785  1.0000
  H   H93       1.0  0.5290833869041051  0.7288081690061503  0.972733374397009  1.0000
  H   H94       1.0  0.18594329534163728  0.48812839110124895  0.9368811671912167  1.0000
  H   H95       1.0  0.05707040085816562  0.4897885365925064  0.9059841988716926  1.0000
  H   H96       1.0  0.051434081201968206  0.6208733551387411  0.9148781279898232  1.0000
  H   H97       1.0  0.17633614252383722  0.7516967442596542  0.9509738039434409  1.0000
  H   H98       1.0  0.30658907907707084  0.7517884330716741  0.9788160339980011  1.0000
  H   H99       1.0  0.6032879815537199  0.8514823493889171  0.905067775130142  1.0000
  H   H100      1.0  0.7487551460602688  0.933858001097761  0.9442672722450922  1.0000
  H   H101      1.0  0.8601702352078321  0.03961558282638601  0.8746106561187189  1.0000
  H   H102      1.0  0.8256556877744359  0.059416533911751064  0.7643480026251125  1.0000
  H   H103      1.0  0.6806155357047527  0.9735932217796802  0.7241929130826462  1.0000
  H   H104      1.0  0.3582309356994742  0.8308118075300898  0.7776977841117441  1.0000
  H   H105      1.0  0.2843970986648048  0.8906600337396218  0.8353754228953248  1.0000
  H   H106      1.0  0.35911442336419697  9.767859324231112e-05  0.9178118007968122  1.0000
  H   H107      1.0  0.5082568530781728  0.04729179668067475  0.9420615679108976  1.0000
  H   H108      1.0  0.5811397720137563  0.9853601796611359  0.8859340216831908  1.0000
  H   H109      1.0  0.2258509187918564  0.6547097678773854  0.5688534003321238  1.0000
  H   H110      1.0  0.2884873411504571  0.8112364961862683  0.40409495025759407  1.0000
  H   H111      1.0  0.4779117141660335  0.8548522648348611  0.5425966438850763  1.0000
  H   H112      1.0  0.36857160677563144  0.9524212466992593  0.39587632277468293  1.0000
  H   H113      1.0  0.4799838664418132  0.07287433436148666  0.33673805750641606  1.0000
  H   H114      1.0  0.6612511438510894  0.01899509692546537  0.39505826915848974  1.0000
  H   H115      1.0  0.5569291393556595  0.8933595812542734  0.4552482379047262  1.0000
  H   H116      1.0  0.3123051449325161  0.6299493078738865  0.7525923439197796  1.0000
  H   H117      1.0  0.20302550302054095  0.6160577037300713  0.8269035530862113  1.0000
  H   H118      1.0  0.12776681081594882  0.69410238895194  0.808703980747012  1.0000
  H   H119      1.0  0.161756592137415  0.7859146635886276  0.714112374510364  1.0000
  H   H120      1.0  0.27082051638443966  0.79987715677958  0.6390897429880624  1.0000
  H   H121      1.0  0.5119006409746163  0.697573313015376  0.6035455880732313  1.0000
  H   H122      1.0  0.5101318318840667  0.5669647239947011  0.5727891457799642  1.0000
  H   H123      1.0  0.37896446932280275  0.4303978586075489  0.5818795102506583  1.0000
  H   H124      1.0  0.2481281391997499  0.42461597717115757  0.6178723621667287  1.0000
  H   H125      1.0  0.2480535928484713  0.5548206982726925  0.6453804265389564  1.0000
  H   H126      1.0  0.14827607185843322  0.751549273649218  0.5716724572391813  1.0000
  H   H127      1.0  0.06590660775220396  0.8147074089851712  0.6108563058840275  1.0000
  H   H128      1.0  0.9602907483240771  0.8205619086409899  0.5411480012431013  1.0000
  H   H129      1.0  0.9405862883725292  0.7664672080966641  0.43085952438367764  1.0000
  H   H130      1.0  0.02639314326439991  0.7071874284525421  0.39071607592237717  1.0000
  H   H131      1.0  0.1688198083928256  0.5272578431277141  0.4441948790883218  1.0000
  H   H132      1.0  0.1091595878934512  0.3937788358980825  0.5021028799913906  1.0000
  H   H133      1.0  0.9999143620736249  0.35928303088874014  0.5847397108752473  1.0000
  H   H134      1.0  0.9527097020245848  0.46119207244485266  0.6089316112474564  1.0000
  H   H135      1.0  0.01460306177491316  0.5958636045034709  0.5526801551763755  1.0000
  H   H136      1.0  0.3452519429592229  0.5709750784140937  0.23577530795925838  1.0000
  H   H137      1.0  0.18874945312127522  0.4770263122988896  0.07099065030787699  1.0000
  H   H138      1.0  0.1451462718174099  0.6229961102844399  0.20927044351421387  1.0000
  H   H139      1.0  0.04741652812226247  0.41607021462275634  0.0626488728765437  1.0000
  H   H140      1.0  0.92713195221652  0.4072497728361741  0.0033350183682472  1.0000
  H   H141      1.0  0.9811014897096157  0.6422768861066716  0.0617221355276669  1.0000
  H   H142      1.0  0.10660024177119706  0.6633678878545838  0.12204896998606779  1.0000
  H   H143      1.0  0.37012898079702694  0.6822597718629597  0.41923969546505185  1.0000
  H   H144      1.0  0.3839553397818137  0.5869410125267153  0.49362217852569035  1.0000
  H   H145      1.0  0.30578423634661794  0.4336975031796727  0.4755571613873499  1.0000
  H   H146      1.0  0.2137674582632201  0.37583784752740007  0.3810666376905231  1.0000
  H   H147      1.0  0.19976111163025212  0.47084065318972534  0.30601152442874735  1.0000
  H   H148      1.0  0.302066286440791  0.813846553405064  0.27001422917421536  1.0000
  H   H149      1.0  0.4325295281973924  0.942725377584438  0.23920144803358306  1.0000
  H   H150      1.0  0.5693530011223944  0.9484943405912748  0.24831997762323968  1.0000
  H   H151      1.0  0.575445791162025  0.8236774357395124  0.28447547891145314  1.0000
  H   H152      1.0  0.4453309378495474  0.6933869686984693  0.3121501027676317  1.0000
  H   H153      1.0  0.24870663180603717  0.39671943848846797  0.23861671508863938  1.0000
  H   H154      1.0  0.18522803448906436  0.2512579598136924  0.2777905863296226  1.0000
  H   H155      1.0  0.1790686111931308  0.13970204035436504  0.20809285759904841  1.0000
  H   H156      1.0  0.2333010752328306  0.1740609429813986  0.0977936595390076  1.0000
  H   H157      1.0  0.2929357340442067  0.31912885585489204  0.05766023166943768  1.0000
  H   H158      1.0  0.47266276056336654  0.6414218651543068  0.11097364358624161  1.0000
  H   H159      1.0  0.6062170099351363  0.7154896240954046  0.1688039231806471  1.0000
  H   H160      1.0  0.6409794288750347  0.6410344101261103  0.2514996010904511  1.0000
  H   H161      1.0  0.5392714073888315  0.4919417847654942  0.2758129264806186  1.0000
  H   H162      1.0  0.4045350248099097  0.4188829580918281  0.21959448045802074  1.0000
  C   C1        1.0  0.7546968056288961  0.3546767932940043  0.1035424432853063  1.0000
  C   C2        1.0  0.7074522756695173  0.2720769285757285  0.12535468436138328  1.0000
  C   C3        1.0  0.7280277429577707  0.24869411872580116  0.18244099242844666  1.0000
  C   C4        1.0  0.7962373185471208  0.3078449900738037  0.21775760808984046  1.0000
  C   C5        1.0  0.8418684771332394  0.39084416319831666  0.19765178887850252  1.0000
  C   C6        1.0  0.8196662059203136  0.4137940621536418  0.14065296382839418  1.0000
  C   C7        1.0  0.9128147076999794  0.45353776969421467  0.23480362858322928  1.0000
  C   C8        1.0  0.9644135658433869  0.43271601899905227  0.2696382501693151  1.0000
  C   C9        1.0  0.031766261236782584  0.4946056623903133  0.30259284618903587  1.0000
  C   C10       1.0  0.0006910283838621605  0.5952220842888637  0.27024307396991537  1.0000
  C   C11       1.0  0.9321128393363338  0.5371100724457493  0.23620852717739635  1.0000
  C   C12       1.0  0.7149929517003956  0.2986905209299381  0.9766833407449977  1.0000
  C   C13       1.0  0.6635902590484831  0.27905599540395803  0.92312582297788  1.0000
  C   C14       1.0  0.6560226326196174  0.2177299849435672  0.8809736743109937  1.0000
  C   C15       1.0  0.6998457824154799  0.17537753584109364  0.8912375201245694  1.0000
  C   C16       1.0  0.7515644644210224  0.19475377396736343  0.9440633157014131  1.0000
  C   C17       1.0  0.7593096452036576  0.25610872309617616  0.9863643633502831  1.0000
  C   C18       1.0  0.6377684960855559  0.4538590990093496  0.060651471916052885  1.0000
  C   C19       1.0  0.5643796355631707  0.453074315715874  0.07727830835997912  1.0000
  C   C20       1.0  0.4877715005123734  0.37940414850294985  0.07255800297340899  1.0000
  C   C21       1.0  0.4845882957527152  0.306029834936787  0.052165757972893786  1.0000
  C   C22       1.0  0.5578294667950274  0.3059971899680465  0.03634210682653819  1.0000
  C   C23       1.0  0.6349099239895681  0.38037116737488236  0.04009048146592419  1.0000
  C   C24       1.0  0.7224608816621156  0.0907014877952152  0.18744236826572086  1.0000
  C   C25       1.0  0.754737964160718  0.10284930812024143  0.1258436231027247  1.0000
  C   C26       1.0  0.7898430572536342  0.05616098578337874  0.103647827362721  1.0000
  C   C27       1.0  0.7930331381348024  0.9968169431473088  0.14271986420177288  1.0000
  C   C28       1.0  0.7622808072989001  0.9854038345967312  0.20440742030955764  1.0000
  C   C29       1.0  0.7278354957199298  0.03261419980208997  0.2268712588111867  1.0000
  C   C30       1.0  0.5715372863376587  0.09663759727296663  0.17204873013244537  1.0000
  C   C31       1.0  0.5132668730233476  0.12210628164736193  0.18602022568245496  1.0000
  C   C32       1.0  0.4377521279202057  0.08819807590094803  0.15341633897265436  1.0000
  C   C33       1.0  0.4185581475036528  0.02720791305138458  0.10713415816992723  1.0000
  C   C34       1.0  0.47558094234685905  0.0008096703257720488  0.09346195564902618  1.0000
  C   C35       1.0  0.551766763835076  0.03554607525101972  0.12551082513986236  1.0000
  C   C36       1.0  0.6001177275216988  0.2454885387297381  0.4370559861671737  1.0000
  C   C37       1.0  0.5647055178917455  0.2926868967579709  0.45885608977971504  1.0000
  C   C38       1.0  0.520681708074335  0.2720893461490804  0.515902428460855  1.0000
  C   C39       1.0  0.5116272080622154  0.20391370553531377  0.5512654506499005  1.0000
  C   C40       1.0  0.5490480498120576  0.15830817873670366  0.5311598594343749  1.0000
  C   C41       1.0  0.594262192178256  0.1805244944369447  0.47417626302224386  1.0000
  C   C42       1.0  0.5407572511571885  0.08733689962943463  0.5682858090030152  1.0000
  C   C43       1.0  0.4682356812255933  0.03568965804488773  0.6029998819421323  1.0000
  C   C44       1.0  0.4627250213606756  0.9682833606975764  0.6359222233940683  1.0000
  C   C45       1.0  0.5944982903534138  0.9993340453275794  0.6037283731251719  1.0000
  C   C46       1.0  0.6050439732783772  0.06800145089292191  0.5697655180905271  1.0000
  C   C47       1.0  0.5836408986473599  0.2851653796182916  0.3102074948626736  1.0000
  C   C48       1.0  0.6153397906068179  0.33644520176741827  0.2565971589647659  1.0000
  C   C49       1.0  0.5615191724966168  0.3439506157393383  0.2144234702199839  1.0000
  C   C50       1.0  0.4753600580531625  0.30023094739468803  0.22473508170460824  1.0000
  C   C51       1.0  0.4430799354911414  0.2486903172236624  0.27764442065740264  1.0000
  C   C52       1.0  0.49675459521152027  0.24101089154778788  0.31996986041803405  1.0000
  C   C53       1.0  0.8162656249615736  0.36242051736424236  0.39394875153968206  1.0000
  C   C54       1.0  0.8888325438531836  0.435819210140025  0.41048190042921107  1.0000
  C   C55       1.0  0.8916545719156802  0.5123632332468945  0.40566280262488874  1.0000
  C   C56       1.0  0.8213790027328044  0.5154810552193823  0.3852966142723062  1.0000
  C   C57       1.0  0.7480965325418792  0.4422276892204949  0.36967009600074613  1.0000
  C   C58       1.0  0.7455295913944155  0.3652215816349767  0.37346488509462716  1.0000
  C   C59       1.0  0.3681474974618411  0.277615433937001  0.5208685724813192  1.0000
  C   C60       1.0  0.34808332227721184  0.2454191843165888  0.4592510792950081  1.0000
  C   C61       1.0  0.26627101698781525  0.21028844926501483  0.43707272917149004  1.0000
  C   C62       1.0  0.20367250744438078  0.20693953245008603  0.4762018118604344  1.0000
  C   C63       1.0  0.22296662126120015  0.23761570547281244  0.5378960023670983  1.0000
  C   C64       1.0  0.304644845654316  0.2721024403470978  0.5603358075246588  1.0000
  C   C65       1.0  0.5249690987053413  0.4284755942560636  0.5053904179717464  1.0000
  C   C66       1.0  0.6086605822080388  0.4867844775609742  0.5194019553512773  1.0000
  C   C67       1.0  0.6502513357644087  0.5621813806035334  0.48667322533540874  1.0000
  C   C68       1.0  0.6084362053063544  0.5812626003251183  0.4402967812522647  1.0000
  C   C69       1.0  0.5250321147251568  0.5242633773678522  0.4266533755062839  1.0000
  C   C70       1.0  0.4836489478827416  0.44815464667082944  0.45876528569448277  1.0000
  C   C71       1.0  0.6454690924300691  0.40006219376422086  0.7702921450400951  1.0000
  C   C72       1.0  0.7281454117219895  0.4355236776157058  0.7919656237904603  1.0000
  C   C73       1.0  0.7516082050002949  0.4795733777529706  0.8489813735123874  1.0000
  C   C74       1.0  0.692459132334008  0.4886136293125604  0.8843855327852309  1.0000
  C   C75       1.0  0.6093813334062902  0.45114032843103063  0.8643907777579043  1.0000
  C   C76       1.0  0.5863557261670421  0.40587051912414307  0.8074583202788547  1.0000
  C   C77       1.0  0.5466471833299592  0.45936901448461503  0.9015373786219243  1.0000
  C   C78       1.0  0.5674177697461928  0.5318141261618763  0.9362610898973569  1.0000
  C   C79       1.0  0.5054891919187553  0.537203306222807  0.9692835900657852  1.0000
  C   C80       1.0  0.4048834100503099  0.4054822314805833  0.9370301233845596  1.0000
  C   C81       1.0  0.46306371310242167  0.395080187346558  0.9030030521888931  1.0000
  C   C82       1.0  0.7014692312452695  0.41644020406144494  0.643432778987048  1.0000
  C   C83       1.0  0.7211430641753226  0.38472056547571754  0.5898857166356634  1.0000
  C   C84       1.0  0.7824211834476245  0.43851288984389225  0.5476763028475274  1.0000
  C   C85       1.0  0.8247465127801518  0.5246390203722203  0.5579049443087101  1.0000
  C   C86       1.0  0.8053769974239343  0.5569288261107914  0.6107514173485526  1.0000
  C   C87       1.0  0.744035088935938  0.5033136503839303  0.6530903374665512  1.0000
  C   C88       1.0  0.5462256306817466  0.1840640710126707  0.7274322305154967  1.0000
  C   C89       1.0  0.5469701064414353  0.1114622640420465  0.7440061742669428  1.0000
  C   C90       1.0  0.6206247183719427  0.10845046244610768  0.7391664640303972  1.0000
  C   C91       1.0  0.6940444981800553  0.1785823451380324  0.7187180251919328  1.0000
  C   C92       1.0  0.6941181690220901  0.2518640501801031  0.7029811836276137  1.0000
  C   C93       1.0  0.6197459112425464  0.25461850402759745  0.706816894529929  1.0000
  C   C94       1.0  0.9097017115141098  0.6319158501832831  0.8539417947930941  1.0000
  C   C95       1.0  0.89750402624513  0.6519361653266104  0.7923230177267229  1.0000
  C   C96       1.0  0.9439592928158618  0.7337364222496703  0.7701492222213557  1.0000
  C   C97       1.0  0.00309820546588197  0.7963642555537406  0.8092588081762953  1.0000
  C   C98       1.0  0.014551667510445964  0.7771004294213102  0.8709616659581413  1.0000
  C   C99       1.0  0.9675904368483258  0.6954284546030179  0.8934012927318946  1.0000
  C   C100      1.0  0.9037336249551587  0.47506833711362634  0.8385899469114688  1.0000
  C   C101      1.0  0.8782199409273302  0.3913725264460979  0.8526315395094103  1.0000
  C   C102      1.0  0.9119360470314464  0.3496416224985384  0.8199560190393596  1.0000
  C   C103      1.0  0.9727951856702148  0.39128484686761333  0.7735249172055844  1.0000
  C   C104      1.0  0.9993222060190164  0.4746866603539318  0.7598293664134134  1.0000
  C   C105      1.0  0.9647142077924045  0.5162294195721772  0.7919036241305831  1.0000
  C   C106      1.0  0.40002306425857637  0.6453222504340772  0.8964561708626703  1.0000
  C   C107      1.0  0.43537709923960205  0.7279224607307454  0.8746453400668274  1.0000
  C   C108      1.0  0.4793366986052943  0.7513057566718332  0.8175600196923863  1.0000
  C   C109      1.0  0.48839741331803294  0.6921581230345238  0.7822429817527166  1.0000
  C   C110      1.0  0.45102986314760335  0.6091573476058231  0.8023469157022517  1.0000
  C   C111      1.0  0.40587602903057274  0.5862055113905812  0.8593456967282831  1.0000
  C   C112      1.0  0.45928487847534444  0.5464674287159001  0.7651937095460325  1.0000
  C   C113      1.0  0.5317070733441939  0.5672933511185011  0.7303577508663608  1.0000
  C   C114      1.0  0.5371725510956294  0.505405896000987  0.6974039646654049  1.0000
  C   C115      1.0  0.40547931652867675  0.40478348614605864  0.7297541033040317  1.0000
  C   C116      1.0  0.3950126550651872  0.46289644536976476  0.763789254052355  1.0000
  C   C117      1.0  0.41630571394478016  0.7013106195745636  0.0233166759821728  1.0000
  C   C118      1.0  0.3845381457472143  0.7209470848416404  0.07687319364268319  1.0000
  C   C119      1.0  0.4382978187477633  0.7822747349815986  0.11902489977413208  1.0000
  C   C120      1.0  0.524472792693487  0.8246258584694318  0.10876303013596808  1.0000
  C   C121      1.0  0.556814995258989  0.80524922244674  0.05593681702184479  1.0000
  C   C122      1.0  0.5032051830809935  0.7438928867231953  0.013636212103165199  1.0000
  C   C123      1.0  0.18391312655634104  0.5461426371712009  0.9393492870983947  1.0000
  C   C124      1.0  0.11130929795318414  0.5469270340588538  0.9227233003363012  1.0000
  C   C125      1.0  0.1083718965177098  0.6205982361673109  0.9274435534692527  1.0000
  C   C126      1.0  0.17856275968853194  0.6939725577818124  0.9478344243115159  1.0000
  C   C127      1.0  0.2518358790497358  0.6940052297407888  0.9636576988486069  1.0000
  C   C128      1.0  0.2545419524426222  0.6196314587786205  0.9599103219269619  1.0000
  C   C129      1.0  0.6317589105487402  0.909302321981109  0.8125577944587689  1.0000
  C   C130      1.0  0.6518882763737253  0.8971544652333565  0.8741575194008108  1.0000
  C   C131      1.0  0.7336791996435253  0.9438433165794751  0.8963543371722337  1.0000
  C   C132      1.0  0.7962152227403934  0.0031863651205697075  0.8572823435197635  1.0000
  C   C133      1.0  0.7768777065322539  0.014600378388884332  0.7955947544878723  1.0000
  C   C134      1.0  0.6952215110957526  0.967389813842154  0.7731303671519497  1.0000
  C   C135      1.0  0.47489745714570825  0.9033613273662625  0.8279526492159374  1.0000
  C   C136      1.0  0.39115929532744087  0.8778942340860143  0.8139786968901389  1.0000
  C   C137      1.0  0.3495518636088803  0.9117998942574772  0.8465839250898454  1.0000
  C   C138      1.0  0.3913469908363112  0.9727883051175967  0.8928665935565617  1.0000
  C   C139      1.0  0.4747664899632796  0.9991864306441872  0.9065393609012559  1.0000
  C   C140      1.0  0.516218705044409  0.9644514653175877  0.8744910411545065  1.0000
  C   C141      1.0  0.35463129459287746  0.7545105705575494  0.5629406060116436  1.0000
  C   C142      1.0  0.2720197378022886  0.707311518556665  0.5411404250451922  1.0000
  C   C143      1.0  0.24859400688191605  0.7279129670254109  0.4840959326259763  1.0000
  C   C144      1.0  0.3077166373566912  0.7960834696398467  0.44873199827710397  1.0000
  C   C145      1.0  0.39074270317679816  0.8416878373836172  0.4688371958801341  1.0000
  C   C146      1.0  0.4137405289516991  0.8194708345130624  0.5258198916808822  1.0000
  C   C147      1.0  0.45342373116017864  0.9126542921607029  0.4317084461533652  1.0000
  C   C148      1.0  0.43254881437393783  0.9643016852964551  0.39699573005214017  1.0000
  C   C149      1.0  0.4944429617374341  0.03171158906798149  0.36407531610402794  1.0000
  C   C150      1.0  0.5951667306873745  0.0006625041754944867  0.3962702641394741  1.0000
  C   C151      1.0  0.5370465043131462  0.9319939082814346  0.4302326153631809  1.0000
  C   C152      1.0  0.298478650859849  0.7148311031239559  0.689790467994058  1.0000
  C   C153      1.0  0.2789067317342741  0.6635545275128152  0.7434027023975246  1.0000
  C   C154      1.0  0.21757884064489036  0.6560454012467718  0.7855758432105943  1.0000
  C   C155      1.0  0.17514026082056944  0.6997663961112509  0.7752669834896935  1.0000
  C   C156      1.0  0.19439369449112592  0.7513037592317818  0.7223557454428544  1.0000
  C   C157      1.0  0.2557490647901091  0.7589864212599623  0.6800308535738322  1.0000
  C   C158      1.0  0.45384325558673316  0.6375742496378866  0.606045211606137  1.0000
  C   C159      1.0  0.45301185806966526  0.5641745631338326  0.589515891461147  1.0000
  C   C160      1.0  0.3792885749362541  0.4876310372621406  0.594335888128029  1.0000
  C   C161      1.0  0.3058966684885577  0.48451481685774694  0.6147029275304375  1.0000
  C   C162      1.0  0.30586508423903064  0.5577677645537876  0.6303270342399044  1.0000
  C   C163      1.0  0.38030606092419816  0.6347727860249393  0.6265327650742165  1.0000
  C   C164      1.0  0.09053427411958377  0.7223889383619098  0.47913053013644447  1.0000
  C   C165      1.0  0.10266461007900315  0.7545825309589348  0.5407484910311382  1.0000
  C   C166      1.0  0.05598388736519407  0.7897137431929268  0.5629277022458438  1.0000
  C   C167      1.0  0.9967375064478431  0.7930655989264681  0.5237963590715111  1.0000
  C   C168      1.0  0.985354494356173  0.762389949761101  0.46210217371215373  1.0000
  C   C169      1.0  0.032545506416504076  0.7279018766563966  0.4396632154143987  1.0000
  C   C170      1.0  0.09649292253372009  0.5715240745950468  0.49461020988716337  1.0000
  C   C171      1.0  0.1218767264805365  0.5132156619932644  0.480599689414248  1.0000
  C   C172      1.0  0.08807012761478458  0.4378197040952686  0.5133279517587965  1.0000
  C   C173      1.0  0.027175678535378715  0.41873967057697575  0.5597048010857505  1.0000
  C   C174      1.0  0.0007701367290878096  0.4757395676213037  0.5733486074592448  1.0000
  C   C175      1.0  0.035494112161458695  0.551845980474326  0.5412371657886367  1.0000
  C   C176      1.0  0.24540861745519732  0.5999377424505637  0.22970865950047428  1.0000
  C   C177      1.0  0.29262288521141505  0.5644754097225545  0.20803479330697172  1.0000
  C   C178      1.0  0.272036406430921  0.5204281173007673  0.1510195179834071  1.0000
  C   C179      1.0  0.20384830755212846  0.5113885183424571  0.11561480243977229  1.0000
  C   C180      1.0  0.1582444056683838  0.5488628031690723  0.13560805488415886  1.0000
  C   C181      1.0  0.1804883193322127  0.5941313628542987  0.192542875459587  1.0000
  C   C182      1.0  0.08728133352574466  0.540635023137341  0.0984623116641572  1.0000
  C   C183      1.0  0.035608047950489656  0.46818903821758084  0.0637409436997771  1.0000
  C   C184      1.0  0.968288986046808  0.46279678309710465  0.030717596772021207  1.0000
  C   C185      1.0  0.9994026390819428  0.5945183124112179  0.06296770892475928  1.0000
  C   C186      1.0  0.06798558902247719  0.6049227292263809  0.0969956253058015  1.0000
  C   C187      1.0  0.2850234343606815  0.5835590919272067  0.35656950642167823  1.0000
  C   C188      1.0  0.3364218249184816  0.615278128492669  0.41011519732885654  1.0000
  C   C189      1.0  0.3439056936103242  0.5614844557478949  0.45232560172686226  1.0000
  C   C190      1.0  0.30010678613464137  0.4753600975372194  0.4420945956488325  1.0000
  C   C191      1.0  0.24844491633133717  0.44307114899494604  0.3892494940598326  1.0000
  C   C192      1.0  0.2407186213971427  0.49668676737538675  0.3469114740109518  1.0000
  C   C193      1.0  0.3621577337398491  0.8159339820415213  0.2725690583574191  1.0000
  C   C194      1.0  0.43550528252822557  0.8885368554933848  0.255994217712626  1.0000
  C   C195      1.0  0.5121712838351232  0.8915489387912178  0.2608340265183172  1.0000
  C   C196      1.0  0.5154587537276712  0.821416676220345  0.28128440650536396  1.0000
  C   C197      1.0  0.44225293899658175  0.7481354000567751  0.2970212000703185  1.0000
  C   C198      1.0  0.36512627830278893  0.7453823897384028  0.2931844442856004  1.0000
  C   C199      1.0  0.27778559443189005  0.36808260667757514  0.14606014980704168  1.0000
  C   C200      1.0  0.2455668229818357  0.3480618245035672  0.20767889777870607  1.0000
  C   C201      1.0  0.21022189546769712  0.2662627579252331  0.22985317317908743  1.0000
  C   C202      1.0  0.20673357049514607  0.20363616826382722  0.1907424950494843  1.0000
  C   C203      1.0  0.23744759916994695  0.22289792545225143  0.1290396650876602  1.0000
  C   C204      1.0  0.27215960268596007  0.3045698528803412  0.10660021345574927  1.0000
  C   C205      1.0  0.42866551212605236  0.5249310308099809  0.16141161995854253  1.0000
  C   C206      1.0  0.4868460860767882  0.6086262298325665  0.14737052153635938  1.0000
  C   C207      1.0  0.5622932499578894  0.650355056488948  0.18004469566168518  1.0000
  C   C208      1.0  0.5815100054037075  0.6087135738767132  0.22647774068582996  1.0000
  C   C209      1.0  0.5246345701769713  0.5253113686695772  0.2401718534979976  1.0000
  C   C210      1.0  0.44848507892756817  0.48376982161183696  0.20809657763795994  1.0000
  Br  Br1       1.0  0.8364314513775428  0.6314498290130931  0.028474923278878392  1.0000
  Br  Br2       1.0  0.7951247983003996  0.1636780997199453  0.36198614389719097  1.0000
  Br  Br3       1.0  0.3685647276481277  0.20504562061394455  0.6956086258040557  1.0000
  Br  Br4       1.0  0.2049794110391049  0.36854440607654493  0.9715217261242655  1.0000
  Br  Br5       1.0  0.6314338275774248  0.8363043038339557  0.6380235220049925  1.0000
  Br  Br6       1.0  0.16352178349061583  0.7949593236171923  0.3043924157210752  1.0000
  N   N1        1.0  0.05083142462834909  0.5750746213143076  0.30278787250624367  1.0000
  N   N2        1.0  0.524144162677132  0.9491671607050381  0.6361714697937514  1.0000
  N   N3        1.0  0.4250129864305092  0.4757375057742407  0.9695649239608387  1.0000
  N   N4        1.0  0.47576770325104434  0.4249360134043487  0.6972089106516677  1.0000
  N   N5        1.0  0.5749810476616943  0.05083104050994798  0.36382899876596747  1.0000
  N   N6        1.0  0.9492745116818854  0.5242609986371182  0.0304352523446809  1.0000
