data_image0
_chemical_formula_structural       Y8H84C108N4O56
_chemical_formula_sum              "Y8 H84 C108 N4 O56"
_cell_length_a       14.510464142005018
_cell_length_b       15.936033069635833
_cell_length_c       17.59378651267753
_cell_angle_alpha    93.00680539061375
_cell_angle_beta     90.00004884531566
_cell_angle_gamma    89.99991546994549

_space_group_name_H-M_alt    "P 1"
_space_group_IT_number       1

loop_
  _space_group_symop_operation_xyz
  'x, y, z'

loop_
  _atom_site_type_symbol
  _atom_site_label
  _atom_site_symmetry_multiplicity
  _atom_site_fract_x
  _atom_site_fract_y
  _atom_site_fract_z
  _atom_site_occupancy
  Y   Y1        1.0  0.9686560245882487  0.6518807553375795  0.8206820996497302  1.0000
  Y   Y2        1.0  0.46865524553303556  0.8481206087629761  0.6793183512666732  1.0000
  Y   Y3        1.0  0.03134477635023809  0.34812012510843726  0.17931783528797504  1.0000
  Y   Y4        1.0  0.5313455554056502  0.15187964077323812  0.32068098761587294  1.0000
  Y   Y5        1.0  0.2661981738826285  0.1694469097574683  0.13953274133915983  1.0000
  Y   Y6        1.0  0.7661993935142204  0.3305531832019214  0.36046739588481114  1.0000
  Y   Y7        1.0  0.7338012487406897  0.8305533423207764  0.8604671660415095  1.0000
  Y   Y8        1.0  0.23380140742554537  0.6694464430478747  0.6395330524382743  1.0000
  H   H1        1.0  0.059734294654660396  0.4208555272154727  0.96801292202391  1.0000
  H   H2        1.0  0.559736959331957  0.07914601329757431  0.5319858478111642  1.0000
  H   H3        1.0  0.9402644388108212  0.5791447248632197  0.031986985356546406  1.0000
  H   H4        1.0  0.4402652199203202  0.9208561162615114  0.46801243674445914  1.0000
  H   H5        1.0  0.12990769497049107  0.3868838393659503  0.7303656837529362  1.0000
  H   H6        1.0  0.6299084838980914  0.11311635032664924  0.7696325072194414  1.0000
  H   H7        1.0  0.8700917276525288  0.6131164101711665  0.26963365512916954  1.0000
  H   H8        1.0  0.3700923170405019  0.8868832657586343  0.23036566710937487  1.0000
  H   H9        1.0  0.21435032440268023  0.25526446703431566  0.756508022682006  1.0000
  H   H10       1.0  0.7143515617764533  0.24473499429601736  0.7434924685773511  1.0000
  H   H11       1.0  0.7856477199055618  0.7447357901270878  0.24349302169535755  1.0000
  H   H12       1.0  0.2856485500053977  0.7552639985032956  0.25650681519179847  1.0000
  H   H13       1.0  0.48243054315707196  0.7677723021471794  0.018007145741954403  1.0000
  H   H14       1.0  0.9824313593963722  0.732229114880447  0.4819928993035846  1.0000
  H   H15       1.0  0.5175688794657488  0.23222857829973984  0.9819927891953102  1.0000
  H   H16       1.0  0.017570130699851895  0.26777113211419135  0.5180058710806108  1.0000
  H   H17       1.0  0.22523292185612578  0.20987788338099023  0.8899779288700034  1.0000
  H   H18       1.0  0.7252360144247588  0.29012344885749997  0.6100226519995573  1.0000
  H   H19       1.0  0.7747651224528125  0.790121114501929  0.110022491895613  1.0000
  H   H20       1.0  0.2747668539857314  0.7098793166931969  0.3899773656085729  1.0000
  H   H21       1.0  0.3601964246369603  0.7387011840247198  0.7961467025655227  1.0000
  H   H22       1.0  0.8601975939620556  0.7612996931945235  0.7038536516300982  1.0000
  H   H23       1.0  0.639801619670493  0.26129969896422994  0.20385380086986526  1.0000
  H   H24       1.0  0.1398038961346586  0.23869992543144047  0.2961450911975093  1.0000
  H   H25       1.0  0.2001665429751611  0.6823556154280938  0.9921655373990249  1.0000
  H   H26       1.0  0.7001674172712667  0.817645465472616  0.5078335777481442  1.0000
  H   H27       1.0  0.7998321904898302  0.3176452650192731  0.007834397538019303  1.0000
  H   H28       1.0  0.29983476198279385  0.1823547815215747  0.4921651926362713  1.0000
  H   H29       1.0  0.33398829979370237  0.16870047833148052  0.9599185357338413  1.0000
  H   H30       1.0  0.8339829830089655  0.3313000811282124  0.5400815184313006  1.0000
  H   H31       1.0  0.6660111228285359  0.8313003970331821  0.0400802622062884  1.0000
  H   H32       1.0  0.16601712877483973  0.6686982960080743  0.4599205802740799  1.0000
  H   H33       1.0  0.33552835089864164  0.7192500483589088  0.07581618214359051  1.0000
  H   H34       1.0  0.8355283392045861  0.780750934479805  0.4241843101639802  1.0000
  H   H35       1.0  0.6644717608823001  0.28075083462869094  0.9241843212924583  1.0000
  H   H36       1.0  0.1644738400497658  0.21924931505551382  0.5758150287190062  1.0000
  H   H37       1.0  0.0813630855645897  0.8109951869368716  0.7540608798300212  1.0000
  H   H38       1.0  0.5813637267486911  0.6890048049147669  0.7459409469356333  1.0000
  H   H39       1.0  0.9186363370595175  0.18900443931382685  0.24593956849262366  1.0000
  H   H40       1.0  0.41863431756112124  0.31099420059153726  0.25406117932568156  1.0000
  H   H41       1.0  0.40618787059099765  0.16120981542528065  0.8530902311977827  1.0000
  H   H42       1.0  0.9061833417736054  0.3387893931101545  0.6469098138961727  1.0000
  H   H43       1.0  0.5938115520317311  0.8387904315707077  0.14690853918575192  1.0000
  H   H44       1.0  0.0938140133794647  0.6612089891101862  0.3530934218054612  1.0000
  H   H45       1.0  0.4126873717650667  0.061509844177692216  0.800683008809955  1.0000
  H   H46       1.0  0.9126841139301546  0.4384893558781329  0.6993170404291507  1.0000
  H   H47       1.0  0.5873127400152923  0.9384910337276511  0.19931635762896605  1.0000
  H   H48       1.0  0.08731393037966481  0.561509649628178  0.3006850858321642  1.0000
  H   H49       1.0  0.5053983998094934  0.09552827897773143  0.8601935758522645  1.0000
  H   H50       1.0  0.005394731650604  0.40446957237463027  0.6398072679854465  1.0000
  H   H51       1.0  0.49460033365598827  0.9044719731009608  0.13980633152818464  1.0000
  H   H52       1.0  0.9946026235032546  0.5955281840181641  0.3601965086581629  1.0000
  H   H53       1.0  0.9862549122511621  0.01955666282966461  0.8982633885855977  1.0000
  H   H54       1.0  0.48625659454097553  0.48044432635801126  0.6017367902389525  1.0000
  H   H55       1.0  0.013743821212742098  0.9804448409041201  0.10173543691090713  1.0000
  H   H56       1.0  0.5137448955571173  0.5195546715226627  0.39826363052775804  1.0000
  H   H57       1.0  0.1366996627101074  0.09249500334539111  0.8814795264359392  1.0000
  H   H58       1.0  0.6367011953299765  0.4075064418471471  0.6185204294768027  1.0000
  H   H59       1.0  0.8632997599131186  0.9075046152819227  0.11851921639100743  1.0000
  H   H60       1.0  0.3633002947664322  0.5924950720493599  0.3814806700148381  1.0000
  H   H61       1.0  0.2586013588282725  0.023388339612232304  0.7987894970963938  1.0000
  H   H62       1.0  0.7586028652103777  0.47661169235986744  0.7012110499385715  1.0000
  H   H63       1.0  0.7413980637950457  0.9766119124660124  0.20121041028427564  1.0000
  H   H64       1.0  0.24139862488623007  0.5233891906268299  0.2987894534979176  1.0000
  H   H65       1.0  0.3578029028572016  0.943698669968072  0.9688208225438117  1.0000
  H   H66       1.0  0.8578035362882018  0.5563015845463968  0.5311800710672687  1.0000
  H   H67       1.0  0.6421944522919176  0.056302841390000004  0.03117970844795081  1.0000
  H   H68       1.0  0.1421972646541363  0.44369553331096523  0.4688214040265849  1.0000
  H   H69       1.0  0.4738639482920846  0.9527351036303886  0.9349093012399481  1.0000
  H   H70       1.0  0.9738646316113773  0.547261855094604  0.5650909601018769  1.0000
  H   H71       1.0  0.5261327177002001  0.04726515099078201  0.06509117463841112  1.0000
  H   H72       1.0  0.0261347910150036  0.4527352602225251  0.4349099464929723  1.0000
  H   H73       1.0  0.3819481931637937  0.9333200967110572  0.8689024870130739  1.0000
  H   H74       1.0  0.8819489135402845  0.5666794953953345  0.6310978259403514  1.0000
  H   H75       1.0  0.6180491619863204  0.06668015790966562  0.13109798886549845  1.0000
  H   H76       1.0  0.1180511982421422  0.433319502486242  0.3689025948259257  1.0000
  H   H77       1.0  0.37758276836522237  0.028188539983936806  0.20605575440857396  1.0000
  H   H78       1.0  0.877583689699797  0.4718114025890189  0.2939433168482496  1.0000
  H   H79       1.0  0.6224173434156342  0.9718117095527321  0.7939435844737519  1.0000
  H   H80       1.0  0.1224171112388888  0.5281888469471951  0.7060560220342966  1.0000
  H   H81       1.0  0.3434963039213486  0.008108111133516602  0.1189502363316137  1.0000
  H   H82       1.0  0.8434965939926683  0.49189250681642  0.3810494092431896  1.0000
  H   H83       1.0  0.6565031187024601  0.9918915125760537  0.8810496434924675  1.0000
  H   H84       1.0  0.15650489610413834  0.5081077452604745  0.6189504981381406  1.0000
  C   C1        1.0  0.25143270206218193  0.8706733547860496  0.7241197244265295  1.0000
  C   C2        1.0  0.7514327820186536  0.6293264075819281  0.7758805052968258  1.0000
  C   C3        1.0  0.7485674097188734  0.12932626384081664  0.2758790184006373  1.0000
  C   C4        1.0  0.24856664060474995  0.3706744779472545  0.22412056663756635  1.0000
  C   C5        1.0  0.933800321362007  0.8694390933987963  0.8378381800598692  1.0000
  C   C6        1.0  0.4338019449615018  0.6305610619742269  0.6621627620151644  1.0000
  C   C7        1.0  0.0661991012605156  0.13056178450699465  0.16216118637883173  1.0000
  C   C8        1.0  0.5661981668217138  0.36943731007979624  0.33783819969308854  1.0000
  C   C9        1.0  0.5143114056697017  0.7921068713981899  0.8671011022161823  1.0000
  C   C10       1.0  0.0143128733972233  0.7078931952180912  0.632897839297975  1.0000
  C   C11       1.0  0.4856873277957802  0.20789338068050264  0.13289880516427396  1.0000
  C   C12       1.0  0.9856893058573277  0.29210642340742526  0.3671009035298525  1.0000
  C   C13       1.0  0.19491163247509044  0.6836216651718702  0.8361840127045569  1.0000
  C   C14       1.0  0.6949092250525766  0.81638130769219  0.6638151817602777  1.0000
  C   C15       1.0  0.8050898576189526  0.3163817262072755  0.16381546396115715  1.0000
  C   C16       1.0  0.30509226504332787  0.18362083457299155  0.3361859452879585  1.0000
  C   C17       1.0  0.03731655365041319  0.4900195964487751  0.833619702808875  1.0000
  C   C18       1.0  0.5373153351985279  0.009979454754436302  0.6663778055056471  1.0000
  C   C19       1.0  0.9626842472881805  0.5099800196365153  0.16637847151994836  1.0000
  C   C20       1.0  0.4626833982672664  0.9900189020537271  0.33361974521076837  1.0000
  C   C21       1.0  0.09386415240296489  0.3847365979831849  0.921812852054778  1.0000
  C   C22       1.0  0.5938668064646605  0.11526364381028031  0.5781864529303249  1.0000
  C   C23       1.0  0.9061338919046874  0.6152636540959621  0.0781870553254578  1.0000
  C   C24       1.0  0.4061360619475208  0.8847366057245838  0.42181288595288186  1.0000
  C   C25       1.0  0.08885667125986876  0.4114813922218731  0.8474061481896344  1.0000
  C   C26       1.0  0.5888560002128997  0.08851948447483693  0.6525931811577195  1.0000
  C   C27       1.0  0.9111420622048312  0.5885194856843656  0.15259321824883904  1.0000
  C   C28       1.0  0.4111427332527881  0.9114801366940527  0.3474061301675775  1.0000
  C   C29       1.0  0.13286836462590657  0.3650596613024747  0.787950203957813  1.0000
  C   C30       1.0  0.6328669908569537  0.13493989870170964  0.7120485298438768  1.0000
  C   C31       1.0  0.8671310579982003  0.6349399649482238  0.21205024436483205  1.0000
  C   C32       1.0  0.36713312092322786  0.865059712301772  0.2879485074875988  1.0000
  C   C33       1.0  0.18105779300889677  0.29197896908122806  0.8028478887229086  1.0000
  C   C34       1.0  0.6810583526627737  0.20801990222967257  0.6971514167518224  1.0000
  C   C35       1.0  0.8189409404579634  0.7080206622521815  0.19715369659665072  1.0000
  C   C36       1.0  0.3189424482760187  0.7919790829458081  0.30284616152184196  1.0000
  C   C37       1.0  0.17761424050036817  0.913027842911717  0.7717692288728273  1.0000
  C   C38       1.0  0.6776136505294161  0.586970764099881  0.728232035660149  1.0000
  C   C39       1.0  0.8223865604391063  0.08697178079695793  0.22823065095169437  1.0000
  C   C40       1.0  0.32238508293765006  0.41302823632371855  0.27176895360425146  1.0000
  C   C41       1.0  0.42939066666182396  0.7592196716184959  0.90353501301248  1.0000
  C   C42       1.0  0.9293917577344715  0.7407817411624936  0.5964648443663878  1.0000
  C   C43       1.0  0.5706080668031676  0.24078120882887796  0.09646492192455723  1.0000
  C   C44       1.0  0.07061111067741169  0.25921850583124956  0.40353392601824833  1.0000
  C   C45       1.0  0.4227368947678372  0.7518601849908679  0.9824744197266853  1.0000
  C   C46       1.0  0.9227378919050581  0.7481412364702181  0.5175254334090341  1.0000
  C   C47       1.0  0.5772618386968557  0.24814069291537785  0.017524946711795105  1.0000
  C   C48       1.0  0.0772635981907612  0.2518602723440324  0.4824745290854724  1.0000
  C   C49       1.0  0.1504849701897299  0.28616141314773813  0.017587608948481704  1.0000
  C   C50       1.0  0.6504878841767691  0.21383819985190664  0.48241185843044593  1.0000
  C   C51       1.0  0.8495151415907145  0.713840098208536  0.9824129220441621  1.0000
  C   C52       1.0  0.349513605920535  0.7861614238563138  0.5175880213942963  1.0000
  C   C53       1.0  0.1439053473572045  0.31256747986903133  0.9371301963960765  1.0000
  C   C54       1.0  0.6439078684109276  0.18743269918548586  0.5628697089988749  1.0000
  C   C55       1.0  0.8560926969508316  0.6874334082021749  0.06287144403644623  1.0000
  C   C56       1.0  0.3560936216857938  0.8125669194404781  0.4371290338287325  1.0000
  C   C57       1.0  0.18717550654089615  0.26633119909731556  0.8772788298099459  1.0000
  C   C58       1.0  0.6871787038995123  0.23366892605073283  0.6227216716772122  1.0000
  C   C59       1.0  0.8128218486102979  0.7336684322369823  0.12272275550917301  1.0000
  C   C60       1.0  0.3128234753545414  0.766331320943458  0.37727709870720366  1.0000
  C   C61       1.0  0.35444819331056  0.7358831623960996  0.8574902076293969  1.0000
  C   C62       1.0  0.8544492943442704  0.764118973977013  0.642509061016604  1.0000
  C   C63       1.0  0.6455505401536357  0.2641183438788205  0.14250918636567186  1.0000
  C   C64       1.0  0.14555357406633357  0.2358825272129508  0.3574891959826446  1.0000
  C   C65       1.0  0.27250529883262686  0.7077709909972684  0.8889458550900787  1.0000
  C   C66       1.0  0.7725056324222521  0.7922312548143112  0.6110539297991695  1.0000
  C   C67       1.0  0.7274941237894906  0.2922311487281277  0.11105470345893312  1.0000
  C   C68       1.0  0.2274965468308139  0.20777024891723533  0.38894489569842966  1.0000
  C   C69       1.0  0.2648646505916545  0.7033894788433984  0.9680459825978008  1.0000
  C   C70       1.0  0.764865584069156  0.7966121485665597  0.5319537698625967  1.0000
  C   C71       1.0  0.7351340828728394  0.29661202997264263  0.0319539798958317  1.0000
  C   C72       1.0  0.23513728434193837  0.20338872425472942  0.4680444595800637  1.0000
  C   C73       1.0  0.0248465873966097  0.9108981272898692  0.8278347005678556  1.0000
  C   C74       1.0  0.5248473140492037  0.5891025666577719  0.6721671177137836  1.0000
  C   C75       1.0  0.9751528352259199  0.08910275061592193  0.17216466587084514  1.0000
  C   C76       1.0  0.4751521085762746  0.41089643884763666  0.3278350085479716  1.0000
  C   C77       1.0  0.3393341571699152  0.10133454818866035  0.9703662602578977  1.0000
  C   C78       1.0  0.8393300985440958  0.39866663774731864  0.5296349618704285  1.0000
  C   C79       1.0  0.6606673329239424  0.8986675762886239  0.02963088730037102  1.0000
  C   C80       1.0  0.16067208071645203  0.6013298695283639  0.47037046515723807  1.0000
  C   C81       1.0  0.34056468014108526  0.7245209022864146  0.014368235374952607  1.0000
  C   C82       1.0  0.8405661191400495  0.7754806998088599  0.48563171920277187  1.0000
  C   C83       1.0  0.6594340533241975  0.2754799807020802  0.9856322680606554  1.0000
  C   C84       1.0  0.1594374384289665  0.22452080646291256  0.5143676747938316  1.0000
  C   C85       1.0  0.09333303261794872  0.8724945411981296  0.7821221630799118  1.0000
  C   C86       1.0  0.5933337444413239  0.6275048066696556  0.7178796437624231  1.0000
  C   C87       1.0  0.9066670791636895  0.12750508251099293  0.21787771674438972  1.0000
  C   C88       1.0  0.40666567818494304  0.37249357300820674  0.282123023441308  1.0000
  C   C89       1.0  0.4299170066576535  0.09596993024357663  0.8544187795054727  1.0000
  C   C90       1.0  0.9299130597634785  0.4040286189674732  0.6455812531641814  1.0000
  C   C91       1.0  0.5700824159650748  0.9040303167524116  0.1455799908780691  1.0000
  C   C92       1.0  0.07008429538900882  0.5959697581706108  0.35442084554032505  1.0000
  C   C93       1.0  0.0407254268687964  0.9904688883967623  0.8633289586495538  1.0000
  C   C94       1.0  0.5407262457612773  0.5095311513854882  0.6366717052043427  1.0000
  C   C95       1.0  0.9592739957555094  0.0095301069441334  0.13667089361793225  1.0000
  C   C96       1.0  0.4592738660198704  0.49046910069230887  0.3633282021765468  1.0000
  C   C97       1.0  0.12476141703720597  0.030860035780456506  0.853437873407998  1.0000
  C   C98       1.0  0.6247621896213217  0.46914017079012643  0.6465625882768506  1.0000
  C   C99       1.0  0.8752393839030574  0.969138962100665  0.14656254735849222  1.0000
  C   C100      1.0  0.3752399896328242  0.530860709654995  0.35343734666128773  1.0000
  C   C101      1.0  0.19287352746636793  0.9924456665876139  0.807764349498598  1.0000
  C   C102      1.0  0.6928744072813728  0.5075541747130717  0.6922364113803284  1.0000
  C   C103      1.0  0.8071252059988224  0.007554582949950401  0.19223498938329442  1.0000
  C   C104      1.0  0.3071250153430255  0.4924454540787552  0.3077646054408802  1.0000
  C   C105      1.0  0.4009813557331014  0.966036789285646  0.9230574368238467  1.0000
  C   C106      1.0  0.900980694627563  0.5339627754512153  0.5769423197680441  1.0000
  C   C107      1.0  0.5990166885742524  0.03396346025237311  0.07694190205781842  1.0000
  C   C108      1.0  0.0990194171564411  0.4660349707752688  0.4230591828821845  1.0000
  N   N1        1.0  0.3869156908351243  0.05595445532362222  0.917799378455257  1.0000
  N   N2        1.0  0.8869129914955635  0.4440454118026624  0.5822018189031157  1.0000
  N   N3        1.0  0.6130837317873982  0.944046422582176  0.08219998798343653  1.0000
  N   N4        1.0  0.1130850528136662  0.5559535886213922  0.4177991703610645  1.0000
  O   O1        1.0  0.9902970952477332  0.525937883493455  0.8866586764760032  1.0000
  O   O2        1.0  0.4902981107875631  0.9740615571040082  0.6133394315774652  1.0000
  O   O3        1.0  0.009701638218246  0.4740617402165698  0.11334120334785784  1.0000
  O   O4        1.0  0.5097033793087675  0.025937425529896502  0.3866575781978555  1.0000
  O   O5        1.0  0.040798118186401694  0.522916603684422  0.7678847006408633  1.0000
  O   O6        1.0  0.540798277586873  0.9770840567487229  0.7321142853200728  1.0000
  O   O7        1.0  0.9592019935941634  0.4770836433111187  0.23211406974289878  1.0000
  O   O8        1.0  0.4592025233523031  0.022915564418816807  0.267885026005878  1.0000
  O   O9        1.0  0.11362203660223709  0.6812624517898771  0.8635455574653224  1.0000
  O   O10       1.0  0.6136209752505761  0.8187374954390311  0.6364557213727908  1.0000
  O   O11       1.0  0.8863787643384098  0.3187371820833037  0.13645659635346166  1.0000
  O   O12       1.0  0.386379825688408  0.18126275663831856  0.3635441860083192  1.0000
  O   O13       1.0  0.5086630138221011  0.8155069507447623  0.799173975537599  1.0000
  O   O14       1.0  0.008663211758232599  0.6844931283230907  0.7008260993712983  1.0000
  O   O15       1.0  0.4913370979595441  0.1844926729643533  0.20082590428670247  1.0000
  O   O16       1.0  0.9913369000234126  0.31550649538603187  0.2991737804530033  1.0000
  O   O17       1.0  0.09736674692786097  0.32320399666522803  0.06564190174059092  1.0000
  O   O18       1.0  0.597371049420815  0.176794426349268  0.4343569081534753  1.0000
  O   O19       1.0  0.9026361214832191  0.6767987739677255  0.9343592528646739  1.0000
  O   O20       1.0  0.40263112983224386  0.8232070773822716  0.5656419173441238  1.0000
  O   O21       1.0  0.9239150950688567  0.7910216844224113  0.8186247977813894  1.0000
  O   O22       1.0  0.4239159222304209  0.7089784787644362  0.681375000992432  1.0000
  O   O23       1.0  0.07608501671248998  0.20897793674557621  0.1813745135443412  1.0000
  O   O24       1.0  0.5760841895517217  0.29102051657601175  0.3186248512752742  1.0000
  O   O25       1.0  0.8666990688506714  0.9132481076806728  0.864015285643575  1.0000
  O   O26       1.0  0.3667007363427856  0.5867527712198779  0.635987346693213  1.0000
  O   O27       1.0  0.1332996646155991  0.0867515185704733  0.13598516267884972  1.0000
  O   O28       1.0  0.6333000645970726  0.4132474884808561  0.36401426618359534  1.0000
  O   O29       1.0  0.20815306241679815  0.22904048655257722  0.0324457277360395  1.0000
  O   O30       1.0  0.7081565574459034  0.2709603079543755  0.4675538315312553  1.0000
  O   O31       1.0  0.7918456710481931  0.7709603938947965  0.9675542072009978  1.0000
  O   O32       1.0  0.2918463109663705  0.7290405750314264  0.5324466719056744  1.0000
  O   O33       1.0  0.3026498199122968  0.07231332124416671  0.027958140545557307  1.0000
  O   O34       1.0  0.8026475520412716  0.42768860927131414  0.47204210259233303  1.0000
  O   O35       1.0  0.6973489135521048  0.9276875541209438  0.9720406573943521  1.0000
  O   O36       1.0  0.1973525597397838  0.5723110093555521  0.5279566402348338  1.0000
  O   O37       1.0  0.3271157144252399  0.03568024809870711  0.16779193041299584  1.0000
  O   O38       1.0  0.8271166876603145  0.46431976285105503  0.3322076771595164  1.0000
  O   O39       1.0  0.6728837081974959  0.9643199988972811  0.832206839970546  1.0000
  O   O40       1.0  0.17288411327925246  0.5356804943085507  0.6677933672187282  1.0000
  O   O41       1.0  0.21452641976780024  0.6673813410471613  0.7667151594927477  1.0000
  O   O42       1.0  0.7145288822596141  0.8326184694645565  0.7332850466961889  1.0000
  O   O43       1.0  0.7854702462252733  0.33261828774646324  0.23328585732758716  1.0000
  O   O44       1.0  0.2854746753123791  0.16737926659516236  0.2667141819608717  1.0000
  O   O45       1.0  0.5884875472109171  0.7962947361927918  0.9057589079809463  1.0000
  O   O46       1.0  0.08848760326538499  0.7037039794633063  0.5942405942203524  1.0000
  O   O47       1.0  0.41151187541240103  0.20370551588545283  0.09424099939972311  1.0000
  O   O48       1.0  0.9115138868329139  0.29629438750756526  0.4057592304912064  1.0000
  O   O49       1.0  0.33333564352528094  0.9003700323316937  0.7300663674426888  1.0000
  O   O50       1.0  0.8333357654885489  0.5996308799288883  0.769933969623452  1.0000
  O   O51       1.0  0.6666651574126164  0.09963084303207383  0.2699324304978816  1.0000
  O   O52       1.0  0.1666643462911139  0.4003712572549318  0.23006602042720917  1.0000
  O   O53       1.0  0.22997442406004603  0.8071234231668926  0.6814433784666394  1.0000
  O   O54       1.0  0.7299758235466667  0.6928769981029606  0.8185574336283283  1.0000
  O   O55       1.0  0.7700256877206113  0.19287745727957883  0.3185565564708456  1.0000
  O   O56       1.0  0.27002428823536206  0.3071232615982212  0.18144417924826683  1.0000
