data_image0
_chemical_formula_structural       Ni2H16C24Br4N8
_chemical_formula_sum              "Ni2 H16 C24 Br4 N8"
_cell_length_a       3.714323357012464
_cell_length_b       7.076053582139098
_cell_length_c       26.55244496046246
_cell_angle_alpha    90.00067054844763
_cell_angle_beta     90.00012200226527
_cell_angle_gamma    89.99974284348765

_space_group_name_H-M_alt    "P 1"
_space_group_IT_number       1

loop_
  _space_group_symop_operation_xyz
  'x, y, z'

loop_
  _atom_site_type_symbol
  _atom_site_label
  _atom_site_symmetry_multiplicity
  _atom_site_fract_x
  _atom_site_fract_y
  _atom_site_fract_z
  _atom_site_occupancy
  Ni  Ni1       1.0  1.3593030843000002e-06  4.9035503054000016e-06  0.9999986833683252  1.0000
  Ni  Ni2       1.0  0.49999006965396836  0.500002300817016  0.500000772661501  1.0000
  H   H1        1.0  0.9999986593209869  0.9004000721300901  0.8901900328026072  1.0000
  H   H2        1.0  0.9999967298752709  0.09960190724008558  0.10981054857744968  1.0000
  H   H3        1.0  0.5000019938875866  0.4004068123638262  0.609810090129905  1.0000
  H   H4        1.0  0.49998891456630906  0.5995907231551598  0.39019070195750766  1.0000
  H   H5        1.0  4.8352600217e-06  0.40672243618816145  0.9680248637407304  1.0000
  H   H6        1.0  4.3831075659999955e-07  0.5932876139551555  0.0319712431127428  1.0000
  H   H7        1.0  0.4999939768722612  0.9067212315256228  0.5319762429248343  1.0000
  H   H8        1.0  0.5000050084137584  0.09328337013501913  0.468027562080202  1.0000
  H   H9        1.0  0.9999997835261498  0.06538316708951439  0.8066922933596672  1.0000
  H   H10       1.0  0.9999992017848811  0.9346087155265651  0.1933073688807738  1.0000
  H   H11       1.0  0.49999917793540766  0.5653960826503379  0.693308120715649  1.0000
  H   H12       1.0  0.4999917305420142  0.43459580000021003  0.3066926713629102  1.0000
  H   H13       1.0  6.218612320200001e-06  0.5935550822074945  0.8892527494086764  1.0000
  H   H14       1.0  7.131827345600002e-06  0.4064464885986966  0.1107422275933985  1.0000
  H   H15       1.0  0.49999250836408754  0.09355782802726512  0.6107485061238762  1.0000
  H   H16       1.0  0.5000172460872819  0.9064368811088174  0.3892556754806122  1.0000
  C   C1        1.0  3.0722224906000018e-06  0.05375134031481821  0.8879507055146334  1.0000
  C   C2        1.0  0.9999959130532404  0.9462490216039258  0.11204895673908767  1.0000
  C   C3        1.0  0.4999986783782049  0.5537592896974958  0.6120500487304952  1.0000
  C   C4        1.0  0.499989537802101  0.44623965908302676  0.3879526264244504  1.0000
  C   C5        1.0  4.884775648900001e-06  0.33600849791258014  0.9317203749363117  1.0000
  C   C6        1.0  0.9999976965484054  0.6639958993984793  0.0682772383604728  1.0000
  C   C7        1.0  0.4999972083097362  0.836013120283667  0.5682805102316024  1.0000
  C   C8        1.0  0.4999990847025657  0.16398865492954678  0.431722541542257  1.0000
  C   C9        1.0  2.379826675300001e-06  0.14513318687549065  0.8416842994809599  1.0000
  C   C10       1.0  2.015344123000003e-07  0.8548641443747158  0.1583144436442154  1.0000
  C   C11       1.0  0.4999986100014198  0.6451445724503414  0.6583167410177779  1.0000
  C   C12       1.0  0.49999229846597615  0.3548515498762371  0.3416851809068788  1.0000
  C   C13       1.0  6.845067339600002e-06  0.44005422553631507  0.8873995722827458  1.0000
  C   C14       1.0  1.1208216718999993e-06  0.5599473453093183  0.11259691117104609  1.0000
  C   C15       1.0  0.4999970741046695  0.9400607858163285  0.6126016388057351  1.0000
  C   C16       1.0  0.5000072957715744  0.05993674975225361  0.38740216618913337  1.0000
  C   C17       1.0  6.936452329900002e-06  0.343438630265439  0.8413162824088545  1.0000
  C   C18       1.0  1.0294576782e-06  0.6565572877035138  0.1586798244229328  1.0000
  C   C19       1.0  0.4999977870188773  0.843450031902286  0.6586831195919629  1.0000
  C   C20       1.0  0.5000011982897448  0.15654609041452977  0.3413188023340368  1.0000
  C   C21       1.0  3.4994874198e-06  0.4478630640347917  0.7953466679663775  1.0000
  C   C22       1.0  1.7741707906999993e-06  0.5521272010854333  0.20465019208241128  1.0000
  C   C23       1.0  0.5000003546135616  0.9478863682414768  0.7046556974485085  1.0000
  C   C24       1.0  0.5000013229655664  0.0521182334570867  0.2953499906227393  1.0000
  Br  Br1       1.0  0.5000015613450018  0.21718333049329167  0.0333630758238854  1.0000
  Br  Br2       1.0  0.5000001161259746  0.7828283370355821  0.9666309372507058  1.0000
  Br  Br3       1.0  0.9999911809963892  0.7171841724839398  0.4666355301428808  1.0000
  Br  Br4       1.0  0.999996131339394  0.2828248730144837  0.5333665576995088  1.0000
  N   N1        1.0  2.988919519e-06  0.14580220892100473  0.9324149282970423  1.0000
  N   N2        1.0  0.9999959963191786  0.854205219058592  0.0675836041282878  1.0000
  N   N3        1.0  0.4999979953764395  0.645803974480927  0.5675857376691482  1.0000
  N   N4        1.0  0.49999022078367267  0.3541992139426924  0.43241656087928243  1.0000
  N   N5        1.0  1.8005517429999996e-07  0.5392380559269013  0.7587505578354055  1.0000
  N   N6        1.0  0.9999988052371408  0.4607510001561507  0.24124458504278573  1.0000
  N   N7        1.0  0.5000016912469007  0.0392705324677252  0.741247138080915  1.0000
  N   N8        1.0  0.49999460173665977  0.9607326558884995  0.25875252417678496  1.0000
