data_image0
_chemical_formula_structural       H12Pb4C16S2O18
_chemical_formula_sum              "H12 Pb4 C16 S2 O18"
_cell_length_a       6.8174359419986095
_cell_length_b       8.45760982652464
_cell_length_c       10.88418604354084
_cell_angle_alpha    89.91518230872794
_cell_angle_beta     107.28867068474818
_cell_angle_gamma    91.48636267323968

_space_group_name_H-M_alt    "P 1"
_space_group_IT_number       1

loop_
  _space_group_symop_operation_xyz
  'x, y, z'

loop_
  _atom_site_type_symbol
  _atom_site_label
  _atom_site_symmetry_multiplicity
  _atom_site_fract_x
  _atom_site_fract_y
  _atom_site_fract_z
  _atom_site_occupancy
  H   H1        1.0  0.5584016201548181  0.3411774691008703  0.4315972510043337  1.0000
  H   H2        1.0  0.4415860858436814  0.6588252129321502  0.5684127150055428  1.0000
  H   H3        1.0  0.8498697897269523  0.9140619808609642  0.5981182182670322  1.0000
  H   H4        1.0  0.1501571208722368  0.0859609664906955  0.40188829468755205  1.0000
  H   H5        1.0  0.5769349260003621  0.9425388613521619  0.18777267876354384  1.0000
  H   H6        1.0  0.4230619950491956  0.057461520877431796  0.8122335224463623  1.0000
  H   H7        1.0  0.17281577203363696  0.34482491636222073  0.91205121897552  1.0000
  H   H8        1.0  0.8271720412188941  0.6551743770500522  0.08794221348460945  1.0000
  H   H9        1.0  0.0002623839709770001  0.0951200121405975  0.12426337378023077  1.0000
  H   H10       1.0  0.999738533926447  0.9048614522516375  0.8757435047765507  1.0000
  H   H11       1.0  0.79177638776968  0.0214918976397342  0.03609952940232827  1.0000
  H   H12       1.0  0.20822458070580294  0.9784907583768714  0.9639064453649123  1.0000
  Pb  Pb1       1.0  0.06418068518183159  0.5469677953729359  0.7057126828997082  1.0000
  Pb  Pb2       1.0  0.9358023539842648  0.4530267519033231  0.2942807359353025  1.0000
  Pb  Pb3       1.0  0.7502980636043546  0.35635710337868426  0.9146494920218867  1.0000
  Pb  Pb4       1.0  0.24968950909063636  0.643636240780893  0.08534754296124446  1.0000
  C   C1        1.0  0.5544611844039977  0.14910203482753562  0.2980418428349977  1.0000
  C   C2        1.0  0.44553282944448813  0.8509030831280455  0.7019629061513297  1.0000
  C   C3        1.0  0.6057184769133102  0.2215016408879436  0.41916787361467545  1.0000
  C   C4        1.0  0.39428010746238584  0.7785023005584508  0.5808377422457196  1.0000
  C   C5        1.0  0.7163195894828291  0.1368284332870147  0.5274990242478096  1.0000
  C   C6        1.0  0.28369151442460355  0.8631826213466808  0.47250901278136564  1.0000
  C   C7        1.0  0.7687639521992223  0.980583229820816  0.5133360779604883  1.0000
  C   C8        1.0  0.23125489341259708  0.0194267234209846  0.4866660808847525  1.0000
  C   C9        1.0  0.7177209602332013  0.9102242650588153  0.39125863775762315  1.0000
  C   C10       1.0  0.28228680094825626  0.08977619382893208  0.6087432006676534  1.0000
  C   C11       1.0  0.6130391687009221  0.9959990260706276  0.2828831838107816  1.0000
  C   C12       1.0  0.38695952791669436  0.004006151345933502  0.7171169461366558  1.0000
  C   C13       1.0  0.773384195221432  0.21292344718676046  0.6583564948168  1.0000
  C   C14       1.0  0.2266205822683744  0.7870793819165698  0.3416438661146158  1.0000
  C   C15       1.0  0.772219053626806  0.7442865237208949  0.371965935580917  1.0000
  C   C16       1.0  0.22779359263603274  0.2557187611253156  0.6280276686473198  1.0000
  S   S1        1.0  0.4075345019486035  0.2519931250631515  0.160247022287585  1.0000
  S   S2        1.0  0.5924578584125655  0.7480061302493369  0.8397518718051697  1.0000
  O   O1        1.0  0.831610770897143  0.1286871968763847  0.7578647650397198  1.0000
  O   O2        1.0  0.1683848396257304  0.8713168113592786  0.24213293308373088  1.0000
  O   O3        1.0  0.7546262332233058  0.3648829743670845  0.662533861779657  1.0000
  O   O4        1.0  0.24536620362844272  0.6351186464558224  0.3374650575833939  1.0000
  O   O5        1.0  0.8776553552096759  0.6646874316311224  0.4666675665356193  1.0000
  O   O6        1.0  0.1223743021275894  0.3353191120873262  0.5333237766467744  1.0000
  O   O7        1.0  0.7140233379280688  0.6880937491264446  0.25718026685294854  1.0000
  O   O8        1.0  0.2859678032237127  0.31191381886715414  0.7428147568173598  1.0000
  O   O9        1.0  0.35143971632589205  0.1416790180081904  0.05090953361505507  1.0000
  O   O10       1.0  0.648547212434046  0.8583000000514502  0.9491010961165853  1.0000
  O   O11       1.0  0.22998630825966157  0.3120196335432864  0.19512272749352622  1.0000
  O   O12       1.0  0.7700142268368495  0.687991539553778  0.8048695109772195  1.0000
  O   O13       1.0  0.5417162300329821  0.38418861825824274  0.13952597624808755  1.0000
  O   O14       1.0  0.45828802061462437  0.615794192698104  0.8604650056389997  1.0000
  O   O15       1.0  0.08797383830574293  0.4364199297944751  0.913007851402298  1.0000
  O   O16       1.0  0.9120109394301039  0.5635793860612709  0.08698224544430383  1.0000
  O   O17       1.0  0.8584780902543656  0.1206331932390086  0.07817591182816126  1.0000
  O   O18       1.0  0.1415215430288939  0.8793530710453511  0.9218233927019948  1.0000
