data_image0
_chemical_formula_structural       Ag4H20C16N8
_chemical_formula_sum              "Ag4 H20 C16 N8"
_cell_length_a       5.825063697032978
_cell_length_b       7.545081074473073
_cell_length_c       10.957056183512588
_cell_angle_alpha    93.59553857911189
_cell_angle_beta     89.99980449822267
_cell_angle_gamma    89.99962480293496

_space_group_name_H-M_alt    "P 1"
_space_group_IT_number       1

loop_
  _space_group_symop_operation_xyz
  'x, y, z'

loop_
  _atom_site_type_symbol
  _atom_site_label
  _atom_site_symmetry_multiplicity
  _atom_site_fract_x
  _atom_site_fract_y
  _atom_site_fract_z
  _atom_site_occupancy
  Ag  Ag1       1.0  0.5000143152030815  0.5000210523904299  0.4999987213952791  1.0000
  Ag  Ag2       1.0  1.7163458352000003e-06  2.27886225659e-05  1.3581456499900002e-05  1.0000
  Ag  Ag3       1.0  0.9999980954211908  0.4999902437341104  6.508395528961817e-07  1.0000
  Ag  Ag4       1.0  0.4999649775720841  0.9999781889071497  0.5000001387564977  1.0000
  H   H1        1.0  0.9050499266169537  0.6395285501129705  0.2503401564871908  1.0000
  H   H2        1.0  0.4050405440191369  0.8604907791275094  0.24963871754677314  1.0000
  H   H3        1.0  0.09497527046602268  0.3605042747295073  0.7496578718381527  1.0000
  H   H4        1.0  0.594948602494327  0.13951496697360705  0.7503273237780164  1.0000
  H   H5        1.0  0.9760261731301797  0.5573986607320974  0.39390691940666755  1.0000
  H   H6        1.0  0.47604557746615234  0.9426186723705072  0.10608921044552487  1.0000
  H   H7        1.0  0.0239835740772492  0.44259283091085405  0.6060796117865337  1.0000
  H   H8        1.0  0.5239744698337533  0.05738623608213088  0.8939060082107843  1.0000
  H   H9        1.0  0.10139480177146251  0.7583223975020771  0.3484495968809966  1.0000
  H   H10       1.0  0.6013907218826163  0.7416888534476199  0.1515372725653918  1.0000
  H   H11       1.0  0.8986338292215023  0.2416643187367312  0.6515687109565178  1.0000
  H   H12       1.0  0.398608724931691  0.25831309281432613  0.8484395873637638  1.0000
  H   H13       1.0  0.7302438029352204  0.32913079993483046  0.2509615754261958  1.0000
  H   H14       1.0  0.23024788015620606  0.1708995684792924  0.2490465516798963  1.0000
  H   H15       1.0  0.2697607937141414  0.6708950790396314  0.7490179537205961  1.0000
  H   H16       1.0  0.7697601498038864  0.8291036032142781  0.7510033686220511  1.0000
  H   H17       1.0  0.5054064224777619  0.32606460683562927  0.029020034661364495  1.0000
  H   H18       1.0  0.005380307603957099  0.17391160089633215  0.47099353335426025  1.0000
  H   H19       1.0  0.4945792907040669  0.6739229163852227  0.9709672693354959  1.0000
  H   H20       1.0  0.9945436035770571  0.8260582660445406  0.5290488237381439  1.0000
  C   C1        1.0  0.0449698648529449  0.6246038532085264  0.315430932736362  1.0000
  C   C2        1.0  0.5449636737154223  0.8754257258838577  0.18455842055575997  1.0000
  C   C3        1.0  0.9550433153270533  0.3754183637808523  0.6845676343067879  1.0000
  C   C4        1.0  0.45502890588103634  0.12460019901225644  0.8154238483552164  1.0000
  C   C5        1.0  0.23604068780573334  0.5223406127529342  0.2559590967706811  1.0000
  C   C6        1.0  0.7360363117743631  0.9776609133216991  0.2440392659236323  1.0000
  C   C7        1.0  0.7639587589356296  0.47766025069844165  0.7440323284159263  1.0000
  C   C8        1.0  0.2639339509056526  0.022322840628355288  0.7559606831873538  1.0000
  C   C9        1.0  0.5645815338591191  0.38337758124765026  0.2282755854752097  1.0000
  C   C10       1.0  0.06457471702916001  0.11662652850217367  0.2717216118723655  1.0000
  C   C11       1.0  0.4354573974443241  0.6166283641117403  0.7717023281593426  1.0000
  C   C12       1.0  0.9354333132045697  0.8833669343686664  0.7283033228337814  1.0000
  C   C13       1.0  0.4521491069411637  0.38182619303798043  0.11783628280958419  1.0000
  C   C14       1.0  0.9521420154419292  0.11817335092786857  0.3821643204443603  1.0000
  C   C15       1.0  0.5478572064820356  0.6181880106260847  0.8821592635668908  1.0000
  C   C16       1.0  0.0478248140777282  0.8817853109154682  0.6178429584331084  1.0000
  N   N1        1.0  0.42724232596476247  0.47186653273360685  0.3151014004765997  1.0000
  N   N2        1.0  0.9272313151563767  0.02815539479693289  0.18489634648717873  1.0000
  N   N3        1.0  0.5727863048673784  0.5281475178122291  0.6848850133528828  1.0000
  N   N4        1.0  0.0727732815723954  0.9718510559546658  0.8151117045517893  1.0000
  N   N5        1.0  0.24544797756427533  0.4704885894869049  0.1354944926375978  1.0000
  N   N6        1.0  0.7454382235677101  0.029495335649322395  0.3645092555940508  1.0000
  N   N7        1.0  0.7545840870722601  0.5294924475682521  0.864501709819436  1.0000
  N   N8        1.0  0.25453890592270767  0.9704873201903719  0.6355043455196139  1.0000
