data_image0
_chemical_formula_structural       Tm4H60C44O24
_chemical_formula_sum              "Tm4 H60 C44 O24"
_cell_length_a       8.065463476004458
_cell_length_b       10.663777936006495
_cell_length_c       14.736544278001363
_cell_angle_alpha    89.99995853018083
_cell_angle_beta     90.00002787429621
_cell_angle_gamma    89.99988179635832

_space_group_name_H-M_alt    "P 1"
_space_group_IT_number       1

loop_
  _space_group_symop_operation_xyz
  'x, y, z'

loop_
  _atom_site_type_symbol
  _atom_site_label
  _atom_site_symmetry_multiplicity
  _atom_site_fract_x
  _atom_site_fract_y
  _atom_site_fract_z
  _atom_site_occupancy
  Tm  Tm1       1.0  0.07836411279478028  0.7994255678440111  0.49850133720983786  1.0000
  Tm  Tm2       1.0  0.4216411512393988  0.20057631401492423  0.9985007187563679  1.0000
  Tm  Tm3       1.0  0.9216403624988062  0.2994194377716681  0.0014976822568329  1.0000
  Tm  Tm4       1.0  0.5783615549479251  0.7005802858000436  0.5014973843050612  1.0000
  H   H1        1.0  0.15218542182455508  0.4368984019977944  0.2292558234593471  1.0000
  H   H2        1.0  0.3478158865031062  0.5631018699690246  0.7292604212947821  1.0000
  H   H3        1.0  0.8478137156478595  0.9369016915465238  0.270743123016338  1.0000
  H   H4        1.0  0.6521884379504784  0.06309589090098909  0.7707445406095557  1.0000
  H   H5        1.0  0.18480217199296328  0.5381757583718922  0.3229419443436186  1.0000
  H   H6        1.0  0.31519673879768106  0.4618225456665357  0.8229452299794673  1.0000
  H   H7        1.0  0.8151968231033068  0.038176183960963804  0.17705585665434845  1.0000
  H   H8        1.0  0.6848064881842362  0.961817739893469  0.6770581630633429  1.0000
  H   H9        1.0  0.3568555704357549  0.48228083110034714  0.26091997894557295  1.0000
  H   H10       1.0  0.1431470055184576  0.5177184718753197  0.7609225098995507  1.0000
  H   H11       1.0  0.6431484015472434  0.9822788418133968  0.239078943437498  1.0000
  H   H12       1.0  0.8568586836985828  0.017717834112893602  0.7390817975135917  1.0000
  H   H13       1.0  0.2691514900429368  0.8276088263190999  0.1975997386181376  1.0000
  H   H14       1.0  0.23084111153362843  0.1723942901478566  0.6975997622354979  1.0000
  H   H15       1.0  0.730834309851062  0.3276092586854915  0.3023958729553654  1.0000
  H   H16       1.0  0.7691604323819446  0.6723882925429194  0.80239496286525  1.0000
  H   H17       1.0  0.44102997879871003  0.9869553964191481  0.6053228523267291  1.0000
  H   H18       1.0  0.058977420107474594  0.0130403090365832  0.10532456164438739  1.0000
  H   H19       1.0  0.5589682195745099  0.4869616300146264  0.8946839202945253  1.0000
  H   H20       1.0  0.9410241238700292  0.5130517719906963  0.394680038547463  1.0000
  H   H21       1.0  0.5940964187049717  0.707137182971316  0.23056548066126226  1.0000
  H   H22       1.0  0.9059007402177884  0.2928745054254378  0.730566844716648  1.0000
  H   H23       1.0  0.40589343236016623  0.20712971048784107  0.269434266387151  1.0000
  H   H24       1.0  0.094105431511089  0.7928611443046305  0.7694386737830001  1.0000
  H   H25       1.0  0.5317712445752958  0.8060421857433582  0.14073434482332195  1.0000
  H   H26       1.0  0.9682233558598342  0.19396302699689721  0.6407371353771791  1.0000
  H   H27       1.0  0.4682170943929763  0.3060410925536132  0.35926534971205365  1.0000
  H   H28       1.0  0.03177440913555069  0.693953424640469  0.8592697928052004  1.0000
  H   H29       1.0  0.9521193695193234  0.5921035994917077  0.1617190252711964  1.0000
  H   H30       1.0  0.547882688457875  0.4078940905087902  0.6617229460007792  1.0000
  H   H31       1.0  0.04787699742077219  0.09211255446786029  0.3382773899222258  1.0000
  H   H32       1.0  0.4521268862310777  0.9078904232079522  0.8382804756745512  1.0000
  H   H33       1.0  0.0113188997961231  0.7509298485922146  0.14368545602821564  1.0000
  H   H34       1.0  0.4886798537766098  0.2490658190246506  0.6436875442576593  1.0000
  H   H35       1.0  0.9886708307054731  0.25093920665543823  0.3563095176690965  1.0000
  H   H36       1.0  0.5113239588074023  0.7490648556609684  0.8563146045717926  1.0000
  H   H37       1.0  0.9872914580900202  0.6945043829931452  0.2556942234727018  1.0000
  H   H38       1.0  0.5127044830357833  0.3054950898121689  0.7556975104933557  1.0000
  H   H39       1.0  0.012697187872234401  0.19450973405058386  0.24430010159807836  1.0000
  H   H40       1.0  0.48729669452421837  0.8054905230805787  0.7443046083769856  1.0000
  H   H41       1.0  0.11128218300374469  0.689095279350461  0.0089069406647937  1.0000
  H   H42       1.0  0.3887201719202551  0.3109014589785986  0.5089096476794237  1.0000
  H   H43       1.0  0.8887139169809116  0.1890962192202039  0.4910914587908407  1.0000
  H   H44       1.0  0.6112822306079407  0.8109011458540747  0.9910938254898622  1.0000
  H   H45       1.0  0.3100783884389459  0.6734557342092984  0.9590076014615716  1.0000
  H   H46       1.0  0.18992560111034612  0.3265405600873592  0.4590085010801061  1.0000
  H   H47       1.0  0.6899194329815899  0.173458363236314  0.5409905159985513  1.0000
  H   H48       1.0  0.8100787995386796  0.8265431968846638  0.04099253974362679  1.0000
  H   H49       1.0  0.2768336113208107  0.7901006138315695  0.04273508412767769  1.0000
  H   H50       1.0  0.22316753341386428  0.20989890438925576  0.542735764345565  1.0000
  H   H51       1.0  0.7231609707925557  0.2901037185519185  0.4572652974563453  1.0000
  H   H52       1.0  0.7768351471257021  0.709895555400344  0.9572677624493549  1.0000
  H   H53       1.0  0.5542314282273181  0.6170163320265728  0.053859213739080786  1.0000
  H   H54       1.0  0.9457705351419108  0.38298521539734054  0.5538591835358986  1.0000
  H   H55       1.0  0.4457636303033751  0.11701425010105032  0.4461405811560225  1.0000
  H   H56       1.0  0.05423290883567941  0.8829820568935316  0.946144251363215  1.0000
  H   H57       1.0  0.5243349937064039  0.521449801752226  0.1495675621697004  1.0000
  H   H58       1.0  0.9756682934560316  0.4785544645153195  0.6495661321232546  1.0000
  H   H59       1.0  0.4756603278701874  0.0214468302655035  0.350432283464329  1.0000
  H   H60       1.0  0.024333647619528203  0.9785467578884237  0.8504331805259042  1.0000
  C   C1        1.0  0.22843884786924207  0.5149053939529082  0.25429424762907615  1.0000
  C   C2        1.0  0.2715612425640401  0.48509485331467767  0.754297509136336  1.0000
  C   C3        1.0  0.7715589714215343  0.0149076947979978  0.24570424430820023  1.0000
  C   C4        1.0  0.7284431602159388  0.9850899123507163  0.7457058715508251  1.0000
  C   C5        1.0  0.32722394834885904  0.7519422890864648  0.3252585964864706  1.0000
  C   C6        1.0  0.17277496447280777  0.24805601266751856  0.8252599214347142  1.0000
  C   C7        1.0  0.6727645395338725  0.2519363728994932  0.17473909101776997  1.0000
  C   C8        1.0  0.8272350501526445  0.7480613042601192  0.6747395135894719  1.0000
  C   C9        1.0  0.32630766632969715  0.7409481127256754  0.22313967834505624  1.0000
  C   C10       1.0  0.17368867721191353  0.25905404078854133  0.723140319116929  1.0000
  C   C11       1.0  0.6736882909311817  0.24094865865220066  0.2768573364104085  1.0000
  C   C12       1.0  0.8263126281729994  0.7590507932722375  0.7768591100692248  1.0000
  C   C13       1.0  0.2122040101508986  0.6289907091872992  0.1908763620687637  1.0000
  C   C14       1.0  0.2877972645152552  0.3710086628888831  0.6908783313571263  1.0000
  C   C15       1.0  0.787792255268741  0.12899292236865284  0.3091227478827178  1.0000
  C   C16       1.0  0.712208692137139  0.8710046222175052  0.8091244313160643  1.0000
  C   C17       1.0  0.3364049307881913  0.9330974681708  0.576703524121541  1.0000
  C   C18       1.0  0.1636012031607734  0.066899203273671  0.07670455448751307  1.0000
  C   C19       1.0  0.6635983752420245  0.43310444951718097  0.923298526998728  1.0000
  C   C20       1.0  0.8363915135876425  0.5669117375224815  0.4232959455969691  1.0000
  C   C21       1.0  0.49801386326079466  0.7214896070497047  0.1790235293848852  1.0000
  C   C22       1.0  0.0019824415856675  0.2785144654931599  0.6790254706682501  1.0000
  C   C23       1.0  0.5019759482918645  0.22148756168350303  0.3209755314568739  1.0000
  C   C24       1.0  0.9980200500991783  0.7785052824432985  0.8209780196984651  1.0000
  C   C25       1.0  0.0298870909081757  0.6687112963816517  0.1873958637331015  1.0000
  C   C26       1.0  0.4701104611458716  0.33128526586939694  0.687397224715319  1.0000
  C   C27       1.0  0.9701065854658139  0.1687179130095373  0.3126011893727778  1.0000
  C   C28       1.0  0.5298931251326877  0.831282441407929  0.8126028447068093  1.0000
  C   C29       1.0  0.29396000712677045  0.5981470271395821  0.09621646823659087  1.0000
  C   C30       1.0  0.20604242436708387  0.4018543138275846  0.5962177205055497  1.0000
  C   C31       1.0  0.7060326236256955  0.0981492733493639  0.40378130091978887  1.0000
  C   C32       1.0  0.7939634473846623  0.9018491156115614  0.9037843472060698  1.0000
  C   C33       1.0  0.24262523454935803  0.4716693959571929  0.057433996817820784  1.0000
  C   C34       1.0  0.25737964263876734  0.528331045514399  0.557433838617321  1.0000
  C   C35       1.0  0.7573725673603987  0.9716745313442418  0.4425662883666916  1.0000
  C   C36       1.0  0.7426334564947581  0.028327570365234995  0.942564355896806  1.0000
  C   C37       1.0  0.24456404551785477  0.6940230665698549  0.022709379136784898  1.0000
  C   C38       1.0  0.2554383215077252  0.3059764714050814  0.5227113742216432  1.0000
  C   C39       1.0  0.7554320409044736  0.19402328837790614  0.47728969628789736  1.0000
  C   C40       1.0  0.7445640945782372  0.8059750280656605  0.9772927801478912  1.0000
  C   C41       1.0  0.4808891243809725  0.6073743718098399  0.11607460661674197  1.0000
  C   C42       1.0  0.0191120846711001  0.3926297628304596  0.6160744561790423  1.0000
  C   C43       1.0  0.5191059606861899  0.1073741133695236  0.38392451481189477  1.0000
  C   C44       1.0  0.9808913327662482  0.8926214819179421  0.8839269378454729  1.0000
  O   O1        1.0  0.35752972365077795  0.8154037117199947  0.5594206732182839  1.0000
  O   O2        1.0  0.14248135455851238  0.1845920390165503  0.05942163539902619  1.0000
  O   O3        1.0  0.6424788657472719  0.3154088331686822  0.9405780474640435  1.0000
  O   O4        1.0  0.8575221969295511  0.6846054613079032  0.4405754092748991  1.0000
  O   O5        1.0  0.45086106058310793  0.710930439766507  0.3698647398148082  1.0000
  O   O6        1.0  0.04914161092191449  0.28906969348778944  0.8698660096308969  1.0000
  O   O7        1.0  0.5491250604758521  0.21092569650120652  0.13013839814415454  1.0000
  O   O8        1.0  0.9508695306784106  0.7890692114003958  0.6301374751306452  1.0000
  O   O9        1.0  0.1996404070466724  0.7995230670373985  0.3636060916364343  1.0000
  O   O10       1.0  0.3003597792698258  0.20046957036234397  0.8636054405154923  1.0000
  O   O11       1.0  0.8003442303084328  0.29951511591295343  0.13638614192485218  1.0000
  O   O12       1.0  0.6996491264730906  0.7004788480714764  0.636386555335754  1.0000
  O   O13       1.0  0.1992571237681986  0.9849253675181444  0.5617067602105761  1.0000
  O   O14       1.0  0.3007489970306878  0.0150694432122691  0.06170921226728149  1.0000
  O   O15       1.0  0.8007472794609923  0.48493212201614716  0.9382939062228883  1.0000
  O   O16       1.0  0.6992475819342729  0.5150868634883565  0.43829131533414056  1.0000
  O   O17       1.0  0.3548792519092244  0.4003597006758638  0.025065519590249597  1.0000
  O   O18       1.0  0.1451243570325644  0.5996435859890069  0.5250686861676923  1.0000
  O   O19       1.0  0.6451088274470748  0.9003621644407926  0.4749334462834724  1.0000
  O   O20       1.0  0.8548910255310674  0.09963615432552334  0.9749342205821774  1.0000
  O   O21       1.0  0.08874322491769253  0.4461410404637648  0.054136737627750585  1.0000
  O   O22       1.0  0.41126288923612714  0.5538565909984358  0.5541352502224441  1.0000
  O   O23       1.0  0.9112509276967343  0.9461459346719395  0.4458662754505481  1.0000
  O   O24       1.0  0.5887538591898435  0.0538608525551751  0.945859537812261  1.0000
