data_image0
_chemical_formula_structural       Cu6H20C24Br4N4O12
_chemical_formula_sum              "Cu6 H20 C24 Br4 N4 O12"
_cell_length_a       7.095297134654535
_cell_length_b       10.178192628781575
_cell_length_c       13.093855313380589
_cell_angle_alpha    89.88432744053686
_cell_angle_beta     89.97179895746189
_cell_angle_gamma    112.67721160152064

_space_group_name_H-M_alt    "P 1"
_space_group_IT_number       1

loop_
  _space_group_symop_operation_xyz
  'x, y, z'

loop_
  _atom_site_type_symbol
  _atom_site_label
  _atom_site_symmetry_multiplicity
  _atom_site_fract_x
  _atom_site_fract_y
  _atom_site_fract_z
  _atom_site_occupancy
  Cu  Cu1       1.0  0.24448313216869613  0.19312822742359967  0.679296790369328  1.0000
  Cu  Cu2       1.0  0.2560785330092302  0.8081512611021324  0.17856307798495413  1.0000
  Cu  Cu3       1.0  0.7562369166275433  0.8069708769168712  0.3208371303682966  1.0000
  Cu  Cu4       1.0  0.7445088896373518  0.1923174751891494  0.8216232839458117  1.0000
  Cu  Cu5       1.0  0.0011095557097748816  0.999604321171752  0.49870732808854273  1.0000
  Cu  Cu6       1.0  0.4998301420891238  0.000183874245799104  0.9997957936290904  1.0000
  H   H1        1.0  0.27564207191390033  0.9907909695774465  0.5996701698587473  1.0000
  H   H2        1.0  0.22245980807342391  0.009455059151854102  0.09751924563582288  1.0000
  H   H3        1.0  0.723719610323606  0.008476038078001126  0.40029507311167833  1.0000
  H   H4        1.0  0.7777370913897599  0.9912929657755997  0.9020391988306715  1.0000
  H   H5        1.0  0.3690149343738867  0.7944851970112338  0.3969636715935962  1.0000
  H   H6        1.0  0.13083998206488456  0.20622409701937985  0.8975744221997034  1.0000
  H   H7        1.0  0.6312442705827336  0.20536490698845  0.6031880838582353  1.0000
  H   H8        1.0  0.869133900814191  0.7939291987732489  0.1024442681606956  1.0000
  H   H9        1.0  0.33575958378102655  0.599848579594827  0.5214915562143078  1.0000
  H   H10       1.0  0.16400084815754926  0.4004371596514602  0.021833647860113107  1.0000
  H   H11       1.0  0.6640935950616509  0.39994092552289107  0.47858394492320144  1.0000
  H   H12       1.0  0.8361304562204738  0.5996983312391321  0.9782056484864513  1.0000
  H   H13       1.0  0.981616706783683  0.29706518113008684  0.2957576885295197  1.0000
  H   H14       1.0  0.5176783638772238  0.7040500646986345  0.7952507151709513  1.0000
  H   H15       1.0  0.01810884620555696  0.7030386946701837  0.7041946395503372  1.0000
  H   H16       1.0  0.48260718082121923  0.29610466931013957  0.20480305004392826  1.0000
  H   H17       1.0  0.04016196429144976  0.503805136483983  0.17743543681735474  1.0000
  H   H18       1.0  0.45896195015347996  0.4977138264385205  0.6771550300514022  1.0000
  H   H19       1.0  0.9598749617687047  0.49639418536328617  0.8225923723044276  1.0000
  H   H20       1.0  0.5409191386825327  0.5024248288031359  0.3228415399366824  1.0000
  C   C1        1.0  0.2867735237932082  0.6829747320342534  0.3772331346153379  1.0000
  C   C2        1.0  0.2129477254442307  0.3177783712525438  0.8775794164462597  1.0000
  C   C3        1.0  0.7132636501508997  0.3169256467191559  0.6228850185810161  1.0000
  C   C4        1.0  0.7870870004506898  0.6823908238707616  0.12245758039490791  1.0000
  C   C5        1.0  0.2656465584486086  0.574257482223608  0.4464238402415432  1.0000
  C   C6        1.0  0.23412229905125767  0.42629339339383415  0.9466362463832567  1.0000
  C   C7        1.0  0.7341859981910446  0.42556803074490546  0.5536646205836463  1.0000
  C   C8        1.0  0.7660527391250227  0.5738797523313722  0.05342210677809331  1.0000
  C   C9        1.0  0.15604292883962503  0.4329994744614538  0.4177675107184485  1.0000
  C   C10       1.0  0.3436298251042731  0.5676282223519422  0.9176960104179133  1.0000
  C   C11       1.0  0.843748736583706  0.5668703386587737  0.5822346238377349  1.0000
  C   C12       1.0  0.6566181980356589  0.43255323168893517  0.08239439971978162  1.0000
  C   C13       1.0  0.06871013405681481  0.40591520990675173  0.3203759164766637  1.0000
  C   C14       1.0  0.4307118840111387  0.5951100944757072  0.8201064339672401  1.0000
  C   C15       1.0  0.9310834170911947  0.5941511732226277  0.679619959764608  1.0000
  C   C16       1.0  0.5694565109793642  0.40504508341739853  0.1799557525060465  1.0000
  C   C17       1.0  0.09930307997932894  0.5197184517372264  0.254963923284599  1.0000
  C   C18       1.0  0.39995447143800794  0.4815056764279858  0.7548179718744521  1.0000
  C   C19       1.0  0.9006675462596051  0.48041498341917344  0.7450715844155413  1.0000
  C   C20       1.0  0.5999860594339099  0.5186425970315937  0.2451946184260549  1.0000
  C   C21       1.0  0.13479301926063417  0.30992119337417284  0.4873310704135534  1.0000
  C   C22       1.0  0.3651187240602809  0.6903454889322234  0.9872056509142908  1.0000
  C   C23       1.0  0.8654890855780978  0.6896167602323188  0.5122954787061005  1.0000
  C   C24       1.0  0.6349047047211372  0.30983640767175297  0.012884798574496903  1.0000
  Br  Br1       1.0  0.32064069434213843  0.0344694369438159  0.800016137146571  1.0000
  Br  Br2       1.0  0.17937596614103063  0.9670303039933045  0.2989943587501713  1.0000
  Br  Br3       1.0  0.677608387751981  0.9654952775052902  0.20054294851983206  1.0000
  Br  Br4       1.0  0.8200599226673193  0.032485367831739616  0.7020337784434433  1.0000
  N   N1        1.0  0.20771823629846864  0.6558073610671045  0.28223057645310945  1.0000
  N   N2        1.0  0.2918018175445738  0.3452919138934901  0.7824305838881218  1.0000
  N   N3        1.0  0.7924245605785388  0.34427496672385155  0.7178477075514067  1.0000
  N   N4        1.0  0.7081265619362114  0.6548639377396911  0.2175758931038914  1.0000
  O   O1        1.0  0.020449287946824834  0.1883839172560613  0.45321539997083  1.0000
  O   O2        1.0  0.48059966463610965  0.8119020711180767  0.9532318655773226  1.0000
  O   O3        1.0  0.9809374736238612  0.8112427521646096  0.5457892209517183  1.0000
  O   O4        1.0  0.5198901188752245  0.1882827394275211  0.0470425552463354  1.0000
  O   O5        1.0  0.23222337107551283  0.3381548856690629  0.5709379662978051  1.0000
  O   O6        1.0  0.26664460777035986  0.6619551716241575  0.07062528317618441  1.0000
  O   O7        1.0  0.7676829672072503  0.6611284516711322  0.4288308927029619  1.0000
  O   O8        1.0  0.7323548117755223  0.33818760155314453  0.9291560711377899  1.0000
  O   O9        1.0  0.2624974635633635  0.07436012253023698  0.5685226957110672  1.0000
  O   O10       1.0  0.23527019876831218  0.9255595924543986  0.06693955203265742  1.0000
  O   O11       1.0  0.7363267237148394  0.9249856595516375  0.4319084505454569  1.0000
  O   O12       1.0  0.7651135933948016  0.07489012189725493  0.9332460965063518  1.0000
