data_image0
_chemical_formula_structural       Zn2H44C40S4N12
_chemical_formula_sum              "Zn2 H44 C40 S4 N12"
_cell_length_a       9.934940607685784
_cell_length_b       10.889586486532675
_cell_length_c       11.445
_cell_angle_alpha    71.52031918849389
_cell_angle_beta     74.31488225169704
_cell_angle_gamma    85.95861761624086

_space_group_name_H-M_alt    "P 1"
_space_group_IT_number       1

loop_
  _space_group_symop_operation_xyz
  'x, y, z'

loop_
  _atom_site_type_symbol
  _atom_site_label
  _atom_site_symmetry_multiplicity
  _atom_site_fract_x
  _atom_site_fract_y
  _atom_site_fract_z
  _atom_site_occupancy
  Zn  Zn1       1.0  0.3317607342437939  0.2534918602523391  0.3221138203648907  1.0000
  Zn  Zn2       1.0  0.6682389050648113  0.746508796301768  0.677884406161006  1.0000
  H   H1        1.0  0.9182360738784964  0.22360702803480592  0.4165427577880437  1.0000
  H   H2        1.0  0.0817656389668073  0.7763926601504139  0.5834587691424744  1.0000
  H   H3        1.0  0.8533764998030833  0.0484717046320142  0.3468943386065106  1.0000
  H   H4        1.0  0.1466241501385355  0.9515270151843183  0.6531077298131578  1.0000
  H   H5        1.0  0.06657725740245721  0.3014551712187483  0.5150135603430359  1.0000
  H   H6        1.0  0.9334233751156091  0.6985425802286969  0.48498705672430015  1.0000
  H   H7        1.0  0.9957678888451228  0.2070498568071955  0.6752038116543988  1.0000
  H   H8        1.0  0.004233806576628802  0.792948863009137  0.3247980114117794  1.0000
  H   H9        1.0  0.0727531574339579  0.2061173175691451  0.8621324193529034  1.0000
  H   H10       1.0  0.9272474750841084  0.7938804338783  0.13786557648245426  1.0000
  H   H11       1.0  0.17841020789022372  0.0765873268932395  0.9267271641113268  1.0000
  H   H12       1.0  0.821592515588101  0.9234104245542056  0.07327034101703608  1.0000
  H   H13       1.0  0.051507820819288994  0.05044427205455549  0.8522925467916097  1.0000
  H   H14       1.0  0.9484969936193012  0.9495534793928896  0.14770359388576543  1.0000
  H   H15       1.0  0.44550528687813806  0.1097074795617843  0.7681649984041388  1.0000
  H   H16       1.0  0.5544974714472986  0.8902922086234355  0.231833661940911  1.0000
  H   H17       1.0  0.6153967453590141  0.0675747176631916  0.5022273574633476  1.0000
  H   H18       1.0  0.3846060826606533  0.9324288439975773  0.49776924459509786  1.0000
  H   H19       1.0  0.6528765526689712  0.21344205982938996  0.5239057172966142  1.0000
  H   H20       1.0  0.3471251950234517  0.7865595650936044  0.47609346987461987  1.0000
  H   H21       1.0  0.5954695281538847  0.2192687354216574  0.38827956789825185  1.0000
  H   H22       1.0  0.40453223696209045  0.7807338578702243  0.6117184493933365  1.0000
  H   H23       1.0  0.2519593368404003  0.5296164381284783  0.49182751775084205  1.0000
  H   H24       1.0  0.7480361379712335  0.47038518679451613  0.5081731415413699  1.0000
  H   H25       1.0  0.3102720528117687  0.4852244716168316  0.6957814461265173  1.0000
  H   H26       1.0  0.6897234219998581  0.5147771533061629  0.30422008690969454  1.0000
  H   H27       1.0  0.32191400922705077  0.5351090264547764  0.26934077084387553  1.0000
  H   H28       1.0  0.6780835216977293  0.4648906617304434  0.7306591162686545  1.0000
  H   H29       1.0  0.4464321141835441  0.6630789748539385  0.20335885471054377  1.0000
  H   H30       1.0  0.553565416741236  0.3369207133312742  0.7966419061459791  1.0000
  H   H31       1.0  0.5996045013839648  0.7396701752227273  0.0017883579446972982  1.0000
  H   H32       1.0  0.4003951030775212  0.2603285445936052  0.9982130820844759  1.0000
  H   H33       1.0  0.7734262760259228  0.6907007289828684  0.9489867042229106  1.0000
  H   H34       1.0  0.22657439133925553  0.3092989592023514  0.0510133205731265  1.0000
  H   H35       1.0  0.7109250533417324  0.7044535039141238  0.10542035655346642  1.0000
  H   H36       1.0  0.2890735230631805  0.295546184271096  0.8945801589495588  1.0000
  H   H37       1.0  0.8014568369166923  0.4315594046445598  0.9751569519085947  1.0000
  H   H38       1.0  0.19854278496835323  0.5684402835406601  0.02484331824093289  1.0000
  H   H39       1.0  0.6025527383115304  0.1172975548970285  0.22374172016840532  1.0000
  H   H40       1.0  0.3974458380933825  0.8827021332881914  0.7762579215906272  1.0000
  H   H41       1.0  0.756536237038219  0.1694742388901886  0.09648855730303309  1.0000
  H   H42       1.0  0.24346232194313444  0.8305244809261438  0.9035113805916525  1.0000
  H   H43       1.0  0.5945037139002309  0.1583273446334843  0.06392069417790217  1.0000
  H   H44       1.0  0.4054959079848147  0.8416723435517283  0.9360795759716255  1.0000
  C   C1        1.0  0.9536642848307866  0.1253514789290833  0.45390378844536633  1.0000
  C   C2        1.0  0.0463363651108395  0.8746472408872492  0.5460965324863167  1.0000
  C   C3        1.0  0.9181444370965722  0.0267647476640533  0.41402354180009854  1.0000
  C   C4        1.0  0.08185621284504661  0.9732339721522792  0.5859767791315846  1.0000
  C   C5        1.0  0.0358597845881405  0.0994669785831945  0.5404288398587483  1.0000
  C   C6        1.0  0.9641398198733526  0.900531741233138  0.45957260017042517  1.0000
  C   C7        1.0  0.0712982842121619  0.20654824172380157  0.585211516314665  1.0000
  C   C8        1.0  0.9287055021698549  0.7934504780925309  0.41478981604451104  1.0000
  C   C9        1.0  0.12992721975210486  0.11953351865680162  0.8477385918526609  1.0000
  C   C10       1.0  0.8700744582460871  0.8804642327906436  0.15226090611718493  1.0000
  C   C11       1.0  0.2395317142033662  0.150592013965209  0.7240084446023899  1.0000
  C   C12       1.0  0.7604710441220704  0.8494076742200036  0.2759902157426525  1.0000
  C   C13       1.0  0.3841566006709343  0.1393463460820499  0.6988014548771916  1.0000
  C   C14       1.0  0.6158472031346349  0.8606533421031628  0.30119696011436053  1.0000
  C   C15       1.0  0.43542554959936547  0.1720985185735913  0.5654617252004571  1.0000
  C   C16       1.0  0.564577208726071  0.8279011696116285  0.43453606140059986  1.0000
  C   C17       1.0  0.5823151291503094  0.1683005757993072  0.4899699173637658  1.0000
  C   C18       1.0  0.4176866185421133  0.8317010491236871  0.5100283960634755  1.0000
  C   C19       1.0  0.3613432498505631  0.5173869074562631  0.4942160031811796  1.0000
  C   C20       1.0  0.6386532530176369  0.4826137490978439  0.5057847068931879  1.0000
  C   C21       1.0  0.3944768633927254  0.4906725149743281  0.6103894212721103  1.0000
  C   C22       1.0  0.6055186114189012  0.5093291099486663  0.3896112380201019  1.0000
  C   C23       1.0  0.4669677475608439  0.5274192091241829  0.38228795976057484  1.0000
  C   C24       1.0  0.533027692403671  0.47258047906103673  0.6177132918029429  1.0000
  C   C25       1.0  0.43160744739154216  0.5590248328536731  0.2555333143312027  1.0000
  C   C26       1.0  0.5683911115898113  0.4409738869626594  0.7444674973074755  1.0000
  C   C27       1.0  0.6824089891280778  0.6751351674954051  0.031637785805145285  1.0000
  C   C28       1.0  0.317591660813541  0.3248635523209273  0.9683616613825522  1.0000
  C   C29       1.0  0.6382605610653727  0.5365005725452008  0.07934224883339165  1.0000
  C   C30       1.0  0.36173801533954025  0.463499115640019  0.9206591404136263  1.0000
  C   C31       1.0  0.7034569457042396  0.4305871622821513  0.046098430462116396  1.0000
  C   C32       1.0  0.2965416307006734  0.5694125259030685  0.9539029587849016  1.0000
  C   C33       1.0  0.6193409800585172  0.3219419833892516  0.12487378215925557  1.0000
  C   C34       1.0  0.3806586418265283  0.6780577047959611  0.8751256142462793  1.0000
  C   C35       1.0  0.643922518739906  0.1847657519826669  0.12798876375576637  1.0000
  C   C36       1.0  0.3560760402414473  0.8152329678336656  0.872011174138919  1.0000
  C   C37       1.0  0.08725807085385641  0.4408605878028951  0.26367444537267914  1.0000
  C   C38       1.0  0.9127405403981684  0.5591410371200922  0.7363298465790039  1.0000
  C   C39       1.0  0.3002623935661006  0.0200742870247055  0.22996865356740415  1.0000
  C   C40       1.0  0.6997362002623646  0.9799263695294016  0.7700306920559754  1.0000
  S   S1        1.0  0.27614280444599604  0.9122112383776154  0.16799618432550298  1.0000
  S   S2        1.0  0.7238536984222109  0.0877894181764916  0.832003652004872  1.0000
  S   S3        1.0  0.9647265050912069  0.5393553240236741  0.23166436413196584  1.0000
  S   S4        1.0  0.0352721061608179  0.4606463008993131  0.7683355590997608  1.0000
  N   N1        1.0  0.17860295528208783  0.3685902494072977  0.2872268793915112  1.0000
  N   N2        1.0  0.8213956908170559  0.6314133122534642  0.7127768202888731  1.0000
  N   N3        1.0  0.321317907175434  0.0987242396469696  0.2752211006268652  1.0000
  N   N4        1.0  0.6786786305398849  0.9012783536449119  0.724777269688211  1.0000
  N   N5        1.0  0.20912553215976712  0.1921689321227475  0.6087851405025689  1.0000
  N   N6        1.0  0.7908772087421099  0.8078297876935849  0.39121468972212636  1.0000
  N   N7        1.0  0.3277972887999354  0.20398400091138308  0.5109980037021558  1.0000
  N   N8        1.0  0.6722033785652358  0.7960156872738366  0.4890011473498889  1.0000
  N   N9        1.0  0.507248356545091  0.3588155338632859  0.2032893803153186  1.0000
  N   N10       1.0  0.49275124791639513  0.6411831859530466  0.796711185969862  1.0000
  N   N11       1.0  0.5195772738202251  0.49040137168600484  0.173168523407746  1.0000
  N   N12       1.0  0.4804223480648204  0.5095983164992148  0.8268326204857745  1.0000
