data_image0
_chemical_formula_structural       Ni4H168C122N24O24
_chemical_formula_sum              "Ni4 H168 C122 N24 O24"
_cell_length_a       9.03212764064918
_cell_length_b       18.90068633567284
_cell_length_c       23.165081456293862
_cell_angle_alpha    89.50989934487981
_cell_angle_beta     79.28904507530763
_cell_angle_gamma    76.59694610939806

_space_group_name_H-M_alt    "P 1"
_space_group_IT_number       1

loop_
  _space_group_symop_operation_xyz
  'x, y, z'

loop_
  _atom_site_type_symbol
  _atom_site_label
  _atom_site_symmetry_multiplicity
  _atom_site_fract_x
  _atom_site_fract_y
  _atom_site_fract_z
  _atom_site_occupancy
  Ni  Ni1       1.0  0.9999970162790036  0.5000010833388302  0.4999989279094095  1.0000
  Ni  Ni2       1.0  0.49999751336392256  0.9999991800964096  4.789971228850075e-07  1.0000
  Ni  Ni3       1.0  0.4999980794137998  0.9999994482065018  0.5000005096655756  1.0000
  Ni  Ni4       1.0  0.4999927283347106  0.5000014397761844  1.3030229765989634e-06  1.0000
  H   H1        1.0  0.5089413483319873  0.8835110731286446  0.4487012677391676  1.0000
  H   H2        1.0  0.08190792369913424  0.4046669834943372  0.5704044776394142  1.0000
  H   H3        1.0  0.6698072886467871  0.6340314145343555  0.7285891385019313  1.0000
  H   H4        1.0  0.5010400208986071  0.6714151250952296  0.783010225503233  1.0000
  H   H5        1.0  0.849915258109576  0.7071871273733732  0.6879821491161453  1.0000
  H   H6        1.0  0.7017039204190998  0.7642339720478543  0.6554706119478624  1.0000
  H   H7        1.0  0.3023652019191374  0.7310276849129805  0.6263631958731253  1.0000
  H   H8        1.0  0.16995669038660569  0.648235662710654  0.5830251836632954  1.0000
  H   H9        1.0  0.34170087278045  0.4782147984243182  0.6936108466641286  1.0000
  H   H10       1.0  0.4834788477550449  0.5586339237072621  0.7353335393749915  1.0000
  H   H11       1.0  0.9311184555640397  0.7520211463186184  0.5969310802698118  1.0000
  H   H12       1.0  0.15593533367430737  0.7802060242519316  0.5279523794696743  1.0000
  H   H13       1.0  0.1848495961796814  0.9426530886993093  0.6506119031051726  1.0000
  H   H14       1.0  0.9691449117237738  0.9108201504183311  0.7226756864161246  1.0000
  H   H15       1.0  0.8489433442412919  0.3679518733769029  0.610564854362444  1.0000
  H   H16       1.0  0.7744333736130218  0.4010050244924058  0.5469712231044355  1.0000
  H   H17       1.0  0.12094491703590658  0.5070884195022103  0.36682238729815003  1.0000
  H   H18       1.0  0.3183290513735671  0.509496999261863  0.3646501075337909  1.0000
  H   H19       1.0  0.3686203854271993  0.49751372732266225  0.47985735144504105  1.0000
  H   H20       1.0  0.456692283733446  0.43529323853556434  0.419215580426922  1.0000
  H   H21       1.0  0.5124901823847312  0.37171442420797257  0.5049349016204232  1.0000
  H   H22       1.0  0.32132634752468203  0.4010812137436588  0.5447761395887625  1.0000
  H   H23       1.0  0.09194085510401358  0.3965118656911243  0.3980128614717486  1.0000
  H   H24       1.0  0.29990881796997115  0.36665711335604095  0.37878336739676405  1.0000
  H   H25       1.0  0.08018965459205425  0.28707400314128506  0.527582265060559  1.0000
  H   H26       1.0  0.9666600492546354  0.33638026613917293  0.4784070921434989  1.0000
  H   H27       1.0  0.44063963584100924  0.28994074480108617  0.4415183698894012  1.0000
  H   H28       1.0  0.3484178347270941  0.2756157761502748  0.513141267816046  1.0000
  H   H29       1.0  0.5021067196439405  0.9170114222850432  0.608442306729451  1.0000
  H   H30       1.0  0.6843942038899372  0.9061431012831133  0.6324658733856339  1.0000
  H   H31       1.0  0.7522219617840803  0.008239516238099001  0.6702822832831643  1.0000
  H   H32       1.0  0.6410234053443631  0.09719929445014232  0.6624061181690166  1.0000
  H   H33       1.0  0.8972082984243812  0.05553308971266089  0.5861807942806507  1.0000
  H   H34       1.0  0.7297197620011957  0.09029798115965798  0.5565191067630195  1.0000
  H   H35       1.0  0.870747170846798  0.9801742043806809  0.4998425259623573  1.0000
  H   H36       1.0  0.9031141250825531  0.9316679200258727  0.5642719567238359  1.0000
  H   H37       1.0  0.6344069541893589  0.8423993132656377  0.5309606532973987  1.0000
  H   H38       1.0  0.8347199710146288  0.8402604058875055  0.5247632519649343  1.0000
  H   H39       1.0  0.8199274996475129  0.9129006672997662  0.43162062201549395  1.0000
  H   H40       1.0  0.7793660479242208  0.8256366242928905  0.4263589677020222  1.0000
  H   H41       1.0  0.6826177671652901  0.969193047252318  0.3651847477948849  1.0000
  H   H42       1.0  0.6167105935573364  0.892520914291232  0.3445219450497561  1.0000
  H   H43       1.0  0.34521051686851223  0.6161039603207356  0.0511731974248946  1.0000
  H   H44       1.0  0.5637248283713846  0.09141247839895779  0.930922213515153  1.0000
  H   H45       1.0  0.5380224122233912  0.866230085353642  0.7696753503627037  1.0000
  H   H46       1.0  0.45852279578647887  0.8290672394846863  0.7147920806277526  1.0000
  H   H47       1.0  0.7477298539676555  0.7925966190990577  0.8114251845503233  1.0000
  H   H48       1.0  0.6226669994395521  0.7356216918471431  0.843069131275371  1.0000
  H   H49       1.0  0.16330130303105533  0.7681311068467378  0.8686338905112123  1.0000
  H   H50       1.0  0.9079089974971238  0.8509470966348118  0.9111406144281347  1.0000
  H   H51       1.0  0.024709733300483115  0.022001091423362595  0.8029446206165431  1.0000
  H   H52       1.0  0.28573996025239273  0.9418610386043156  0.7624754315790697  1.0000
  H   H53       1.0  0.7839789034717414  0.7475881238860751  0.9024605954479057  1.0000
  H   H54       1.0  0.9698623660139063  0.7197165326698708  0.9716513429778076  1.0000
  H   H55       1.0  0.2752870219516554  0.5577953130606729  0.8490499914676093  1.0000
  H   H56       1.0  0.09815615063564578  0.5894711726457301  0.7766784349612622  1.0000
  H   H57       1.0  0.33979252707554514  0.1304211882294553  0.8882114566922966  1.0000
  H   H58       1.0  0.2294865516597682  0.09744937684332909  0.9501380166385686  1.0000
  H   H59       1.0  0.48934930137513566  0.9947740147004112  0.13327462984562288  1.0000
  H   H60       1.0  0.6860086405832253  0.9940658434927622  0.13676790938472294  1.0000
  H   H61       1.0  0.8389531369034701  0.0022560145717065  0.02008343012570182  1.0000
  H   H62       1.0  0.8080468670702318  0.0640313708805635  0.0812907898768458  1.0000
  H   H63       1.0  0.8880528754480821  0.12751637088012296  0.9961704477699772  1.0000
  H   H64       1.0  0.764442686750165  0.09914831718435119  0.9553211926292351  1.0000
  H   H65       1.0  0.38567196088306593  0.10404836993573237  0.10073407797509763  1.0000
  H   H66       1.0  0.5466703413090245  0.1326928963025154  0.12147363185990663  1.0000
  H   H67       1.0  0.4005461444589927  0.20939933324773105  0.9699126179486939  1.0000
  H   H68       1.0  0.2866839478204213  0.16083182910247726  0.0196795231899642  1.0000
  H   H69       1.0  0.6763337152402259  0.20970595647656146  0.05931662463279249  1.0000
  H   H70       1.0  0.6398686514668485  0.2248593993411632  0.9875977142695122  1.0000
  H   H71       1.0  0.5263992873062335  0.5830685803715668  0.8915657077207442  1.0000
  H   H72       1.0  0.7208503358906458  0.5944228792866538  0.8681061413921611  1.0000
  H   H73       1.0  0.924907284132211  0.49279760263031835  0.8304690343750352  1.0000
  H   H74       1.0  0.8936656875864274  0.40360453704698773  0.83803567687346  1.0000
  H   H75       1.0  0.034833533948116786  0.44583821895675874  0.9146953909779044  1.0000
  H   H76       1.0  0.8736706705330946  0.4102643264795701  0.9439566389540772  1.0000
  H   H77       1.0  0.8508725349615177  0.5204623736372013  0.001026341082159407  1.0000
  H   H78       1.0  0.8978722924113498  0.5692862992766833  0.9368049958867175  1.0000
  H   H79       1.0  0.5102194757142727  0.657613433328116  0.9693507212324947  1.0000
  H   H80       1.0  0.7017931017059738  0.6602399232924371  0.9762455372369417  1.0000
  H   H81       1.0  0.6676040749561595  0.58721484927716  0.0691785808531549  1.0000
  H   H82       1.0  0.5368216003881942  0.6743486393214794  0.0742786385743344  1.0000
  H   H83       1.0  0.5208640381003634  0.5309931424495246  0.1353634750992754  1.0000
  H   H84       1.0  0.36006512610863717  0.6074216919021109  0.15547478560871045  1.0000
  H   H85       1.0  0.49105816142180464  0.11648909955679437  0.551300082662344  1.0000
  H   H86       1.0  0.9180908195050038  0.5953348255725643  0.4295934645503081  1.0000
  H   H87       1.0  0.3301908155287024  0.36596494412941627  0.2714101704216533  1.0000
  H   H88       1.0  0.4989563976709661  0.3285823194112467  0.2169896273138718  1.0000
  H   H89       1.0  0.15008680420169188  0.29281032900997417  0.3120164465335407  1.0000
  H   H90       1.0  0.298294488803208  0.23576402200172453  0.3445282358780446  1.0000
  H   H91       1.0  0.6976487232688272  0.26896870809932943  0.3736315556148995  1.0000
  H   H92       1.0  0.8300468258002097  0.3517634326182986  0.41697157564120607  1.0000
  H   H93       1.0  0.6582831750702525  0.5217869784871993  0.3063915744221433  1.0000
  H   H94       1.0  0.5165046189370205  0.4413667620641488  0.2646693593681205  1.0000
  H   H95       1.0  0.06888438102011216  0.24797467413880267  0.40307049135549283  1.0000
  H   H96       1.0  0.8440650179034891  0.2197946944168194  0.4720493411881463  1.0000
  H   H97       1.0  0.8151300455209594  0.05735304098033821  0.34938778187934355  1.0000
  H   H98       1.0  0.030837809630412504  0.08918435091052149  0.2773237918128544  1.0000
  H   H99       1.0  0.1510618092541949  0.6320483111854  0.38943523887164844  1.0000
  H   H100      1.0  0.22556640452936  0.5989946034917821  0.45303054297406936  1.0000
  H   H101      1.0  0.8790585740233468  0.49291285226943427  0.6331769531209802  1.0000
  H   H102      1.0  0.6816727174215486  0.4905031782654277  0.6353506535535232  1.0000
  H   H103      1.0  0.6313745850321695  0.5024842565030951  0.5201451898872165  1.0000
  H   H104      1.0  0.5433072202550165  0.5647047558849893  0.580784917804614  1.0000
  H   H105      1.0  0.4875048054789772  0.6282813827195356  0.495065490833376  1.0000
  H   H106      1.0  0.6786658445205093  0.5989156777444932  0.4552240108252477  1.0000
  H   H107      1.0  0.9080547795115664  0.6034893920950637  0.6019857320120323  1.0000
  H   H108      1.0  0.700085109827917  0.6333430510968868  0.6212157822828744  1.0000
  H   H109      1.0  0.9198048466412558  0.7129272519962057  0.47241683919839533  1.0000
  H   H110      1.0  0.033331909102308564  0.6636215279466172  0.5215930502249863  1.0000
  H   H111      1.0  0.5593545623033692  0.7100566971412547  0.5584799110610916  1.0000
  H   H112      1.0  0.6515718762275283  0.7243816579305359  0.4868564628182028  1.0000
  H   H113      1.0  0.4978896853287437  0.08299255519388991  0.39156183154222657  1.0000
  H   H114      1.0  0.3156024926410056  0.0938603328612047  0.3675373838545469  1.0000
  H   H115      1.0  0.2477815485290549  0.9917661125188534  0.3297183292397463  1.0000
  H   H116      1.0  0.3589784213207637  0.9028052423401789  0.3375937538412829  1.0000
  H   H117      1.0  0.10279071893367588  0.9444703529178752  0.41381841575604034  1.0000
  H   H118      1.0  0.27027895607537294  0.9097060043499423  0.4434814165413243  1.0000
  H   H119      1.0  0.12924648660460747  0.0198286825828262  0.5001574924464266  1.0000
  H   H120      1.0  0.0968868288656708  0.0683360689589492  0.4357292739747933  1.0000
  H   H121      1.0  0.3655883193589347  0.1576024837552623  0.4690427113433202  1.0000
  H   H122      1.0  0.16527584703408144  0.1597403021864423  0.4752405117936149  1.0000
  H   H123      1.0  0.18007338098425413  0.08709896151093939  0.5683823622324767  1.0000
  H   H124      1.0  0.22063200599613705  0.1743640872562793  0.5736455034508126  1.0000
  H   H125      1.0  0.3173839590979243  0.0308114836159135  0.6348207432855162  1.0000
  H   H126      1.0  0.3832940057566248  0.10748253657181549  0.6554794657088152  1.0000
  H   H127      1.0  0.6547892458274235  0.38389566675236597  0.9488294331259297  1.0000
  H   H128      1.0  0.4362820184532341  0.908586620776184  0.06907690358926291  1.0000
  H   H129      1.0  0.4619813125241096  0.13376628382036418  0.23032399810194457  1.0000
  H   H130      1.0  0.5414795194669325  0.17092967128631642  0.2852077951712459  1.0000
  H   H131      1.0  0.25227613950228533  0.20739757756301455  0.1885718579578253  1.0000
  H   H132      1.0  0.3773392469725395  0.26437195920258455  0.15692919138209763  1.0000
  H   H133      1.0  0.8367013307577408  0.23186961803050107  0.13136594412392816  1.0000
  H   H134      1.0  0.09209590882154836  0.14905581180470756  0.08885905082662049  1.0000
  H   H135      1.0  0.9753044969342998  0.9779969369747618  0.19704966977380425  1.0000
  H   H136      1.0  0.7142666375458618  0.05813425056449968  0.23751983656374887  1.0000
  H   H137      1.0  0.21603151721806318  0.25241534933137194  0.09752961671152602  1.0000
  H   H138      1.0  0.030146367112102772  0.2802902041996162  0.028340697481276305  1.0000
  H   H139      1.0  0.7247093464711298  0.44219777263832327  0.150950318190354  1.0000
  H   H140      1.0  0.9018429943517605  0.41051647150732146  0.2233208446326955  1.0000
  H   H141      1.0  0.6602154241963376  0.8695757339628758  0.11178759417544631  1.0000
  H   H142      1.0  0.7705219962172051  0.9025486374002014  0.04985969210000725  1.0000
  H   H143      1.0  0.5106623087510515  0.0052245480905668  0.8667250210158741  1.0000
  H   H144      1.0  0.31400269538902853  0.0059310857345807  0.8632304736298053  1.0000
  H   H145      1.0  0.16105681655181314  0.9977458136934915  0.9799163200908012  1.0000
  H   H146      1.0  0.19195942753075482  0.9359688167859872  0.918708360345903  1.0000
  H   H147      1.0  0.11194866933989536  0.8724865318910275  0.0038285886295100014  1.0000
  H   H148      1.0  0.23555742733194077  0.9008529480078307  0.0446783834069464  1.0000
  H   H149      1.0  0.6143328663538203  0.8959480000647984  0.8992664886590234  1.0000
  H   H150      1.0  0.4533356482451366  0.8673056559782211  0.8785259794605196  1.0000
  H   H151      1.0  0.5994564681180208  0.790599212453543  0.03008722898879062  1.0000
  H   H152      1.0  0.7133186512680397  0.8391645378783679  0.980319903813708  1.0000
  H   H153      1.0  0.32366440046592265  0.7902947587169676  0.94068438863075  1.0000
  H   H154      1.0  0.36012861469207313  0.7751407694135037  0.012403360973877396  1.0000
  H   H155      1.0  0.4736001895967733  0.4169337683010284  0.1084386560315522  1.0000
  H   H156      1.0  0.2791513633954495  0.40557729414073407  0.1318985098206085  1.0000
  H   H157      1.0  0.07508828869757882  0.5072036515115174  0.169533016998038  1.0000
  H   H158      1.0  0.1063296014083194  0.5963972608850056  0.1619668232949394  1.0000
  H   H159      1.0  0.9651668176296868  0.5541624997119925  0.08530632967991642  1.0000
  H   H160      1.0  0.12633053254982948  0.5897347608187075  0.056043735317757595  1.0000
  H   H161      1.0  0.14912691496437716  0.4795356175945427  0.9989771828025056  1.0000
  H   H162      1.0  0.10212717100309736  0.4307138706754826  0.0631989479317596  1.0000
  H   H163      1.0  0.4897805244773608  0.3423856472215547  0.03065405393996911  1.0000
  H   H164      1.0  0.29820522060297355  0.33976024355548157  0.02375934959288631  1.0000
  H   H165      1.0  0.332393121693741  0.41278531537760427  0.93082638451569  1.0000
  H   H166      1.0  0.46317615620856867  0.3256504372974263  0.9257258614400145  1.0000
  H   H167      1.0  0.47913121227826133  0.4690086532047386  0.8646411862499264  1.0000
  H   H168      1.0  0.6399276277329664  0.3925806454337176  0.8445283204330566  1.0000
  C   C1        1.0  0.5731830246257419  0.6820548243628222  0.7415507842962086  1.0000
  C   C2        1.0  0.7554180229600294  0.7567396664039449  0.6947820727011093  1.0000
  C   C3        1.0  0.4033593027165808  0.6494974010762603  0.6818931346816015  1.0000
  C   C4        1.0  0.31100382656283193  0.6753311917990527  0.6403871349714692  1.0000
  C   C5        1.0  0.23684499254425637  0.629453745215194  0.6169645899626701  1.0000
  C   C6        1.0  0.24836506148670898  0.557710202922081  0.6352048819111361  1.0000
  C   C7        1.0  0.33450094321251816  0.5337212108934252  0.6789832655646819  1.0000
  C   C8        1.0  0.41351745149930275  0.5788461605553934  0.7024173182760904  1.0000
  C   C9        1.0  0.9376437830449262  0.8297834674382543  0.6641710063468196  1.0000
  C   C10       1.0  0.9885848891918201  0.792640898020906  0.6094140296845865  1.0000
  C   C11       1.0  0.11268755964334812  0.8090806319605548  0.5705268661698426  1.0000
  C   C12       1.0  0.1842861503992738  0.8630800208275532  0.5846266520712788  1.0000
  C   C13       1.0  0.31487949270072607  0.8809713649909482  0.5411805510460823  1.0000
  C   C14       1.0  0.12994897443840642  0.9002863585927083  0.6395144630568268  1.0000
  C   C15       1.0  0.009206601071966221  0.8834848760938457  0.6794329872090757  1.0000
  C   C16       1.0  0.17298942538268144  0.5085313377703996  0.6058519752656437  1.0000
  C   C17       1.0  0.8514612622483001  0.40935751998964065  0.57663955892545  1.0000
  C   C18       1.0  0.20449485429749373  0.5147291770163704  0.3937888406654011  1.0000
  C   C19       1.0  0.36389507627947637  0.44664669162578013  0.45864333583656264  1.0000
  C   C20       1.0  0.389666854520307  0.384300207988069  0.5008357206518426  1.0000
  C   C21       1.0  0.2001451952607028  0.38694737240896154  0.4147899219908098  1.0000
  C   C22       1.0  0.062219940271553836  0.33670174584878504  0.5016248573380439  1.0000
  C   C23       1.0  0.3505229246620375  0.3159995560941553  0.47885096072855765  1.0000
  C   C24       1.0  0.6014006205910434  0.9409022248199009  0.6085326442610892  1.0000
  C   C25       1.0  0.683794018537597  0.042565397294417585  0.6412495163587338  1.0000
  C   C26       1.0  0.7853660435192182  0.04509217432387659  0.5808289919526928  1.0000
  C   C27       1.0  0.8190858065317175  0.9732305440934396  0.5456386241044768  1.0000
  C   C28       1.0  0.7241967046763663  0.87211079329807  0.5149349088999386  1.0000
  C   C29       1.0  0.7363942512479086  0.8800674371346132  0.4486305721927408  1.0000
  C   C30       1.0  0.587905866140922  0.9407875136244853  0.37472055851681324  1.0000
  C   C31       1.0  0.5003790840828946  0.8182970215953629  0.7564566723385724  1.0000
  C   C32       1.0  0.7078169799671343  0.7431703341298005  0.8041526478124155  1.0000
  C   C33       1.0  0.24055029922156043  0.8505303471702133  0.81476465102687  1.0000
  C   C34       1.0  0.13201342044686054  0.82406851801975  0.8549990587294404  1.0000
  C   C35       1.0  0.9903962273080608  0.869778352352739  0.8778065969887834  1.0000
  C   C36       1.0  0.9505733101882327  0.9418691358066552  0.8601438027073769  1.0000
  C   C37       1.0  0.056609083813363444  0.9663335307514984  0.8173469023824397  1.0000
  C   C38       1.0  0.20271140142897784  0.9213961725738715  0.794629743838243  1.0000
  C   C39       1.0  0.9311128499425296  0.6701066159637463  0.8352199947783419  1.0000
  C   C40       1.0  0.8930334384629434  0.7071708496228907  0.8900358770554675  1.0000
  C   C41       1.0  0.9957460791800726  0.6909373996000666  0.9290319311148281  1.0000
  C   C42       1.0  0.1334407180031577  0.6370694946365631  0.915002368031807  1.0000
  C   C43       1.0  0.23892497087530992  0.6189530714854853  0.958769417150755  1.0000
  C   C44       1.0  0.16836988698871386  0.5999776922445932  0.8600532630076716  1.0000
  C   C45       1.0  0.06982874374703844  0.6166831269678994  0.8199885288421457  1.0000
  C   C46       1.0  0.7994157099387991  0.9901980722467769  0.8908688691698645  1.0000
  C   C47       1.0  0.3447796682918706  0.088505411745551  0.9217387514462487  1.0000
  C   C48       1.0  0.6072212602978341  0.9870821533180988  0.10729063603427141  1.0000
  C   C49       1.0  0.7653809955180008  0.0530974265401127  0.041429613267453605  1.0000
  C   C50       1.0  0.7730679184501453  0.11558096321917327  0.9996075493926924  1.0000
  C   C51       1.0  0.501268942075619  0.1135481988905411  0.0849414808780864  1.0000
  C   C52       1.0  0.40521391289679093  0.1613046341200146  0.9975307383162928  1.0000
  C   C53       1.0  0.6474958336733183  0.18415363909811333  0.021664247103188906  1.0000
  C   C54       1.0  0.6488991921599592  0.5594330963020723  0.8917776401752279  1.0000
  C   C55       1.0  0.8622856382154466  0.4582106936762714  0.8592823322310394  1.0000
  C   C56       1.0  0.9078613458843422  0.45575842311147596  0.9198410316898205  1.0000
  C   C57       1.0  0.8368091470265072  0.5274581367585753  0.9551632649869503  1.0000
  C   C58       1.0  0.6132474415383203  0.6280914567762962  0.9856615938571592  1.0000
  C   C59       1.0  0.5687703116250518  0.6199511644440818  0.051912469803440324  1.0000
  C   C60       1.0  0.40798000223460223  0.5591020407998499  0.1253985193331104  1.0000
  C   C61       1.0  0.4268145350493313  0.3179426232478946  0.2584481255095525  1.0000
  C   C62       1.0  0.24458376519731934  0.24325615641577505  0.3052152551016079  1.0000
  C   C63       1.0  0.5966393903407692  0.35050004918316807  0.3181052643489792  1.0000
  C   C64       1.0  0.6890033658826198  0.3246673672302903  0.35960807544832113  1.0000
  C   C65       1.0  0.7631590623776389  0.3705420829019204  0.383031716289686  1.0000
  C   C66       1.0  0.7516350236603843  0.44228888263858585  0.3647951386635598  1.0000
  C   C67       1.0  0.665495465675946  0.46627841096683637  0.3210183038947179  1.0000
  C   C68       1.0  0.5864739256989963  0.42115454239029043  0.2975833017492421  1.0000
  C   C69       1.0  0.062355143592334634  0.17021779191640718  0.3358321061176781  1.0000
  C   C70       1.0  0.01141492560879702  0.2073609100503404  0.3905868596192548  1.0000
  C   C71       1.0  0.8873079977399885  0.1909206212701875  0.4294760496755501  1.0000
  C   C72       1.0  0.8157088933765523  0.13692232317231395  0.41537413571163745  1.0000
  C   C73       1.0  0.6851116064278739  0.11903206000977208  0.45882136994455186  1.0000
  C   C74       1.0  0.8700396493649477  0.09971978726555618  0.3604858903240213  1.0000
  C   C75       1.0  0.9907854074317655  0.11652127679942478  0.32056669831855095  1.0000
  C   C76       1.0  0.8270062324025748  0.49146992138242485  0.3941453215096473  1.0000
  C   C77       1.0  0.14854106649367085  0.5906415695017911  0.42336073680736064  1.0000
  C   C78       1.0  0.7955049701842329  0.4852704537010836  0.606210331996131  1.0000
  C   C79       1.0  0.6360985387483638  0.55335183698579  0.5413567071769094  1.0000
  C   C80       1.0  0.6103261658603362  0.615695050762973  0.4991643800846646  1.0000
  C   C81       1.0  0.7998515495674783  0.6130538866592943  0.5852094574262666  1.0000
  C   C82       1.0  0.9377720026389442  0.6633000473259185  0.4983761495027679  1.0000
  C   C83       1.0  0.6494687402870907  0.6839962474426995  0.5211466416891639  1.0000
  C   C84       1.0  0.3985952244347787  0.059102840694897886  0.3914719593650844  1.0000
  C   C85       1.0  0.31620974471768915  0.9574396858501898  0.35875237631349693  1.0000
  C   C86       1.0  0.21463184622190581  0.954913443922834  0.4191715810291541  1.0000
  C   C87       1.0  0.18091123366217227  0.026774527714415797  0.45436201085722433  1.0000
  C   C88       1.0  0.27580081246680527  0.12789100765359512  0.4850687308989095  1.0000
  C   C89       1.0  0.26360549600158123  0.119932189027395  0.5513729228304101  1.0000
  C   C90       1.0  0.41209448347898825  0.059215382853601284  0.6252824465471535  1.0000
  C   C91       1.0  0.49962746737601543  0.181698264840179  0.24354118922122583  1.0000
  C   C92       1.0  0.29218899805636067  0.25682386162118587  0.19584525916805973  1.0000
  C   C93       1.0  0.7594565784959499  0.1494687538271151  0.1852327371328997  1.0000
  C   C94       1.0  0.8679928973237949  0.17593167101343707  0.14499879478482572  1.0000
  C   C95       1.0  0.009607829463384149  0.13022400964791805  0.1221931302458188  1.0000
  C   C96       1.0  0.0494327391938327  0.058131597927776085  0.1398536351298958  1.0000
  C   C97       1.0  0.9433944458620119  0.0336677432978689  0.1826502768558811  1.0000
  C   C98       1.0  0.797296350963329  0.07860129841961337  0.20536500122705095  1.0000
  C   C99       1.0  0.06888981865494517  0.3298897551170014  0.1647755420998749  1.0000
  C   C100      1.0  0.10698394474184884  0.2928299105985487  0.10995645302999431  1.0000
  C   C101      1.0  0.004255591137379667  0.3090633326504601  0.0709589050999426  1.0000
  C   C102      1.0  0.8665625143486152  0.3629301444825401  0.08499484006802052  1.0000
  C   C103      1.0  0.7610779641528682  0.3810449327033538  0.041227819810593785  1.0000
  C   C104      1.0  0.8316335944977666  0.4000170451879582  0.1399430886653619  1.0000
  C   C105      1.0  0.9301727335981482  0.3833088822011206  0.1800084078882662  1.0000
  C   C106      1.0  0.2005957147963642  0.009803218065769698  0.10912689582299612  1.0000
  C   C107      1.0  0.6552268889323687  0.9114920529548696  0.07825996228352489  1.0000
  C   C108      1.0  0.39278923961574463  0.012916408190804399  0.8927082288939231  1.0000
  C   C109      1.0  0.23462780334323025  0.9469022199004155  0.958570660026581  1.0000
  C   C110      1.0  0.22693697437996743  0.8844197664999239  0.0003916959282434847  1.0000
  C   C111      1.0  0.49873786809076404  0.8864487201975423  0.915058513001  1.0000
  C   C112      1.0  0.5947881339680311  0.8386928213522464  0.002468721805719607  1.0000
  C   C113      1.0  0.3525059428450208  0.8158465388847204  0.9783360817479618  1.0000
  C   C114      1.0  0.3510988849300745  0.44056761661373395  0.10822553426912408  1.0000
  C   C115      1.0  0.13771271498639964  0.5417894749938269  0.1407208256541423  1.0000
  C   C116      1.0  0.09213814069977391  0.5442417482073268  0.0801616154201739  1.0000
  C   C117      1.0  0.16318693941079232  0.47254202661412137  0.04484091444858511  1.0000
  C   C118      1.0  0.3867517534875376  0.37190925787712087  0.014341934284331594  1.0000
  C   C119      1.0  0.4312277577417519  0.38004954801618135  0.9480911368770677  1.0000
  C   C120      1.0  0.5920138406078267  0.44089811864208156  0.8746053849443031  1.0000
  C   C121      1.0  0.634846304684672  0.750091507258517  0.7491928672809607  1.0000
  C   C122      1.0  0.3651580186258058  0.24990377615734619  0.2508038546483817  1.0000
  N   N1        1.0  0.5509692750894005  0.0115005873613114  0.6379953349125813  1.0000
  N   N2        1.0  0.6787917624295051  0.9443735740631067  0.5458823122954399  1.0000
  N   N3        1.0  0.583883943430607  0.9175577543093425  0.43649016530851265  1.0000
  N   N4        1.0  0.20207712985491366  0.3321020450611343  0.45844023703131853  1.0000
  N   N5        1.0  0.007998649527387214  0.40251985535961415  0.5413615141304291  1.0000
  N   N6        1.0  0.2128830797635929  0.45810364264515613  0.4385042096034511  1.0000
  N   N7        1.0  0.6962178107250947  0.48888525408323596  0.862246205719565  1.0000
  N   N8        1.0  0.6688175762287969  0.5559377868100414  0.9545765013445546  1.0000
  N   N9        1.0  0.44142755038212317  0.5822235907215115  0.0636397330072853  1.0000
  N   N10       1.0  0.49449469335367263  0.16847626905173027  0.04152193530472201  1.0000
  N   N11       1.0  0.45802916502860574  0.09390385111362319  0.9590280489203593  1.0000
  N   N12       1.0  0.6049978618572426  0.04210729710974449  0.061107719012213124  1.0000
  N   N13       1.0  0.4490313564076587  0.9885039431359459  0.3620085057621907  1.0000
  N   N14       1.0  0.3212060752069378  0.055629863185458796  0.4541200019334042  1.0000
  N   N15       1.0  0.4161158404771116  0.0824440519397243  0.5635124529399677  1.0000
  N   N16       1.0  0.797918163055613  0.6678953972521878  0.5415596943248033  1.0000
  N   N17       1.0  0.9919992364062937  0.5974814068128893  0.45863692227531067  1.0000
  N   N18       1.0  0.7871077548921905  0.5418959714381444  0.5614947268979122  1.0000
  N   N19       1.0  0.3037791407058919  0.5111154566394163  0.137757047263797  1.0000
  N   N20       1.0  0.3311765562140041  0.44406400710661137  0.04542780630750799  1.0000
  N   N21       1.0  0.5585694164953025  0.4177771209122271  0.936362655503757  1.0000
  N   N22       1.0  0.5055053840702044  0.8315228160533933  0.9584785175061299  1.0000
  N   N23       1.0  0.5419779212495969  0.9060925237287591  0.04097192839955711  1.0000
  N   N24       1.0  0.39501262260988323  0.9578912634880723  0.938892010388301  1.0000
  O   O1        1.0  0.33903126470511324  0.9445542424802652  0.548371122434645  1.0000
  O   O2        1.0  0.3888414885812639  0.8340596143271525  0.501177710198732  1.0000
  O   O3        1.0  0.15963853230661582  0.44857234487250963  0.6281392246162696  1.0000
  O   O4        1.0  0.12848180852724056  0.5332899021076686  0.5582349676395495  1.0000
  O   O5        1.0  0.4817734858074872  0.6979888756506724  0.6969611977816399  1.0000
  O   O6        1.0  0.8164965082416701  0.8181196164618924  0.7051395542119181  1.0000
  O   O7        1.0  0.33249099576231333  0.5556154005984694  0.9513202552633899  1.0000
  O   O8        1.0  0.22745358236964117  0.6654667388796084  0.9993296196445769  1.0000
  O   O9        1.0  0.7453094541708226  0.0506647410378775  0.8696528949830977  1.0000
  O   O10       1.0  0.7374592554318012  0.964720536591429  0.9384344449225354  1.0000
  O   O11       1.0  0.3811664724887651  0.802359174671288  0.8006363963577242  1.0000
  O   O12       1.0  0.8380888210351501  0.6816458181868227  0.7941666220668323  1.0000
  O   O13       1.0  0.660963545382458  0.05545300411724698  0.4516296573027462  1.0000
  O   O14       1.0  0.6111402711847732  0.1659486898038836  0.4988304501286295  1.0000
  O   O15       1.0  0.8403628348135613  0.5514332858757525  0.3718554936784244  1.0000
  O   O16       1.0  0.8715085491792608  0.4667129828318222  0.4417609640246809  1.0000
  O   O17       1.0  0.5182261089017715  0.3020113020457558  0.3030353980220966  1.0000
  O   O18       1.0  0.18349850659915032  0.18188054790646646  0.29486167810951264  1.0000
  O   O19       1.0  0.6675017697182997  0.4443825815742384  0.0486798497299432  1.0000
  O   O20       1.0  0.7725468522057286  0.3345361626094672  0.000668630821607517  1.0000
  O   O21       1.0  0.25468906502617056  0.9493397932728767  0.1303433225187973  1.0000
  O   O22       1.0  0.262555590661961  0.0352829408431958  0.061559775442432914  1.0000
  O   O23       1.0  0.6188403608473011  0.19763774578343168  0.1993623008128793  1.0000
  O   O24       1.0  0.16191411595091412  0.31835000819268083  0.2058293304883776  1.0000
