data_image0
_chemical_formula_structural       Li2Mn2B2H64C54N8Cl4O6F10
_chemical_formula_sum              "Li2 Mn2 B2 H64 C54 N8 Cl4 O6 F10"
_cell_length_a       11.072071491561736
_cell_length_b       12.57942248205356
_cell_length_c       16.41677394021044
_cell_angle_alpha    109.48437080919471
_cell_angle_beta     99.23442396679461
_cell_angle_gamma    100.65930739592343

_space_group_name_H-M_alt    "P 1"
_space_group_IT_number       1

loop_
  _space_group_symop_operation_xyz
  'x, y, z'

loop_
  _atom_site_type_symbol
  _atom_site_label
  _atom_site_symmetry_multiplicity
  _atom_site_fract_x
  _atom_site_fract_y
  _atom_site_fract_z
  _atom_site_occupancy
  Li  Li1       1.0  0.6270183317285358  0.2542026584710584  0.40392688443845504  1.0000
  Li  Li2       1.0  0.3729873202832793  0.7458023063208474  0.5960746441871478  1.0000
  Mn  Mn1       1.0  0.9301560303368533  0.48659696065113434  0.5959112093062513  1.0000
  Mn  Mn2       1.0  0.06983882208235312  0.5134017960901646  0.4040863390326733  1.0000
  B   B1        1.0  0.9339072926449749  0.48147530221565665  0.8070665804873939  1.0000
  B   B2        1.0  0.06610616774789695  0.5185349831376771  0.19293655353124003  1.0000
  H   H1        1.0  0.1292168912462515  0.3203996622348626  0.5828915007619031  1.0000
  H   H2        1.0  0.8707708198819546  0.6796243916909148  0.4170954628958937  1.0000
  H   H3        1.0  0.23325237419356185  0.26258520749735237  0.7221599424936613  1.0000
  H   H4        1.0  0.7667722455125913  0.7374333452360847  0.2778178996667436  1.0000
  H   H5        1.0  0.11492835691822022  0.36010599178111147  0.8532112191917846  1.0000
  H   H6        1.0  0.885083414715176  0.6398704950476813  0.14677071517385096  1.0000
  H   H7        1.0  0.9645923863371523  0.7730454010516256  0.6932846841104238  1.0000
  H   H8        1.0  0.03541922131246618  0.22697887461460198  0.3067121666559486  1.0000
  H   H9        1.0  0.9977499542401278  0.8900949541813932  0.8745308339287446  1.0000
  H   H10       1.0  0.0022107709365571065  0.10990925472233223  0.1254840353199143  1.0000
  H   H11       1.0  0.9855937116093618  0.713883192257285  0.9398515511600679  1.0000
  H   H12       1.0  0.014357321166450285  0.2860983684605785  0.06014906378197082  1.0000
  H   H13       1.0  0.7834519327047504  0.3935868426282669  0.9075847341235814  1.0000
  H   H14       1.0  0.2165686504740378  0.6064156557411878  0.09242198770308362  1.0000
  H   H15       1.0  0.16011002747710987  0.5919979930975785  0.9381036829783653  1.0000
  H   H16       1.0  0.8399245584018757  0.4080055499524988  0.061904788256434466  1.0000
  H   H17       1.0  0.8195541740128791  0.3834071731860575  0.3235019409028935  1.0000
  H   H18       1.0  0.18044087593737157  0.6166030300490065  0.6764852201774616  1.0000
  H   H19       1.0  0.6932152597278646  0.45347714138598155  0.3233006921039562  1.0000
  H   H20       1.0  0.30677177812520284  0.5465198045426192  0.6766931222352852  1.0000
  H   H21       1.0  0.7238378150803372  0.4285300645603911  0.1758754992817302  1.0000
  H   H22       1.0  0.2761216682005099  0.5714700591647954  0.8241119770777203  1.0000
  H   H23       1.0  0.7692719171764468  0.2962863497380966  0.1632725528601213  1.0000
  H   H24       1.0  0.23071259071876687  0.7037254151716044  0.8367181693090585  1.0000
  H   H25       1.0  0.5026857406407715  0.33523103841622515  0.16048918814102112  1.0000
  H   H26       1.0  0.49728592337196204  0.6647456286955774  0.8395062305669683  1.0000
  H   H27       1.0  0.5458100009658581  0.22138556199117695  0.08164214715701949  1.0000
  H   H28       1.0  0.4541754414056314  0.7785947487262277  0.9183562860976976  1.0000
  H   H29       1.0  0.5746523373597797  0.12174683416958493  0.18346386926663874  1.0000
  H   H30       1.0  0.4253647809835712  0.8782460897378569  0.8165369377294737  1.0000
  H   H31       1.0  0.45643296813356943  0.19019654151147586  0.2240587345081266  1.0000
  H   H32       1.0  0.5435731489710918  0.8097822311764843  0.7759469585465837  1.0000
  H   H33       1.0  0.6805935781983196  0.15752271141440843  0.532765606098806  1.0000
  H   H34       1.0  0.31939418455586127  0.8424837295293558  0.4672380775258772  1.0000
  H   H35       1.0  0.6448377120141942  0.0038355713282954033  0.46812333521953053  1.0000
  H   H36       1.0  0.3551486734649317  0.9961621261824477  0.5318809625222513  1.0000
  H   H37       1.0  0.869975143906068  0.044706824849321  0.5415882198772266  1.0000
  H   H38       1.0  0.1300085244846089  0.9553011939839923  0.458425800366733  1.0000
  H   H39       1.0  0.9018844186604869  0.1844416469262882  0.5341008453270603  1.0000
  H   H40       1.0  0.0981125441398731  0.8155648511362089  0.4659093055333514  1.0000
  H   H41       1.0  0.962854436841653  0.08332829722876771  0.4029976260094513  1.0000
  H   H42       1.0  0.037137465691863256  0.916658972114945  0.5970106178827592  1.0000
  H   H43       1.0  0.8591689540127163  0.9478433766371239  0.3853856954686421  1.0000
  H   H44       1.0  0.14081815836235023  0.0521533380333068  0.6146299958316419  1.0000
  H   H45       1.0  0.8004977754162326  0.1306076377353165  0.3180529916431567  1.0000
  H   H46       1.0  0.19950006192912184  0.8693815543350425  0.6819460250890329  1.0000
  H   H47       1.0  0.7053052741267793  0.9860288634983834  0.2909339272113982  1.0000
  H   H48       1.0  0.2946887160172765  0.013966217828745204  0.7090802345753245  1.0000
  H   H49       1.0  0.4720384834468946  0.41100840748384837  0.43823871787221685  1.0000
  H   H50       1.0  0.5279497175897349  0.5889858867747152  0.5617600080616043  1.0000
  H   H51       1.0  0.33306241966028693  0.3282769695903554  0.3508627343595236  1.0000
  H   H52       1.0  0.6669358767433097  0.6717104829880612  0.6491364850357256  1.0000
  H   H53       1.0  0.24090084601082404  0.37060339988352103  0.4795731908666312  1.0000
  H   H54       1.0  0.7590779076920102  0.6293690735030283  0.5204157870290302  1.0000
  H   H55       1.0  0.3770916064679711  0.3609681866779866  0.5480371027634092  1.0000
  H   H56       1.0  0.6228862457540674  0.6390181857333774  0.4519554147733372  1.0000
  H   H57       1.0  0.182274521555101  0.15980086515892825  0.3931753552762486  1.0000
  H   H58       1.0  0.8177182389378856  0.8401656591061482  0.6068171984674038  1.0000
  H   H59       1.0  0.23467589026856223  0.16525076930565064  0.5031646762295522  1.0000
  H   H60       1.0  0.7653379916958232  0.8347264778899087  0.4968304717107089  1.0000
  H   H61       1.0  0.4396231407982541  0.14183442178486422  0.4803048260012374  1.0000
  H   H62       1.0  0.5603923573231812  0.8581559059062941  0.51969208548374  1.0000
  H   H63       1.0  0.34803103384076917  0.061535551873312506  0.3688573634125163  1.0000
  H   H64       1.0  0.6519855943684264  0.9384557174064342  0.631134431046675  1.0000
  C   C1        1.0  0.1112826736424921  0.340245110364414  0.6486788498459503  1.0000
  C   C2        1.0  0.888714677859305  0.6597633570938441  0.3513105365766407  1.0000
  C   C3        1.0  0.16280603985778447  0.31138262310241066  0.7195798982337747  1.0000
  C   C4        1.0  0.8372181559058236  0.6886270884860795  0.2804089886304412  1.0000
  C   C5        1.0  0.10517684145547426  0.36129541870757714  0.7868449760075293  1.0000
  C   C6        1.0  0.8948363427693313  0.6387071547350517  0.21314514739533763  1.0000
  C   C7        1.0  0.9656321654664738  0.7393199419002983  0.7461476694881454  1.0000
  C   C8        1.0  0.03435791342997159  0.26069868020864817  0.2538612712260501  1.0000
  C   C9        1.0  0.9832454373530201  0.7975801581199777  0.8379765425972819  1.0000
  C   C10       1.0  0.016741662651874423  0.2024235760479059  0.1620348914896965  1.0000
  C   C11       1.0  0.9783824203530006  0.7100868360639725  0.8723140633702186  1.0000
  C   C12       1.0  0.02160327554135929  0.28991870961242233  0.127689168240444  1.0000
  C   C13       1.0  0.7854252337962324  0.4099765831524779  0.7588190393370695  1.0000
  C   C14       1.0  0.2145887249859371  0.590031840655982  0.24119584351849713  1.0000
  C   C15       1.0  0.7470773094323776  0.2881055971245914  0.7261926505491231  1.0000
  C   C16       1.0  0.2529504256134132  0.7119029862361044  0.27382494468637464  1.0000
  C   C17       1.0  0.6211192285983032  0.22398799727810115  0.6923789092027235  1.0000
  C   C18       1.0  0.37890410908043043  0.7760250070029712  0.3076271954428833  1.0000
  C   C19       1.0  0.5259339715512612  0.28174279410380626  0.6897616359114307  1.0000
  C   C20       1.0  0.47408014947068733  0.718263223494816  0.3102337510046738  1.0000
  C   C21       1.0  0.5586454448571843  0.40281869967268596  0.7225191157487458  1.0000
  C   C22       1.0  0.4413551283826963  0.5971845466010495  0.2774735090355592  1.0000
  C   C23       1.0  0.685802601618768  0.46368547578891395  0.7565490844384114  1.0000
  C   C24       1.0  0.31419754563359703  0.536312426240933  0.24345367182976224  1.0000
  C   C25       1.0  0.966858659440554  0.49149558139708943  0.9093019085067054  1.0000
  C   C26       1.0  0.03315915701860212  0.508524373421473  0.09069934012830327  1.0000
  C   C27       1.0  0.8793465864366896  0.4408021061618755  0.9474096158191614  1.0000
  C   C28       1.0  0.12067444138519792  0.5592091691141406  0.052592138237322776  1.0000
  C   C29       1.0  0.08843399964867862  0.5510710925438501  0.9646078391436461  1.0000
  C   C30       1.0  0.9115877116230566  0.4489428252696683  0.035392241384173045  1.0000
  C   C31       1.0  0.7228450467300079  0.37492379711146384  0.2891091217143966  1.0000
  C   C32       1.0  0.27714520258611236  0.6250784311834395  0.7108839759400494  1.0000
  C   C33       1.0  0.7050266076989333  0.34851562252565327  0.18990481496940967  1.0000
  C   C34       1.0  0.2949507855651916  0.6514864512865088  0.810086277798014  1.0000
  C   C35       1.0  0.5664777843820659  0.2771957684580926  0.1523819881014177  1.0000
  C   C36       1.0  0.43350719070112115  0.7227932884010356  0.847613200663659  1.0000
  C   C37       1.0  0.5511394458091986  0.2060409878213392  0.2110851632956852  1.0000
  C   C38       1.0  0.44886527554039907  0.7939500421114193  0.7889138414764645  1.0000
  C   C39       1.0  0.7059627656936345  0.09036189594463201  0.4808776992775918  1.0000
  C   C40       1.0  0.29402363225599254  0.9096427439775068  0.5191296335712322  1.0000
  C   C41       1.0  0.8458965170130028  0.0936925250106597  0.4998568615348659  1.0000
  C   C42       1.0  0.1540921907934703  0.9063138439165359  0.5001548219030737  1.0000
  C   C43       1.0  0.8681086254359373  0.0420042918456218  0.4059116083057858  1.0000
  C   C44       1.0  0.1318832937332601  0.9579933975390276  0.5941005805536291  1.0000
  C   C45       1.0  0.7637533554619228  0.06647753903765621  0.3456935197924266  1.0000
  C   C46       1.0  0.2362442865729264  0.9335211429783784  0.6543146587322894  1.0000
  C   C47       1.0  0.3925607292146581  0.3328829715206822  0.4131692019943216  1.0000
  C   C48       1.0  0.6074348086241274  0.6671044594254314  0.5868285026155603  1.0000
  C   C49       1.0  0.31543019851530835  0.3244250928545967  0.48049511234672326  1.0000
  C   C50       1.0  0.6845577387234201  0.6755544699958095  0.5194948601846363  1.0000
  C   C51       1.0  0.26400633718195377  0.19221910369615375  0.45079282561029993  1.0000
  C   C52       1.0  0.7359944498735231  0.8077571424312993  0.5491976342545611  1.0000
  C   C53       1.0  0.37566263070028333  0.1468385216979371  0.42356865229589147  1.0000
  C   C54       1.0  0.6243482746181784  0.8531482644732051  0.5764274580245541  1.0000
  N   N1        1.0  0.0249150548526984  0.41688301194459854  0.7571235790479063  1.0000
  N   N2        1.0  0.9750889686569836  0.5831193823263804  0.24287162329311232  1.0000
  N   N3        1.0  0.02743806883303534  0.4034011537396582  0.6713843905294467  1.0000
  N   N4        1.0  0.9725615883102564  0.5965985841396986  0.3286090476752364  1.0000
  N   N5        1.0  0.9597036140403007  0.6068126304250755  0.8043131404649486  1.0000
  N   N6        1.0  0.040312814743366225  0.3931916321252303  0.19568629487348232  1.0000
  N   N7        1.0  0.9510932272582977  0.6241324816867646  0.7260928441689883  1.0000
  N   N8        1.0  0.04893265097937421  0.37590057626614043  0.27391633584782943  1.0000
  Cl  Cl1       1.0  0.013975922479580972  0.64187310982868  0.5435139361368968  1.0000
  Cl  Cl2       1.0  0.9860127232753869  0.35814043276808155  0.45647890544704234  1.0000
  Cl  Cl3       1.0  0.7092559698341604  0.408056516609584  0.5430206695642283  1.0000
  Cl  Cl4       1.0  0.29074028874055113  0.5919369317221526  0.4569859944709336  1.0000
  O   O1        1.0  0.641490589040622  0.274760110725218  0.29568115062978956  1.0000
  O   O2        1.0  0.3585180459025352  0.7252457672512236  0.7043203221160184  1.0000
  O   O3        1.0  0.683438252281775  0.11669785563993432  0.4014211202162272  1.0000
  O   O4        1.0  0.3165586856528364  0.8833052290314072  0.5985820438504135  1.0000
  O   O5        1.0  0.4448765339262836  0.23124585783534712  0.3940703410548351  1.0000
  O   O6        1.0  0.5551267957080341  0.768743454585675  0.6059244129277347  1.0000
  F   F1        1.0  0.8333030281728002  0.22384366280995494  0.7277791987246687  1.0000
  F   F2        1.0  0.166724278890662  0.7761700541623213  0.2722470037216452  1.0000
  F   F3        1.0  0.5889861763484207  0.10583835397429914  0.6627849716407466  1.0000
  F   F4        1.0  0.4110344276312432  0.8941780420656258  0.33722660501327084  1.0000
  F   F5        1.0  0.4032740418744042  0.2199084232312813  0.656092855790355  1.0000
  F   F6        1.0  0.5967313900113281  0.7801095990695684  0.34391023678087146  1.0000
  F   F7        1.0  0.46689676508738404  0.4603433773587256  0.7206285429895019  1.0000
  F   F8        1.0  0.533109994291742  0.5396695806384175  0.2793605729302016  1.0000
  F   F9        1.0  0.7074556807500515  0.5819580385518393  0.788660078012164  1.0000
  F   F10       1.0  0.2925577049954171  0.4180350256736034  0.21132270667825276  1.0000
