data_image0
_chemical_formula_structural       Al4H36C66N4O32
_chemical_formula_sum              "Al4 H36 C66 N4 O32"
_cell_length_a       6.580458689073047
_cell_length_b       20.732552149592944
_cell_length_c       21.6584245380676
_cell_angle_alpha    89.97892891155207
_cell_angle_beta     91.99425326240765
_cell_angle_gamma    92.41409755326241

_space_group_name_H-M_alt    "P 1"
_space_group_IT_number       1

loop_
  _space_group_symop_operation_xyz
  'x, y, z'

loop_
  _atom_site_type_symbol
  _atom_site_label
  _atom_site_symmetry_multiplicity
  _atom_site_fract_x
  _atom_site_fract_y
  _atom_site_fract_z
  _atom_site_occupancy
  Al  Al1       1.0  0.952368122150247  0.3088998321131911  0.5022067417526727  1.0000
  Al  Al2       1.0  0.04886587322137361  0.6944692989087073  0.0006201961596801002  1.0000
  Al  Al3       1.0  0.45192114222882646  0.3084480416877112  0.502392421242412  1.0000
  Al  Al4       1.0  0.5474577424880775  0.696013341816318  0.0013798308619570002  1.0000
  H   H1        1.0  0.2396526998001178  0.32792990354306545  0.19688179929682548  1.0000
  H   H2        1.0  0.5664107415540585  0.6634804154013381  0.7056082166088514  1.0000
  H   H3        1.0  0.2578618557253662  0.5964810164190694  0.19344738230824274  1.0000
  H   H4        1.0  0.7758427525079838  0.4077521099610238  0.6929358781985612  1.0000
  H   H5        1.0  0.2894443452834494  0.6018535644119609  0.2810701525642543  1.0000
  H   H6        1.0  0.8445985062253882  0.4044615878461855  0.7781929033159967  1.0000
  H   H7        1.0  0.4939905680952776  0.13261386819483784  0.4254493348675083  1.0000
  H   H8        1.0  0.5226961960624195  0.8771422099598428  0.9132426565106896  1.0000
  H   H9        1.0  0.6374598675561457  0.8243063423211437  0.1424875770904848  1.0000
  H   H10       1.0  0.377013855014077  0.1723700860557358  0.6320854537863313  1.0000
  H   H11       1.0  0.8753122972418907  0.1640078673766894  0.36542001162441545  1.0000
  H   H12       1.0  0.09944933070627122  0.8136794151664474  0.8560917867925183  1.0000
  H   H13       1.0  0.3102169354702299  0.4817670421504586  0.031043335567701995  1.0000
  H   H14       1.0  0.6705875769209158  0.5251133070761967  0.533346904678936  1.0000
  H   H15       1.0  0.4995320600144381  0.0375085294470097  0.3557135850252848  1.0000
  H   H16       1.0  0.5460806612360685  0.9680290100786236  0.8370719343137053  1.0000
  H   H17       1.0  0.6536040038641602  0.9119245856233537  0.22296772384253669  1.0000
  H   H18       1.0  0.3613128629824729  0.0738642135968064  0.7005136680185516  1.0000
  H   H19       1.0  0.015905951026454132  0.9424443700196649  0.1891065538206007  1.0000
  H   H20       1.0  0.9998596317850499  0.0492865566720795  0.6772203803493183  1.0000
  H   H21       1.0  0.6093307921341233  0.998599990097091  0.2781517824237838  1.0000
  H   H22       1.0  0.3916122446023707  0.9636415196182568  0.7432569345832362  1.0000
  H   H23       1.0  0.0015181181904822061  0.8545233188516617  0.10852884626832798  1.0000
  H   H24       1.0  0.013452506966302702  0.1467820136117339  0.6074403782548146  1.0000
  H   H25       1.0  0.22726192719233038  0.32789387299189326  0.0035378388417229003  1.0000
  H   H26       1.0  0.6546945187216551  0.6792297004594303  0.5116166461212117  1.0000
  H   H27       1.0  0.20048860053144318  0.5103851597397479  0.4560476360213314  1.0000
  H   H28       1.0  0.8970525322985381  0.495373673069004  0.9552845507100044  1.0000
  H   H29       1.0  0.2574361433311694  0.609925533289605  0.39324700504641913  1.0000
  H   H30       1.0  0.9151809384216206  0.3970098258430426  0.8899309388268577  1.0000
  H   H31       1.0  0.9581995819916784  0.2762693751121858  0.3606837977678198  1.0000
  H   H32       1.0  0.44972488816123496  0.7515098394216295  0.8200022460754326  1.0000
  H   H33       1.0  0.6921045470283288  0.33224487426741695  0.4242564935976744  1.0000
  H   H34       1.0  0.28868455123853204  0.6754848918147969  0.9205508091065508  1.0000
  H   H35       1.0  0.21205270177133434  0.34505360461176343  0.5751503903673267  1.0000
  H   H36       1.0  0.8047866820501923  0.6639909917528755  0.07610114922918139  1.0000
  C   C1        1.0  0.7118955270562637  0.4015604623359297  0.5703395188217399  1.0000
  C   C2        1.0  0.3029310434753398  0.6047894080012028  0.07162392096108049  1.0000
  C   C3        1.0  0.7084505631382924  0.2236612594544242  0.576527383361416  1.0000
  C   C4        1.0  0.30557894419185777  0.7808051413311363  0.07547988365468679  1.0000
  C   C5        1.0  0.1947004434452566  0.21393493256898208  0.4376879239689018  1.0000
  C   C6        1.0  0.7945143654615875  0.783731764908772  0.9311849754256725  1.0000
  C   C7        1.0  0.193425823851463  0.3908947870337938  0.42319265619718044  1.0000
  C   C8        1.0  0.7860293033152388  0.6093430107923085  0.9259867802710817  1.0000
  C   C9        1.0  0.27875805097120576  0.42802699965773877  0.11537871476527069  1.0000
  C   C10       1.0  0.6685936340443988  0.575277663933079  0.6201835594781996  1.0000
  C   C11       1.0  0.2891668647821319  0.5447663367100404  0.109770121240274  1.0000
  C   C12       1.0  0.7188032678906423  0.4605460427150375  0.6103079167923653  1.0000
  C   C13       1.0  0.2137020936193537  0.5068598695904498  0.40613227453375333  1.0000
  C   C14       1.0  0.8453508922545226  0.49620320680918456  0.9069689180372792  1.0000
  C   C15       1.0  0.24496230586929363  0.562791277987458  0.37077019473414197  1.0000
  C   C16       1.0  0.8603320034100574  0.4415626659188874  0.8699059037947804  1.0000
  C   C17       1.0  0.26194816281648764  0.5579201999369231  0.3075539053566345  1.0000
  C   C18       1.0  0.8174358002878462  0.44587159991485964  0.8071703634741924  1.0000
  C   C19       1.0  0.24737885365210127  0.4974801991938307  0.2771946900031708  1.0000
  C   C20       1.0  0.7465596654344466  0.503055816534676  0.7800406088981261  1.0000
  C   C21       1.0  0.2203113040759703  0.43993263004239214  0.31320927736780385  1.0000
  C   C22       1.0  0.7066380543885272  0.5567016447659228  0.819104413861467  1.0000
  C   C23       1.0  0.26064027957459496  0.4931209810339324  0.21032679875519017  1.0000
  C   C24       1.0  0.7223043169197682  0.5083732701367225  0.713123382393725  1.0000
  C   C25       1.0  0.26381743311499406  0.4313409242059124  0.1811326172725458  1.0000
  C   C26       1.0  0.6758346146989922  0.5690949058536532  0.6861616283089019  1.0000
  C   C27       1.0  0.24051172876345822  0.37521332577946964  0.2186249442289849  1.0000
  C   C28       1.0  0.6228282654774658  0.619675504530953  0.7263936383449305  1.0000
  C   C29       1.0  0.2119860632180561  0.3790802847816933  0.2808363472336168  1.0000
  C   C30       1.0  0.6223509919457798  0.6126900785234782  0.7894731977626677  1.0000
  C   C31       1.0  0.2682253194608606  0.5488330649183624  0.17301171661440412  1.0000
  C   C32       1.0  0.7447876955923007  0.45506426284787693  0.6738427129297263  1.0000
  C   C33       1.0  0.2952708874165708  0.4844082986535838  0.0808574030678599  1.0000
  C   C34       1.0  0.6848917902341042  0.5208788182635615  0.5833867874594958  1.0000
  C   C35       1.0  0.2053916002809189  0.4462984972504812  0.3784924914712491  1.0000
  C   C36       1.0  0.7700602897192184  0.5528867349079932  0.882644934243558  1.0000
  C   C37       1.0  0.3181871214185962  0.8342148071083814  0.12170019783724231  1.0000
  C   C38       1.0  0.6967774856305978  0.16547178938860438  0.6168752373064805  1.0000
  C   C39       1.0  0.14248295174694897  0.8676689455792612  0.13428883474556844  1.0000
  C   C40       1.0  0.8727205972396845  0.13056613790482882  0.6287259775372291  1.0000
  C   C41       1.0  0.1497292240028756  0.9159273167063233  0.17856418973597238  1.0000
  C   C42       1.0  0.8659479085785262  0.07698248396545891  0.6668329920714412  1.0000
  C   C43       1.0  0.3345870676359652  0.9312303395324834  0.21109399171179888  1.0000
  C   C44       1.0  0.6810078875378522  0.0572625643747102  0.6932033548820584  1.0000
  C   C45       1.0  0.5114996147265386  0.8989839138459383  0.19768853651228113  1.0000
  C   C46       1.0  0.5030163169547777  0.09039437873103402  0.6798086475347062  1.0000
  C   C47       1.0  0.5028613020583562  0.8505081281340663  0.1531775281193646  1.0000
  C   C48       1.0  0.5118419334437475  0.14488950204153642  0.642196257437554  1.0000
  C   C49       1.0  0.36477719137473485  0.0658666446147507  0.35716902110888776  1.0000
  C   C50       1.0  0.6638798950188515  0.9327601429529722  0.840778945070852  1.0000
  C   C51       1.0  0.36105890126650303  0.11809720415003258  0.3966503458926738  1.0000
  C   C52       1.0  0.6521347388522896  0.8831331086410331  0.8834344420973749  1.0000
  C   C53       1.0  0.1942803196924956  0.049616153059730606  0.3183003615953055  1.0000
  C   C54       1.0  0.8296647450230168  0.939300894838638  0.8015406510739991  1.0000
  C   C55       1.0  0.18654894045101134  0.1547122684794004  0.39893371140378514  1.0000
  C   C56       1.0  0.8079212808270171  0.8392574055257852  0.8877982874940142  1.0000
  C   C57       1.0  0.0125783367723855  0.1365588207930983  0.36321368323914527  1.0000
  C   C58       1.0  0.9778144984465058  0.8474318099670622  0.8512505266436461  1.0000
  C   C59       1.0  0.013617057188476195  0.08357753454315289  0.3235798487161077  1.0000
  C   C60       1.0  0.9954583477632111  0.8978329120935982  0.8087688577780411  1.0000
  C   C61       1.0  0.8200255575142136  0.06627696490858878  0.28740630432954367  1.0000
  C   C62       1.0  0.19323675146425498  0.902360456696449  0.7759820959477751  1.0000
  C   C63       1.0  0.27843842975826766  0.36525030240121487  0.08200581381009901  1.0000
  C   C64       1.0  0.6402253584186894  0.6384395182224196  0.5889629885047825  1.0000
  C   C65       1.0  0.16265996090944412  0.3160603148390281  0.3114580372549369  1.0000
  C   C66       1.0  0.49101854785020993  0.6606874096323027  0.8189690560081927  1.0000
  N   N1        1.0  0.3543622693757981  0.9785124526152841  0.2582018330793047  1.0000
  N   N2        1.0  0.6653470695727393  0.004388288638615701  0.7345707649678771  1.0000
  N   N3        1.0  0.1875783349413425  0.0025331168385421  0.2720034382113923  1.0000
  N   N4        1.0  0.8363520428811525  0.9880428680302131  0.7568921482452992  1.0000
  O   O1        1.0  0.5508777742923812  0.25694833669707867  0.569954063643486  1.0000
  O   O2        1.0  0.4663857278848481  0.7502701680679918  0.06700811413306701  1.0000
  O   O3        1.0  0.8718253464953064  0.36971653682878264  0.565899012741795  1.0000
  O   O4        1.0  0.14316998259751298  0.637172163621848  0.06619765291524259  1.0000
  O   O5        1.0  0.028039225619991708  0.3820206324756085  0.451426065902865  1.0000
  O   O6        1.0  0.9603772760233653  0.6194767618308675  0.9523186478098039  1.0000
  O   O7        1.0  0.8776428902706923  0.23653789915704246  0.551480483402848  1.0000
  O   O8        1.0  0.1331106615514059  0.7686801898737629  0.04873710283359858  1.0000
  O   O9        1.0  0.03403754683647969  0.2466845920887834  0.44108175281053963  1.0000
  O   O10       1.0  0.9519588936491628  0.7507499546314162  0.9381141453887735  1.0000
  O   O11       1.0  0.5387229504174869  0.38772236664755866  0.5443953799284103  1.0000
  O   O12       1.0  0.47343648147852235  0.6184595401767865  0.0480197762329908  1.0000
  O   O13       1.0  0.697836792968175  0.3078227369320601  0.4625699083665539  1.0000
  O   O14       1.0  0.2941946710280662  0.6940641523472307  0.96238815609037  1.0000
  O   O15       1.0  0.3638497960750655  0.22933835579684106  0.4646830833447808  1.0000
  O   O16       1.0  0.626362446305066  0.7726951960765476  0.9573804576202533  1.0000
  O   O17       1.0  0.35345995010882086  0.3590792969554143  0.43209455585719775  1.0000
  O   O18       1.0  0.6302275133037866  0.6419319077395542  0.9343800113016699  1.0000
  O   O19       1.0  0.2070388138428925  0.3135257631599302  0.5419459456571545  1.0000
  O   O20       1.0  0.8025286347178308  0.6925988909694069  0.04065156242734961  1.0000
  O   O21       1.0  0.724775780952271  0.1062205195396118  0.2581852328977162  1.0000
  O   O22       1.0  0.7555829199424052  0.0043812332599131  0.29530696940626905  1.0000
  O   O23       1.0  0.30442149644370176  0.8564144946575922  0.7729653195272591  1.0000
  O   O24       1.0  0.24513323176378063  0.9617273554790553  0.7548543533516038  1.0000
  O   O25       1.0  0.3253795148808649  0.3131280441637045  0.10329566849502919  1.0000
  O   O26       1.0  0.2173057481230742  0.3711935818791261  0.020978422966372503  1.0000
  O   O27       1.0  0.5917121849463953  0.6889249031680293  0.6125217742129933  1.0000
  O   O28       1.0  0.6772062141120045  0.6356159766460933  0.5270409915632683  1.0000
  O   O29       1.0  0.2747986253397912  0.27067505584125945  0.3142107658847593  1.0000
  O   O30       1.0  0.9728946832660411  0.314915029229887  0.33403415483468984  1.0000
  O   O31       1.0  0.3274056688939737  0.645438198639077  0.8414844277045077  1.0000
  O   O32       1.0  0.5579353927166224  0.722322316427025  0.809948872836479  1.0000
