data_image0
_chemical_formula_structural       Al4H24C32N4O20
_chemical_formula_sum              "Al4 H24 C32 N4 O20"
_cell_length_a       6.686192894382773
_cell_length_b       11.638302302832251
_cell_length_c       17.67441516929303
_cell_angle_alpha    90.06318070961649
_cell_angle_beta     91.15782209485992
_cell_angle_gamma    90.67252235910271

_space_group_name_H-M_alt    "P 1"
_space_group_IT_number       1

loop_
  _space_group_symop_operation_xyz
  'x, y, z'

loop_
  _atom_site_type_symbol
  _atom_site_label
  _atom_site_symmetry_multiplicity
  _atom_site_fract_x
  _atom_site_fract_y
  _atom_site_fract_z
  _atom_site_occupancy
  Al  Al1       1.0  0.9949003602868273  0.9959703392809021  0.5037582682617908  1.0000
  Al  Al2       1.0  0.495004434970255  0.9989082997632366  0.49984593828045104  1.0000
  Al  Al3       1.0  0.004580036694662187  0.4981612827081322  0.9998771477667385  1.0000
  Al  Al4       1.0  0.5050260473464975  0.4957092228588209  0.0007052547511606003  1.0000
  H   H1        1.0  0.23952001096848363  0.8490251633206468  0.48055329833449867  1.0000
  H   H2        1.0  0.7514381872074267  0.15213312424636172  0.49855361161934275  1.0000
  H   H3        1.0  0.2608002668651608  0.6472702152523624  0.016018998494182295  1.0000
  H   H4        1.0  0.7572933710746524  0.3494451074615128  0.021714630407750193  1.0000
  H   H5        1.0  0.056042259124744497  0.7510191119556994  0.8344173006563476  1.0000
  H   H6        1.0  0.43799053783905617  0.6548414515128372  0.8013198588856907  1.0000
  H   H7        1.0  0.04220349690798029  0.8593062449602797  0.7112868712379663  1.0000
  H   H8        1.0  0.556584082175327  0.23974779555101833  0.17286180592596873  1.0000
  H   H9        1.0  0.9444607802913865  0.3415197030892046  0.19494811641973794  1.0000
  H   H10       1.0  0.5344555219022809  0.13346570172269173  0.29616751219944587  1.0000
  H   H11       1.0  0.938504619730665  0.24871945635774753  0.8245704800776676  1.0000
  H   H12       1.0  0.5558732421968245  0.3485803267389613  0.803894287610674  1.0000
  H   H13       1.0  0.957339680193776  0.14231858898453004  0.7008387895730476  1.0000
  H   H14       1.0  0.0669266054793667  0.6505748636173722  0.2144723492672681  1.0000
  H   H15       1.0  0.4532660000290533  0.7325691862003723  0.16525097135225753  1.0000
  H   H16       1.0  0.0432751230420223  0.7523420722413193  0.3389982997132391  1.0000
  H   H17       1.0  0.36837857920614436  0.8105462609784978  0.625557866651256  1.0000
  H   H18       1.0  0.26119115509130353  0.7212503021998345  0.6936608616306398  1.0000
  H   H19       1.0  0.8671724568945366  0.18567568072371904  0.3695736512135283  1.0000
  H   H20       1.0  0.7622699967826778  0.27635024629010024  0.3010051547876528  1.0000
  H   H21       1.0  0.627772985167809  0.19529973415757237  0.6283774912899884  1.0000
  H   H22       1.0  0.7349835843334631  0.2851369710906368  0.6975558170324161  1.0000
  H   H23       1.0  0.3764829702872418  0.8878677837978374  0.3399230630696336  1.0000
  H   H24       1.0  0.2740881907271984  0.8448847626283539  0.2517541349991744  1.0000
  C   C1        1.0  0.7391383541628471  0.8639092268639033  0.395340839734473  1.0000
  C   C2        1.0  0.74591854212008  0.8738942455197858  0.6119781298843134  1.0000
  C   C3        1.0  0.2548317283447474  0.12972385230880693  0.607504458448936  1.0000
  C   C4        1.0  0.23798915135595422  0.12281310981981622  0.39083972554319485  1.0000
  C   C5        1.0  0.7653991172437742  0.6258044136390951  0.10835717097359776  1.0000
  C   C6        1.0  0.7478846514439185  0.6282550992039617  0.8954727955269983  1.0000
  C   C7        1.0  0.24332903721592203  0.36992084939376474  0.893142230450891  1.0000
  C   C8        1.0  0.258538714666976  0.36383010605037935  0.10562182816171624  1.0000
  C   C9        1.0  0.7376813726045485  0.8135544645860121  0.6850676265418014  1.0000
  C   C10       1.0  0.7465634673957596  0.6953490059112684  0.8234807665183224  1.0000
  C   C11       1.0  0.5597050928448013  0.7577981554549067  0.7105151987667495  1.0000
  C   C12       1.0  0.9205074796751801  0.7529158279278436  0.7992110977561777  1.0000
  C   C13       1.0  0.5706445752118087  0.6990371478499071  0.7804757983115562  1.0000
  C   C14       1.0  0.9123304608705282  0.8114595136723467  0.7311050862026104  1.0000
  C   C15       1.0  0.2332883853080006  0.18228475718440515  0.3171459329297263  1.0000
  C   C16       1.0  0.250861705170017  0.2982661968303191  0.17818400203523044  1.0000
  C   C17       1.0  0.059517863540541796  0.23894011283002212  0.28826384749782347  1.0000
  C   C18       1.0  0.4206984733793533  0.23989837311170703  0.20584668594317174  1.0000
  C   C19       1.0  0.0740767374903228  0.2964390070802452  0.21809403880809689  1.0000
  C   C20       1.0  0.4082300342849834  0.18223478414341807  0.2740356562792455  1.0000
  C   C21       1.0  0.26065548151476753  0.19122287864816914  0.680399017774725  1.0000
  C   C22       1.0  0.2472029348522753  0.30620113637100843  0.8197614237158813  1.0000
  C   C23       1.0  0.4362971714852506  0.24821058753089187  0.7093978114965862  1.0000
  C   C24       1.0  0.0743656635668941  0.2488303568320589  0.7915671539942576  1.0000
  C   C25       1.0  0.42399737378675434  0.30483714101461606  0.7799259326029284  1.0000
  C   C26       1.0  0.08503622250852767  0.19138257581098372  0.72322833817865  1.0000
  C   C27       1.0  0.7386109218659057  0.8024632382815965  0.32230777704356217  1.0000
  C   C28       1.0  0.7602446102107265  0.6884472336550759  0.18229953560349083  1.0000
  C   C29       1.0  0.5665161137868608  0.7982446807604548  0.2728804257388829  1.0000
  C   C30       1.0  0.9302503608588213  0.6931073554820629  0.2308532928448414  1.0000
  C   C31       1.0  0.5831588901731024  0.7391512290559561  0.20339843110882325  1.0000
  C   C32       1.0  0.9157850148109504  0.748960444388459  0.2996662198336181  1.0000
  N   N1        1.0  0.3845051993896789  0.7558431854830446  0.6699686049887671  1.0000
  N   N2        1.0  0.8849261484268497  0.24243821298263407  0.3265332777285578  1.0000
  N   N3        1.0  0.6111079068382353  0.25253364333975986  0.6711276997005127  1.0000
  N   N4        1.0  0.39074644316024626  0.8492314180364603  0.2889685478164948  1.0000
  O   O1        1.0  0.9069705450851374  0.8848787380797204  0.42888627123215867  1.0000
  O   O2        1.0  0.5797099873796228  0.8961504782958942  0.5776408159462745  1.0000
  O   O3        1.0  0.4213263603822525  0.10525588218631302  0.5763389257106792  1.0000
  O   O4        1.0  0.07097924888385168  0.09802035573439842  0.4219513507463899  1.0000
  O   O5        1.0  0.08385463723572428  0.10342531127083987  0.5785702453074675  1.0000
  O   O6        1.0  0.40949698335003865  0.098730516019657  0.41965288649869575  1.0000
  O   O7        1.0  0.5696571197691256  0.8943089004622776  0.42164141614907164  1.0000
  O   O8        1.0  0.9172169824017545  0.9005110726942008  0.5860067440247929  1.0000
  O   O9        1.0  0.24440406116085708  0.9254695114804719  0.502346819935809  1.0000
  O   O10       1.0  0.7470543468423613  0.0690274615124977  0.4993914389071745  1.0000
  O   O11       1.0  0.9358579325427029  0.5955866361456971  0.08489010295694747  1.0000
  O   O12       1.0  0.5795307172757448  0.5929189538213394  0.919030280017807  1.0000
  O   O13       1.0  0.41083753021068503  0.38824306915719836  0.9267424713198903  1.0000
  O   O14       1.0  0.09179112255035451  0.3854581137926019  0.07280874967494097  1.0000
  O   O15       1.0  0.07360132730894968  0.40143353705635576  0.9164310283442131  1.0000
  O   O16       1.0  0.4307015737003894  0.3936925187637073  0.08233879050383307  1.0000
  O   O17       1.0  0.5977577012597237  0.6070494944452065  0.07457517693531197  1.0000
  O   O18       1.0  0.9164844588675934  0.6103539986629231  0.9281067116246927  1.0000
  O   O19       1.0  0.2569709126342516  0.5668627764279394  0.0020186726684201994  1.0000
  O   O20       1.0  0.7543330213452463  0.4265625184006936  0.0012590402029246993  1.0000
