data_image0
_chemical_formula_structural       Na4H48C28N20O24
_chemical_formula_sum              "Na4 H48 C28 N20 O24"
_cell_length_a       7.3672421337769585
_cell_length_b       9.594373990277274
_cell_length_c       17.48789455357482
_cell_angle_alpha    90.00085509346395
_cell_angle_beta     99.52145537658215
_cell_angle_gamma    89.99999584894387

_space_group_name_H-M_alt    "P 1"
_space_group_IT_number       1

loop_
  _space_group_symop_operation_xyz
  'x, y, z'

loop_
  _atom_site_type_symbol
  _atom_site_label
  _atom_site_symmetry_multiplicity
  _atom_site_fract_x
  _atom_site_fract_y
  _atom_site_fract_z
  _atom_site_occupancy
  Na  Na1       1.0  0.33334108558579356  0.14199483189222661  0.4744479667382249  1.0000
  Na  Na2       1.0  0.16666130640323473  0.6419937510590259  0.5255537643206336  1.0000
  Na  Na3       1.0  0.6666558199328565  0.8580068027210715  0.5255527379332887  1.0000
  Na  Na4       1.0  0.8333384475769351  0.35801205268972336  0.47444882712267844  1.0000
  H   H1        1.0  0.2602106498820476  0.10995111005362908  0.015949903460331396  1.0000
  H   H2        1.0  0.2397928890221621  0.6099499148179676  0.9840493434349749  1.0000
  H   H3        1.0  0.7397916628366304  0.8900442708759543  0.9840494094954972  1.0000
  H   H4        1.0  0.7602079833794518  0.39004859292744953  0.01594873920157617  1.0000
  H   H5        1.0  0.3243626098712014  0.8059178695017339  0.9057433395813275  1.0000
  H   H6        1.0  0.17563997319344082  0.3059211811000538  0.09425403887291137  1.0000
  H   H7        1.0  0.6756410787965024  0.19408063826142552  0.09425605589854767  1.0000
  H   H8        1.0  0.8243635223408036  0.694077326616565  0.9057419131419235  1.0000
  H   H9        1.0  0.3529762169566765  0.9900998435136262  0.9114552489879341  1.0000
  H   H10       1.0  0.14702278243809272  0.4901019584025336  0.08854286585621197  1.0000
  H   H11       1.0  0.6470302557882022  0.009898664259523602  0.08854488542442596  1.0000
  H   H12       1.0  0.8529752736941704  0.5098944647701559  0.9114539039281975  1.0000
  H   H13       1.0  0.8631847112895131  0.894033957630349  0.2787319280376223  1.0000
  H   H14       1.0  0.6368107873807176  0.3940323289286739  0.7212654329363343  1.0000
  H   H15       1.0  0.13681766580535282  0.10596038103726364  0.721268532735486  1.0000
  H   H16       1.0  0.36318442030959375  0.6059724324384066  0.2787294501291767  1.0000
  H   H17       1.0  0.9641453551143117  0.038887462523057116  0.23792487495767023  1.0000
  H   H18       1.0  0.5358535463072728  0.5388844362450274  0.7620766165915352  1.0000
  H   H19       1.0  0.03585561384424808  0.9611047915807093  0.7620749293849582  1.0000
  H   H20       1.0  0.46415279769338724  0.46112136743949617  0.2379212222083139  1.0000
  H   H21       1.0  0.9723931460723207  0.6446341427404577  0.23941435893291182  1.0000
  H   H22       1.0  0.5276015077799486  0.14463044967881444  0.7605797447502449  1.0000
  H   H23       1.0  0.027603534110916397  0.3553591535986627  0.7605823283274517  1.0000
  H   H24       1.0  0.47241446783290547  0.8553774385684961  0.23941867163416922  1.0000
  H   H25       1.0  0.2933390352136627  0.27444212339840135  0.31132661318041227  1.0000
  H   H26       1.0  0.20665666620126893  0.7744454516308965  0.6886718082258054  1.0000
  H   H27       1.0  0.7066538712363838  0.7255647226300043  0.6886761396240357  1.0000
  H   H28       1.0  0.7933353471285046  0.22555514084782402  0.3113394707039843  1.0000
  H   H29       1.0  0.5279610102722428  0.37671895392664123  0.5593560441302612  1.0000
  H   H30       1.0  0.9720416680205661  0.8767218323659667  0.44064789598326104  1.0000
  H   H31       1.0  0.47203871150924215  0.6232805961494352  0.4406459733757655  1.0000
  H   H32       1.0  0.027962149412559287  0.12328292909312921  0.5593537951664229  1.0000
  H   H33       1.0  0.5176960607664755  0.03114118143701461  0.61803228264651  1.0000
  H   H34       1.0  0.9823040958023981  0.5311445584242025  0.3819675041888927  1.0000
  H   H35       1.0  0.4822979640984856  0.9688541994781165  0.38196596133354876  1.0000
  H   H36       1.0  0.01769425004636819  0.4688622875931543  0.6180344308371628  1.0000
  H   H37       1.0  0.35227123906297925  0.9206633700241795  0.6068587680048265  1.0000
  H   H38       1.0  0.1477290155528124  0.42066225286967557  0.3931405637650655  1.0000
  H   H39       1.0  0.6477285470963212  0.07933618006740774  0.3931443973228709  1.0000
  H   H40       1.0  0.8522692981037779  0.5793425085849577  0.6068607973413334  1.0000
  H   H41       1.0  0.6291296645494954  0.23575752071392492  0.5847345632269023  1.0000
  H   H42       1.0  0.8708724438767135  0.7357565861234577  0.41526588895455036  1.0000
  H   H43       1.0  0.37086999285905625  0.7642451561790937  0.4152663064706628  1.0000
  H   H44       1.0  0.1291272779112944  0.2642471330625611  0.5847361285690977  1.0000
  H   H45       1.0  0.4247015240017974  0.3721053588816049  0.36997910716830507  1.0000
  H   H46       1.0  0.07529573020466532  0.8721018901330311  0.6300179271266726  1.0000
  H   H47       1.0  0.5752899743200999  0.6279046139703868  0.6300229892277044  1.0000
  H   H48       1.0  0.9247042490848331  0.12789557545012542  0.36998868165726134  1.0000
  C   C1        1.0  0.24499140835138894  0.8918424606721023  0.000814760214268499  1.0000
  C   C2        1.0  0.2550100998359285  0.3918441749703022  0.9991838363960849  1.0000
  C   C3        1.0  0.7550080881028264  0.10815396251722124  0.9991832399026419  1.0000
  C   C4        1.0  0.7449921163274383  0.6081585018784141  0.0008137548580790963  1.0000
  C   C5        1.0  0.13571556257553402  0.7701338583542496  0.09453812070199057  1.0000
  C   C6        1.0  0.36428550036233537  0.2701267858981354  0.9054582986202315  1.0000
  C   C7        1.0  0.8642784300988852  0.22986048027564016  0.9054595493628237  1.0000
  C   C8        1.0  0.6357235311373515  0.7298717218307049  0.09453855734872715  1.0000
  C   C9        1.0  0.9905046269139107  0.9332285676667738  0.2613480421241618  1.0000
  C   C10       1.0  0.5094953153730445  0.4332274086526766  0.7386533413630756  1.0000
  C   C11       1.0  0.009493622348550381  0.0667657709974847  0.7386521711164772  1.0000
  C   C12       1.0  0.490507029550848  0.5667783950595222  0.26134654554767417  1.0000
  C   C13       1.0  0.13938545463975063  0.9404316785586249  0.33343781170691483  1.0000
  C   C14       1.0  0.36060523023394353  0.44043482530798866  0.6665611097085316  1.0000
  C   C15       1.0  0.8606126980543466  0.05956161780488153  0.6665606797967951  1.0000
  C   C16       1.0  0.6393861715179553  0.559573062965761  0.3334392649461505  1.0000
  C   C17       1.0  0.10913671775364261  0.8911897359658881  0.13590452110451418  1.0000
  C   C18       1.0  0.3908660999533637  0.3911888414173816  0.8640930046631038  1.0000
  C   C19       1.0  0.8908613383753662  0.10880460265183702  0.8640922486710775  1.0000
  C   C20       1.0  0.6091415878041461  0.6088180045379874  0.13590434274113505  1.0000
  C   C21       1.0  0.0286658518565233  0.7050689764310861  0.19626394619751145  1.0000
  C   C22       1.0  0.47132815994849847  0.20506436599298186  0.8037320841634921  1.0000
  C   C23       1.0  0.9713308927094317  0.294927446756006  0.8037338888977599  1.0000
  C   C24       1.0  0.5286809359371675  0.7949393531388014  0.19626591964918552  1.0000
  C   C25       1.0  0.16236834834953132  0.023945742718048304  0.11113064524282376  1.0000
  C   C26       1.0  0.3376322982881136  0.5239440595830872  0.8888700048260741  1.0000
  C   C27       1.0  0.8376299009145568  0.9760496382236926  0.8888695680022278  1.0000
  C   C28       1.0  0.6623699178736189  0.4760575749881399  0.11112758642367736  1.0000
  N   N1        1.0  0.22496880228938215  0.014124446030621103  0.04022392207416908  1.0000
  N   N2        1.0  0.2750316848638619  0.5141257215736843  0.9597743492939015  1.0000
  N   N3        1.0  0.7750306941648405  0.9858719771587025  0.9597740780427413  1.0000
  N   N4        1.0  0.7249704669167869  0.4858738284270673  0.0402220941253546  1.0000
  N   N5        1.0  0.0869167996017879  0.6547542672596905  0.13350548852744737  1.0000
  N   N6        1.0  0.4130811504064554  0.1547544798438523  0.8664897899063528  1.0000
  N   N7        1.0  0.9130784724549272  0.34524319818049787  0.8664905423288827  1.0000
  N   N8        1.0  0.5869278489108468  0.8452481969871785  0.13350649216939559  1.0000
  N   N9        1.0  0.20166901188622433  0.7670623989390181  0.02720317504033429  1.0000
  N   N10       1.0  0.2983320414479849  0.2670602731992134  0.9727932183239498  1.0000
  N   N11       1.0  0.7983250129836252  0.23293610880856622  0.9727950689529545  1.0000
  N   N12       1.0  0.7016714862768013  0.7329392768026467  0.02720330760612909  1.0000
  N   N13       1.0  0.0384836069235845  0.8465748781546337  0.20045045553208493  1.0000
  N   N14       1.0  0.46151356739265037  0.3465722391058464  0.7995463628258289  1.0000
  N   N15       1.0  0.9615159217130156  0.1534173759325057  0.7995481184780429  1.0000
  N   N16       1.0  0.5384942169315892  0.653434606872786  0.2004527063109335  1.0000
  N   N17       1.0  0.31078092735185686  0.8984693672838806  0.9341489015263842  1.0000
  N   N18       1.0  0.18921778530309297  0.39846878429583654  0.06584843828228767  1.0000
  N   N19       1.0  0.6892254488246652  0.1015280981885169  0.06584951114904668  1.0000
  N   N20       1.0  0.8107830227190719  0.6015286811565802  0.9341484965281733  1.0000
  O   O1        1.0  0.09934966392540191  0.014443930663411198  0.3892504956805779  1.0000
  O   O2        1.0  0.400642793883442  0.5144441108098193  0.6107513006960658  1.0000
  O   O3        1.0  0.9006485531448902  0.9855483234381168  0.6107491436404046  1.0000
  O   O4        1.0  0.5993417281461573  0.48556273518086374  0.3892486614000956  1.0000
  O   O5        1.0  0.2876996219738643  0.873340293347326  0.3346520333722224  1.0000
  O   O6        1.0  0.2122897989048695  0.3733475761777499  0.6653519771894734  1.0000
  O   O7        1.0  0.712300067608922  0.12665300305607732  0.6653494101965121  1.0000
  O   O8        1.0  0.7877032684913489  0.6266603121669194  0.3346536451735885  1.0000
  O   O9        1.0  0.15840358297787563  0.1384904232809916  0.14586597352001715  1.0000
  O   O10       1.0  0.34160564556940903  0.6384846744658291  0.854135566521563  1.0000
  O   O11       1.0  0.8416001378754744  0.8615059999349485  0.854133995861886  1.0000
  O   O12       1.0  0.6583924427566573  0.3615148755470798  0.14586177718691565  1.0000
  O   O13       1.0  0.5767388226086396  0.29175325611407044  0.5386750984874381  1.0000
  O   O14       1.0  0.9232677820073364  0.7917514820724707  0.4613295183081545  1.0000
  O   O15       1.0  0.42326099574609094  0.7082504630952188  0.4613286407687338  1.0000
  O   O16       1.0  0.07673750793665587  0.20825327941101082  0.5386739770848761  1.0000
  O   O17       1.0  0.42848112460092114  0.9813975458368632  0.5790641250457325  1.0000
  O   O18       1.0  0.07151669693970321  0.48139926439631614  0.42093785105647885  1.0000
  O   O19       1.0  0.5715131577769482  0.018598877417801404  0.4209387102254565  1.0000
  O   O20       1.0  0.9284817132868711  0.5186075816365516  0.5790652317912544  1.0000
  O   O21       1.0  0.3142177917720232  0.3087629542635782  0.3644391201640928  1.0000
  O   O22       1.0  0.1857822092480603  0.8087638046150264  0.6355609868764416  1.0000
  O   O23       1.0  0.6857737065482398  0.6912459763109242  0.6355629762275113  1.0000
  O   O24       1.0  0.8142208438204364  0.1912347033254065  0.36445152604194647  1.0000
