data_image0
_chemical_formula_structural       Cd2H28C38N8O8
_chemical_formula_sum              "Cd2 H28 C38 N8 O8"
_cell_length_a       8.547823664218432
_cell_length_b       9.195486566559874
_cell_length_c       15.350420564147147
_cell_angle_alpha    88.14585149032152
_cell_angle_beta     84.25483747919903
_cell_angle_gamma    76.76008393625858

_space_group_name_H-M_alt    "P 1"
_space_group_IT_number       1

loop_
  _space_group_symop_operation_xyz
  'x, y, z'

loop_
  _atom_site_type_symbol
  _atom_site_label
  _atom_site_symmetry_multiplicity
  _atom_site_fract_x
  _atom_site_fract_y
  _atom_site_fract_z
  _atom_site_occupancy
  Cd  Cd1       1.0  0.7690316216334239  0.7108102153992563  0.9299744988962644  1.0000
  Cd  Cd2       1.0  0.23096866099560026  0.2891897203678723  0.07002529079105811  1.0000
  H   H1        1.0  0.19053334688467066  0.6968514274039848  0.8181122454235491  1.0000
  H   H2        1.0  0.8094669357443536  0.30314850836314383  0.1818875442637733  1.0000
  H   H3        1.0  0.02003486575424062  0.5156130388308854  0.6418029023741668  1.0000
  H   H4        1.0  0.9799665791479343  0.4843869083274581  0.35819551647069403  1.0000
  H   H5        1.0  0.21719992912067454  0.3411518209045852  0.541576389562394  1.0000
  H   H6        1.0  0.7828047837277199  0.6588492379798012  0.4584237735727257  1.0000
  H   H7        1.0  0.4330637697807873  0.14473186170145166  0.6034534108167124  1.0000
  H   H8        1.0  0.5669388824546858  0.8552680659904226  0.39654819532485425  1.0000
  H   H9        1.0  0.4594167040473137  0.13796631898235032  0.7637469338048462  1.0000
  H   H10       1.0  0.5405815244059511  0.8620324811840234  0.23625495005165936  1.0000
  H   H11       1.0  0.7845689322406457  0.8087775538803541  0.7308932871135383  1.0000
  H   H12       1.0  0.2154313503883785  0.1912223818867673  0.2691065025737771  1.0000
  H   H13       1.0  0.7262200620193298  0.8519230431501088  0.5744917370470048  1.0000
  H   H14       1.0  0.27377904546222  0.1480768900422902  0.4255081211573001  1.0000
  H   H15       1.0  0.4655514510360208  0.8273073017816441  0.5265579066590647  1.0000
  H   H16       1.0  0.5344476564455293  0.17269263141074734  0.4734419515452403  1.0000
  H   H17       1.0  0.25036947236725393  0.7635924664207536  0.632893039363637  1.0000
  H   H18       1.0  0.7496299119219928  0.23640634954507792  0.3671068224876778  1.0000
  H   H19       1.0  0.25124601665695684  0.6083376982749726  0.9760872447208158  1.0000
  H   H20       1.0  0.7487542659720673  0.39166223749215584  0.023912544966506688  1.0000
  H   H21       1.0  0.4354579524032403  0.632076814715802  0.014189405349433993  1.0000
  H   H22       1.0  0.564542330225791  0.3679231210513266  0.9858103843378885  1.0000
  H   H23       1.0  0.38218335566747913  0.9792069731733336  0.9599911580659892  1.0000
  H   H24       1.0  0.6178171973320872  0.020791849775470397  0.040007984105606915  1.0000
  H   H25       1.0  0.07214311044734252  0.7417594229522564  0.10606057246616983  1.0000
  H   H26       1.0  0.927858637011191  0.2582393893465564  0.8939404546766596  1.0000
  H   H27       1.0  0.9967462261414466  0.0403832827323782  0.1592723366991962  1.0000
  H   H28       1.0  0.003257871612035495  0.9596155347159083  0.8407285534096688  1.0000
  C   C1        1.0  0.00086540891788899  0.5301676321257034  0.8154104504654356  1.0000
  C   C2        1.0  0.9991325234161865  0.4698322984919583  0.1845894762558515  1.0000
  C   C3        1.0  0.12849323481119512  0.42514629773513235  0.7586171836562201  1.0000
  C   C4        1.0  0.8715049678934149  0.5748525200642051  0.24138209554934062  1.0000
  C   C5        1.0  0.11708112839800584  0.43246562755463447  0.6680654614332653  1.0000
  C   C6        1.0  0.8829205997490348  0.5675331979689061  0.3319336122213486  1.0000
  C   C7        1.0  0.22697405191652817  0.3335950733879045  0.6120031845145633  1.0000
  C   C8        1.0  0.7730274058599775  0.6664048649539609  0.38799653665577694  1.0000
  C   C9        1.0  0.34912058189024714  0.22538280313869313  0.6461256535306533  1.0000
  C   C10       1.0  0.6508808823234206  0.7746171307949224  0.35387471880242327  1.0000
  C   C11       1.0  0.3637266066617287  0.21982603475521503  0.7357180671504794  1.0000
  C   C12       1.0  0.6362727905018489  0.7801727723941313  0.2642830970263148  1.0000
  C   C13       1.0  0.25538601128869226  0.319824501866151  0.7926621043033466  1.0000
  C   C14       1.0  0.7446130833185336  0.680175440142726  0.20733645157547903  1.0000
  C   C15       1.0  0.27793810547125725  0.3102791646848501  0.8883995293031292  1.0000
  C   C16       1.0  0.7220586581524983  0.6897207589498392  0.11160111709786952  1.0000
  C   C17       1.0  0.5476011680587191  0.7649692477497751  0.7695043786938458  1.0000
  C   C18       1.0  0.4523976626151339  0.23503180266918375  0.23049547586344227  1.0000
  C   C19       1.0  0.6688114346660967  0.8001835890367061  0.7098242921729394  1.0000
  C   C20       1.0  0.3311862208602818  0.1998174588075159  0.2901756309013238  1.0000
  C   C21       1.0  0.6353063390370508  0.8229953815579307  0.6228093746811397  1.0000
  C   C22       1.0  0.3646936667842766  0.177005671435758  0.37719041135916603  1.0000
  C   C23       1.0  0.4862767553892269  0.8098569592110181  0.5953947145256251  1.0000
  C   C24       1.0  0.5137214666268761  0.1901418453635982  0.4046065181681514  1.0000
  C   C25       1.0  0.36501329143791156  0.7745984309853355  0.6539959566374023  1.0000
  C   C26       1.0  0.6349864375757122  0.2254037392349204  0.3460038257558935  1.0000
  C   C27       1.0  0.3978451167054758  0.7534356479126387  0.7414319857542538  1.0000
  C   C28       1.0  0.602153997213243  0.2465642808715174  0.2585685236127873  1.0000
  C   C29       1.0  0.3978269971253568  0.7109704660991057  0.8840973949021207  1.0000
  C   C30       1.0  0.6021732919408295  0.2890294652597801  0.11590304594793821  1.0000
  C   C31       1.0  0.3345415997574008  0.6833549119478234  0.9759600934401007  1.0000
  C   C32       1.0  0.6654601348268017  0.3166439091674746  0.024039631377256412  1.0000
  C   C33       1.0  0.2876386013164662  0.9567117810843301  0.007296535983663006  1.0000
  C   C34       1.0  0.7123619645574237  0.043287033047995686  0.9927039085134127  1.0000
  C   C35       1.0  0.12077146458080532  0.8371201693040932  0.0838762127808579  1.0000
  C   C36       1.0  0.8792300060700243  0.16287976022128697  0.9161248107149549  1.0000
  C   C37       1.0  0.08777251161794199  0.9833145314065703  0.1099868611183652  1.0000
  C   C38       1.0  0.9122289654700495  0.0166853937105742  0.8900148135401835  1.0000
  N   N1        1.0  0.5434368938047456  0.7372602804603119  0.8591500133898436  1.0000
  N   N2        1.0  0.45656310557942004  0.26274077694161946  0.14084912148772594  1.0000
  N   N3        1.0  0.30731566759973106  0.7195611400724219  0.8155266097632251  1.0000
  N   N4        1.0  0.6926846150292932  0.28043879569470676  0.18447317992409754  1.0000
  N   N5        1.0  0.24733084392602228  0.8228077907398229  0.018749434287720104  1.0000
  N   N6        1.0  0.7526708970953493  0.17719102596723246  0.9812509416923734  1.0000
  N   N7        1.0  0.19232144226582196  0.0564929958684601  0.061566153942948204  1.0000
  N   N8        1.0  0.8076814739030169  0.9435058234133322  0.9384341535201629  1.0000
  O   O1        1.0  0.8768724959904901  0.4875522121691276  0.8476624451172654  1.0000
  O   O2        1.0  0.123126321809032  0.5124488470663165  0.152336107114543  1.0000
  O   O3        1.0  0.016073725600271937  0.6647383629822626  0.8244021614085426  1.0000
  O   O4        1.0  0.9839256586889746  0.33526045298356894  0.17559770044277204  1.0000
  O   O5        1.0  0.17332356162722823  0.40064795771343137  0.9396806795297723  1.0000
  O   O6        1.0  0.8266720268490528  0.5993519633465214  0.060320035388208716  1.0000
  O   O7        1.0  0.39438894018419296  0.2153256220329354  0.9159892716964252  1.0000
  O   O8        1.0  0.6056107952665999  0.7846765437790777  0.08401116185960691  1.0000
