data_image0
_chemical_formula_structural       Ag4H48C48N12O8
_chemical_formula_sum              "Ag4 H48 C48 N12 O8"
_cell_length_a       7.300787813784357
_cell_length_b       11.445138571
_cell_length_c       15.053
_cell_angle_alpha    90.0
_cell_angle_beta     101.92306719657346
_cell_angle_gamma    90.0

_space_group_name_H-M_alt    "P 1"
_space_group_IT_number       1

loop_
  _space_group_symop_operation_xyz
  'x, y, z'

loop_
  _atom_site_type_symbol
  _atom_site_label
  _atom_site_symmetry_multiplicity
  _atom_site_fract_x
  _atom_site_fract_y
  _atom_site_fract_z
  _atom_site_occupancy
  Ag  Ag1       1.0  0.21640759466921375  0.9884371368525535  0.0051939049265783  1.0000
  Ag  Ag2       1.0  0.7835868333804898  0.488437948157717  0.494810120561084  1.0000
  Ag  Ag3       1.0  0.7835714342916875  0.0115577456034615  0.9948019343595149  1.0000
  Ag  Ag4       1.0  0.21640479483488664  0.5115359646963569  0.5051989389349956  1.0000
  H   H1        1.0  0.046362456627733216  0.7570742762307103  0.06263866590332869  1.0000
  H   H2        1.0  0.9536501703450997  0.2570829511365957  0.43736319722224687  1.0000
  H   H3        1.0  0.9536389710077915  0.24292322742554967  0.9373700468678123  1.0000
  H   H4        1.0  0.0463764557993755  0.7428970778513815  0.5626367470404148  1.0000
  H   H5        1.0  0.9779345333839657  0.6689801047407542  0.20449525123261478  1.0000
  H   H6        1.0  0.02208089342319401  0.1689922745802974  0.2955035708427616  1.0000
  H   H7        1.0  0.0220570948314105  0.3310252625162349  0.7955104866664442  1.0000
  H   H8        1.0  0.9779499324727681  0.8309982392086468  0.7044914796848971  1.0000
  H   H9        1.0  0.21788170744260077  0.9744862354275128  0.3505757854185346  1.0000
  H   H10       1.0  0.7820889220153193  0.4744905416663272  0.1494218695047138  1.0000
  H   H11       1.0  0.7821267197787451  0.0255121419621673  0.6494276498450234  1.0000
  H   H12       1.0  0.21788170744260077  0.525485992387992  0.8505797713349634  1.0000
  H   H13       1.0  0.277848559067266  0.05204567828556609  0.20337055997138975  1.0000
  H   H14       1.0  0.7221220703906539  0.5520509831143058  0.29663041654887917  1.0000
  H   H15       1.0  0.7221598681540797  0.9479474567036232  0.7966355325697876  1.0000
  H   H16       1.0  0.2778709577418823  0.4479272984068459  0.7033721400265661  1.0000
  H   H17       1.0  0.3761717410604106  0.156354594476845  0.7018907025856577  1.0000
  H   H18       1.0  0.623828286657947  0.6563695103731391  0.7981079051210073  1.0000
  H   H19       1.0  0.6238198871549656  0.843689217050368  0.2981097207581555  1.0000
  H   H20       1.0  0.3761507423029543  0.3436655638199326  0.20188926280389544  1.0000
  H   H21       1.0  0.5296460596350556  0.3380754174356753  0.7734365582597036  1.0000
  H   H22       1.0  0.4703721670064312  0.8380885858651438  0.7265578941266637  1.0000
  H   H23       1.0  0.4703553680004617  0.6619544143569129  0.2265827836219216  1.0000
  H   H24       1.0  0.5296390600492416  0.161938624727199  0.2734152629911009  1.0000
  H   H25       1.0  0.5596154862757532  0.3669444431753206  0.942114147797703  1.0000
  H   H26       1.0  0.4403761419396233  0.8669488742706477  0.5578756464356401  1.0000
  H   H27       1.0  0.440366342519475  0.6330626715484939  0.057902565936757376  1.0000
  H   H28       1.0  0.5596406847847035  0.13305736671976118  0.44209541449814777  1.0000
  H   H29       1.0  0.4880391216124452  0.14252863693003798  0.0956675453572444  1.0000
  H   H30       1.0  0.5119315078454747  0.642504234822688  0.40433542412124257  1.0000
  H   H31       1.0  0.511945507017117  0.8574610031255006  0.9043288550224914  1.0000
  H   H32       1.0  0.4880923184646663  0.35744870842944465  0.5956655682334071  1.0000
  H   H33       1.0  0.5160388648038037  0.2958784621953328  0.0834037324726395  1.0000
  H   H34       1.0  0.4839149656481539  0.7958523126211645  0.4165849316562245  1.0000
  H   H35       1.0  0.4839093659794998  0.7041199151943403  0.916603635825318  1.0000
  H   H36       1.0  0.5160850620702037  0.20410499929804615  0.5833930821488946  1.0000
  H   H37       1.0  0.2865168461449557  0.2347878956056348  0.0688634603088403  1.0000
  H   H38       1.0  0.7134425839756562  0.7347757257660916  0.43112177899723747  1.0000
  H   H39       1.0  0.7134453838099832  0.7651860172484389  0.9311393318485841  1.0000
  H   H40       1.0  0.2865700429971768  0.2651938184209186  0.5688714479760789  1.0000
  H   H41       1.0  0.21325498121653655  0.9855267308497488  0.7225821213421496  1.0000
  H   H42       1.0  0.7867520460876349  0.4855450168231954  0.7774198450091916  1.0000
  H   H43       1.0  0.7867716449279316  0.014494363608697798  0.2774005506159866  1.0000
  H   H44       1.0  0.21322418303893906  0.5144821937691475  0.22259298603460553  1.0000
  H   H45       1.0  0.177228113008475  0.9319371656212354  0.8256625458357759  1.0000
  H   H46       1.0  0.8227845139643579  0.4319484617273658  0.6743446318450379  1.0000
  H   H47       1.0  0.8227915135501789  0.06807519150306969  0.17431743179709264  1.0000
  H   H48       1.0  0.1771973148308703  0.5680595267298685  0.3256820466804982  1.0000
  C   C1        1.0  0.0841588201307317  0.8021309609358338  0.1280508329906951  1.0000
  C   C2        1.0  0.915852406924941  0.3021492469092806  0.371946239625636  1.0000
  C   C3        1.0  0.9158426075047927  0.1978647952536008  0.8719585440998543  1.0000
  C   C4        1.0  0.08416861955088002  0.6978395194128381  0.6280445073911238  1.0000
  C   C5        1.0  0.0486331222672689  0.7531066527966814  0.20735433127457975  1.0000
  C   C6        1.0  0.9513613057824346  0.2531266862369534  0.292640393741415  1.0000
  C   C7        1.0  0.9513599058652673  0.2468891033927534  0.7926508825784779  1.0000
  C   C8        1.0  0.04865832077621952  0.7468708174193068  0.7073575205153871  1.0000
  C   C9        1.0  0.095493949405288  0.8141640175166386  0.289449032964363  1.0000
  C   C10       1.0  0.9045004786444153  0.3141718186891111  0.2105556568427076  1.0000
  C   C11       1.0  0.9045032784787423  0.1858352336064542  0.7105652378611964  1.0000
  C   C12       1.0  0.0955107484112503  0.6858099577656915  0.7894414157736235  1.0000
  C   C13       1.0  0.18140826565930726  0.9232959421544746  0.2883181656768485  1.0000
  C   C14       1.0  0.8185749630530879  0.4232993746598837  0.21168407330412004  1.0000
  C   C15       1.0  0.8186015614791985  0.07670593016885618  0.7116920530541647  1.0000
  C   C16       1.0  0.18142086491378256  0.5766850229951643  0.7883107919852888  1.0000
  C   C17       1.0  0.2143791146989997  0.9666366144340514  0.20687930882181857  1.0000
  C   C18       1.0  0.7856139134335438  0.4666400469394532  0.2931245763924366  1.0000
  C   C19       1.0  0.785629312522346  0.0333600154887961  0.7931241264417392  1.0000
  C   C20       1.0  0.2143847143676538  0.5333417295153495  0.7068798699154613  1.0000
  C   C21       1.0  0.0479177645966189  0.7672401645053029  0.3764170433771525  1.0000
  C   C22       1.0  0.952104661796362  0.2672733039467872  0.12359310917575779  1.0000
  C   C23       1.0  0.9520850629560726  0.23274860181681584  0.6236044317360978  1.0000
  C   C24       1.0  0.0479303638510871  0.7327408006443434  0.8764050194497555  1.0000
  C   C25       1.0  0.327807402888567  0.0875026539685209  0.8285850934824592  1.0000
  C   C26       1.0  0.6721940247469504  0.5875053375970154  0.6714090042617753  1.0000
  C   C27       1.0  0.6721982244984448  0.9125149455562677  0.17140278188796293  1.0000
  C   C28       1.0  0.3277990033855858  0.4124956609929029  0.3285908950360436  1.0000
  C   C29       1.0  0.3923463839699082  0.1726540913193446  0.7742780461693284  1.0000
  C   C30       1.0  0.6076564435827763  0.6726637648151552  0.7257201777647495  1.0000
  C   C31       1.0  0.607646644162628  0.8273748667398308  0.22572118880908928  1.0000
  C   C32       1.0  0.3923365845497671  0.3273564559098787  0.27427241401962016  1.0000
  C   C33       1.0  0.4746965111251314  0.2732548829006234  0.8142694820918662  1.0000
  C   C34       1.0  0.5253077163447204  0.7732671775966722  0.6857295464350271  1.0000
  C   C35       1.0  0.5253035165932332  0.7267732014251393  0.18573909040586759  1.0000
  C   C36       1.0  0.4746923113736373  0.2267582855288452  0.3142597607999633  1.0000
  C   C37       1.0  0.4908165572652479  0.2900663875238649  0.907819228526094  1.0000
  C   C38       1.0  0.5091778707844625  0.7900681974189467  0.5921688532958526  1.0000
  C   C39       1.0  0.5091694712814815  0.709950338267511  0.09218661259871647  1.0000
  C   C40       1.0  0.4908375560226973  0.2099319274375588  0.40781136783618877  1.0000
  C   C41       1.0  0.4218958354614913  0.20478039522724598  0.9580327990171894  1.0000
  C   C42       1.0  0.5780915930023909  0.7047813313889151  0.5419678678257966  1.0000
  C   C43       1.0  0.5780817935822498  0.7952188558958396  0.0419708718283474  1.0000
  C   C44       1.0  0.4219168342189478  0.2952021925327202  0.458028259924312  1.0000
  C   C45       1.0  0.4289976152329943  0.2203704205373924  0.05725035168981659  1.0000
  C   C46       1.0  0.5709660146391116  0.720358250697842  0.4427406229917351  1.0000
  C   C47       1.0  0.5709646147219447  0.7796183457847263  0.9427477902317776  1.0000
  C   C48       1.0  0.4290438124993942  0.279611293489161  0.5572516591153515  1.0000
  N   N1        1.0  0.1651244292110405  0.9081087079482941  0.1276570760105926  1.0000
  N   N2        1.0  0.83487139875583  0.4080999081858963  0.3723377892788164  1.0000
  N   N3        1.0  0.8348769984244842  0.0918940381084496  0.8723430006082892  1.0000
  N   N4        1.0  0.16514682788565696  0.5918731309347649  0.6276593203851701  1.0000
  N   N5        1.0  0.3409498252214789  0.1048025755703179  0.9189852194862452  1.0000
  N   N6        1.0  0.6590390031595776  0.6048026379985743  0.5810102730749164  1.0000
  N   N7        1.0  0.6590362033252435  0.8952080340871547  0.08100467797285661  1.0000
  N   N8        1.0  0.3409554248901331  0.39518962325720247  0.41898843785750717  1.0000
  N   N9        1.0  0.2554288856904563  0.9851195710787195  0.7911838700408252  1.0000
  N   N10       1.0  0.7445739418622281  0.48513610958533343  0.7088243186843213  1.0000
  N   N11       1.0  0.7445907408681977  0.014896280979243698  0.2088027507860915  1.0000
  N   N12       1.0  0.2554022872643458  0.5148823636728679  0.29119648419232647  1.0000
  O   O1        1.0  0.007776539844407202  0.840592705830332  0.4312993808919784  1.0000
  O   O2        1.0  0.9922206880396234  0.340616234204262  0.0686996105872666  1.0000
  O   O3        1.0  0.9922248877911173  0.1594170300937279  0.5687046816433322  1.0000
  O   O4        1.0  0.007798938519023602  0.6593978703868686  0.9313009609471479  1.0000
  O   O5        1.0  0.050098835537674816  0.6555132516271911  0.38460875084751917  1.0000
  O   O6        1.0  0.9498899928433746  0.1555254214667414  0.11538009851959431  1.0000
  O   O7        1.0  0.9498913927605417  0.3444938630966305  0.615400168375146  1.0000
  O   O8        1.0  0.0501450328040818  0.844475577123184  0.8846054080372241  1.0000
