data_image0
_chemical_formula_structural       Mn4H32C52N4O20
_chemical_formula_sum              "Mn4 H32 C52 N4 O20"
_cell_length_a       12.516231365987403
_cell_length_b       12.517221603816054
_cell_length_c       13.321825682423443
_cell_angle_alpha    64.27502672713548
_cell_angle_beta     64.27013902623878
_cell_angle_gamma    90.10720666999823

_space_group_name_H-M_alt    "P 1"
_space_group_IT_number       1

loop_
  _space_group_symop_operation_xyz
  'x, y, z'

loop_
  _atom_site_type_symbol
  _atom_site_label
  _atom_site_symmetry_multiplicity
  _atom_site_fract_x
  _atom_site_fract_y
  _atom_site_fract_z
  _atom_site_occupancy
  Mn  Mn1       1.0  1.3296498806920972e-05  0.5000005535368005  0.9999982738938158  1.0000
  Mn  Mn2       1.0  0.4999911955866808  0.9999879326458229  0.49999849459373286  1.0000
  Mn  Mn3       1.0  0.3055368812760335  0.6944776348367797  0.7500026058629461  1.0000
  Mn  Mn4       1.0  0.6944602987358052  0.3055226015785166  0.24999320176757325  1.0000
  H   H1        1.0  0.1463067169495744  0.2546986988873742  0.2371953363370451  1.0000
  H   H2        1.0  0.7453247611767467  0.8537111275478184  0.2627450999953355  1.0000
  H   H3        1.0  0.8536985482665644  0.745301710708688  0.7628030463224531  1.0000
  H   H4        1.0  0.2546813137653245  0.14628479335928546  0.7372585645629357  1.0000
  H   H5        1.0  0.26529174985508774  0.13536910089044343  0.3393756721482503  1.0000
  H   H6        1.0  0.8646241842638178  0.7346936931915452  0.1605862447769581  1.0000
  H   H7        1.0  0.7347139653591768  0.8646294634332393  0.6606210379369982  1.0000
  H   H8        1.0  0.1353847937493597  0.26529949006938836  0.8394143481021673  1.0000
  H   H9        1.0  0.5991897004382524  0.34946298260990016  0.9943988570998173  1.0000
  H   H10       1.0  0.6504618914565725  0.40088700312832515  0.5056056616076248  1.0000
  H   H11       1.0  0.40081368633229186  0.6505328874774036  0.0056044438652379  1.0000
  H   H12       1.0  0.34954535010571414  0.5991024905714114  0.49439493315314575  1.0000
  H   H13       1.0  0.4803337198874048  0.4629317443720922  0.8887033637734162  1.0000
  H   H14       1.0  0.5370326516047683  0.5197836763667852  0.6112744857382211  1.0000
  H   H15       1.0  0.5196764820185109  0.5370706224966143  0.1112981607714261  1.0000
  H   H16       1.0  0.4629689987148851  0.48020850415932154  0.3887288171084791  1.0000
  H   H17       1.0  0.20796669884280317  0.7527185890688771  0.9925413187143732  1.0000
  H   H18       1.0  0.2472612752416055  0.792019617282719  0.5074779403638063  1.0000
  H   H19       1.0  0.7920383895289191  0.24728906627224492  0.007451875267989339  1.0000
  H   H20       1.0  0.7527165783357506  0.20798134160412474  0.4925278481097592  1.0000
  H   H21       1.0  0.1526023068044821  0.9159988783507272  0.051076298219570146  1.0000
  H   H22       1.0  0.08398714195139692  0.8474093984772112  0.4489239295247034  1.0000
  H   H23       1.0  0.8473916551122471  0.08400236473360681  0.9489301875639313  1.0000
  H   H24       1.0  0.9160086178757966  0.152616276078696  0.5510603993475625  1.0000
  H   H25       1.0  0.895961474280348  0.9506046976400597  0.9058511447261922  1.0000
  H   H26       1.0  0.0494117939573968  0.10402564231598889  0.5941492863552967  1.0000
  H   H27       1.0  0.10402023692224557  0.0493891799610537  0.0941672437123842  1.0000
  H   H28       1.0  0.9505944731124603  0.8959992819648689  0.4058339920670448  1.0000
  H   H29       1.0  0.9626398149518495  0.783765124473348  0.8566051167545866  1.0000
  H   H30       1.0  0.2162464403570681  0.037319187857868  0.6434121230669022  1.0000
  H   H31       1.0  0.03734695424547139  0.21623153962664077  0.14341001289607652  1.0000
  H   H32       1.0  0.7837479263631977  0.9626882952860498  0.3565818429166187  1.0000
  C   C1        1.0  0.23822564429755028  0.44091243456261253  0.9941961333464847  1.0000
  C   C2        1.0  0.5591184752775007  0.7618333900838791  0.5057907560836341  1.0000
  C   C3        1.0  0.7617739605861615  0.5590861734987057  0.005811354974433444  1.0000
  C   C4        1.0  0.4408790964783549  0.2381568121203799  0.4942068049516664  1.0000
  C   C5        1.0  0.3065300346591471  0.36469199650750284  0.05593448669403499  1.0000
  C   C6        1.0  0.6352984699741812  0.6935299577475433  0.44402596979917064  1.0000
  C   C7        1.0  0.6934790326427702  0.6353094067741126  0.9440649065800742  1.0000
  C   C8        1.0  0.3647048965974236  0.3064621806801782  0.555972133195425  1.0000
  C   C9        1.0  0.24534105810914045  0.2719840431385947  0.18324849582236163  1.0000
  C   C10       1.0  0.7280120708481166  0.7546991580740471  0.31670296886454696  1.0000
  C   C11       1.0  0.7546662412164624  0.7280173504380514  0.8167523866804984  1.0000
  C   C12       1.0  0.2719945448532144  0.24529200476665386  0.6832866823510744  1.0000
  C   C13       1.0  0.3110875956302196  0.20632186819113232  0.2404348070355056  1.0000
  C   C14       1.0  0.7936508621472458  0.6889307334454386  0.2595337252476426  1.0000
  C   C15       1.0  0.6889193270929539  0.7936740213061029  0.7595655154720476  1.0000
  C   C16       1.0  0.20635725121019285  0.3110543337293805  0.7404766041599231  1.0000
  C   C17       1.0  0.4388761289982952  0.23398914387831843  0.17293019182118746  1.0000
  C   C18       1.0  0.7659661596268778  0.5611585761329536  0.3270406341132031  1.0000
  C   C19       1.0  0.5611286867105179  0.7660094000518783  0.8270661496914328  1.0000
  C   C20       1.0  0.23404207122040793  0.4388354470427275  0.6729554158940444  1.0000
  C   C21       1.0  0.4998171356474615  0.32611469663638104  0.04549042745224336  1.0000
  C   C22       1.0  0.6738425180468539  0.5002490240445141  0.4544821432579765  1.0000
  C   C23       1.0  0.5001930248789677  0.6738876287896433  0.9545081285939149  1.0000
  C   C24       1.0  0.3261582840008898  0.4997468988296916  0.5455282153605695  1.0000
  C   C25       1.0  0.4342188488859122  0.38981419718846416  0.9870477108010931  1.0000
  C   C26       1.0  0.6101550273316789  0.5658622128625196  0.5129171902944237  1.0000
  C   C27       1.0  0.5657870905912219  0.6101890109063889  0.012953733578719012  1.0000
  C   C28       1.0  0.3898512004407593  0.4341308574145801  0.4870785862434774  1.0000
  C   C29       1.0  0.5088805758749828  0.1722381211744235  0.2399289253402229  1.0000
  C   C30       1.0  0.8277036112217715  0.4911419159230023  0.26005612168154346  1.0000
  C   C31       1.0  0.49112545768759475  0.8277577582899982  0.7600717707193709  1.0000
  C   C32       1.0  0.1723085740508523  0.5088539612464658  0.7399367646410653  1.0000
  C   C33       1.0  0.13970496934396687  0.8008765965061786  0.9777295201809081  1.0000
  C   C34       1.0  0.1991165208880191  0.8602783090912641  0.5222854484691054  1.0000
  C   C35       1.0  0.8602829099525026  0.19912913723420897  0.02227837776409555  1.0000
  C   C36       1.0  0.8008669990607232  0.13973629940386453  0.47770781146178354  1.0000
  C   C37       1.0  0.10727331960644187  0.8923842163518999  0.0074109425595240315  1.0000
  C   C38       1.0  0.10760650047681242  0.8927300119200293  0.49258747040926953  1.0000
  C   C39       1.0  0.8927195180511519  0.1076160735060014  0.9925941540779136  1.0000
  C   C40       1.0  0.8923877683428927  0.10729292662896481  0.5073993651674229  1.0000
  C   C41       1.0  0.01843513068973829  0.9523844407883219  0.9833111528409547  1.0000
  C   C42       1.0  0.047619404719384306  0.9815712076633291  0.5166829358745204  1.0000
  C   C43       1.0  0.9815525798833348  0.0476085742096046  0.016703600159885916  1.0000
  C   C44       1.0  0.9523804863775638  0.018449075141312197  0.48330341799024273  1.0000
  C   C45       1.0  0.9665371918073262  0.9121873934800252  0.9264311668460365  1.0000
  C   C46       1.0  0.08781219810719422  0.033456468568708396  0.5735700003075479  1.0000
  C   C47       1.0  0.033451684895162294  0.08780290524877192  0.07358423007842423  1.0000
  C   C48       1.0  0.9121921698273354  0.9665638954820536  0.4264167121710116  1.0000
  C   C49       1.0  0.0015269594012607792  0.8211909001103452  0.8965962207197008  1.0000
  C   C50       1.0  0.17882236864531362  0.9984450789489546  0.6034150454627039  1.0000
  C   C51       1.0  0.9984582040133886  0.1788103358918107  0.10342067970625396  1.0000
  C   C52       1.0  0.8211683995622964  0.0015660335592286986  0.3965811599514311  1.0000
  N   N1        1.0  0.08806120104159731  0.7672242094755435  0.9212903743974721  1.0000
  N   N2        1.0  0.23276895200550743  0.9119237799297013  0.578717452998852  1.0000
  N   N3        1.0  0.9119349995393127  0.23277521876272536  0.07871443383236695  1.0000
  N   N4        1.0  0.7672189239666595  0.08808636964708681  0.421278852497977  1.0000
  O   O1        1.0  0.3005943997219447  0.521061729560337  0.8779263790070502  1.0000
  O   O2        1.0  0.4790160626985767  0.6994943233748359  0.6220770843438643  1.0000
  O   O3        1.0  0.699397763183846  0.4789394727370109  0.12207936963119433  1.0000
  O   O4        1.0  0.520975049834597  0.30049486540607256  0.3779213288576315  1.0000
  O   O5        1.0  0.12282390173186293  0.42044986772990717  0.06245477408886296  1.0000
  O   O6        1.0  0.5795854293982715  0.8772332837942614  0.43753855538837894  1.0000
  O   O7        1.0  0.8771802680359073  0.5795296448735456  0.9375557474068899  1.0000
  O   O8        1.0  0.42042368075553344  0.1227570281153305  0.5624526652210307  1.0000
  O   O9        1.0  0.6235055639239562  0.2205294433302072  0.18264701840728034  1.0000
  O   O10       1.0  0.7794026102827659  0.37652903300386253  0.31735678449600596  1.0000
  O   O11       1.0  0.37649862924821054  0.7794663539045457  0.8173499720083727  1.0000
  O   O12       1.0  0.22060326761594243  0.623470401988726  0.6826364934146625  1.0000
  O   O13       1.0  0.4518019421587098  0.07947106270465551  0.3494951366227355  1.0000
  O   O14       1.0  0.9204834768057211  0.5482003728512838  0.15047728095576196  1.0000
  O   O15       1.0  0.5482005455971758  0.9205210760509175  0.6505040820485704  1.0000
  O   O16       1.0  0.07953440919720826  0.45180476917208506  0.8495168956463532  1.0000
  O   O17       1.0  0.12134240658050284  0.6796312436330324  0.8907803822608856  1.0000
  O   O18       1.0  0.3203808680984324  0.878631526960902  0.6092151153365679  1.0000
  O   O19       1.0  0.8786574611120557  0.3203727545403083  0.10921950268397754  1.0000
  O   O20       1.0  0.679606112674179  0.12136676450951706  0.3907849865935589  1.0000
