data_image0
_chemical_formula_structural       Dy2H14C16N6O12
_chemical_formula_sum              "Dy2 H14 C16 N6 O12"
_cell_length_a       6.151188357490394
_cell_length_b       9.206041907593466
_cell_length_c       9.323334351641686
_cell_angle_alpha    85.11104670572988
_cell_angle_beta     71.80369257963574
_cell_angle_gamma    85.47222189757662

_space_group_name_H-M_alt    "P 1"
_space_group_IT_number       1

loop_
  _space_group_symop_operation_xyz
  'x, y, z'

loop_
  _atom_site_type_symbol
  _atom_site_label
  _atom_site_symmetry_multiplicity
  _atom_site_fract_x
  _atom_site_fract_y
  _atom_site_fract_z
  _atom_site_occupancy
  Dy  Dy1       1.0  0.3779727512675563  0.6830941916977056  0.4706707136386471  1.0000
  Dy  Dy2       1.0  0.6220258535127385  0.31690395800789867  0.5293278658933361  1.0000
  H   H1        1.0  0.7206977593277982  0.8891737531221293  0.7513085512537573  1.0000
  H   H2        1.0  0.27930779248354304  0.11082322860186623  0.2486918866666983  1.0000
  H   H3        1.0  0.9296080220227552  0.9705930937610816  0.916562523264659  1.0000
  H   H4        1.0  0.0703957371382842  0.029404988668027005  0.083438207799297  1.0000
  H   H5        1.0  0.8014194117514394  0.8923318168253475  0.19553282572929484  1.0000
  H   H6        1.0  0.1985789694586586  0.10766956771907125  0.804468784765163  1.0000
  H   H7        1.0  0.8510986667353535  0.5727177767992516  0.3677076461924358  1.0000
  H   H8        1.0  0.14889962767875892  0.4272847129848429  0.6322928298997965  1.0000
  H   H9        1.0  0.8944089379381454  0.439286592241828  0.1249872330696674  1.0000
  H   H10       1.0  0.1055880293749283  0.5607104881296436  0.8750106913256843  1.0000
  H   H11       1.0  0.8766764132623308  0.7539722881736497  0.5389797462085539  1.0000
  H   H12       1.0  0.12332522447331937  0.24603127547914747  0.4610199574745764  1.0000
  H   H13       1.0  0.895683897050432  0.5999310700987123  0.6270977911216136  1.0000
  H   H14       1.0  0.10431268537306689  0.4000714286308522  0.37290304015481  1.0000
  C   C1        1.0  0.4363199623515825  0.7212252664953384  0.0914801266219243  1.0000
  C   C2        1.0  0.5636801247128389  0.2787761225836505  0.9085200563268072  1.0000
  C   C3        1.0  0.3737608917339087  0.024406704824436104  0.505305680763307  1.0000
  C   C4        1.0  0.6262408705033452  0.9755947561892812  0.4946877128320679  1.0000
  C   C5        1.0  0.6719734823033505  0.8550145959873774  0.8709317669512374  1.0000
  C   C6        1.0  0.32803019006169615  0.14498459168139988  0.1290678297104932  1.0000
  C   C7        1.0  0.492133307573063  0.7618880399038944  0.9359680247860211  1.0000
  C   C8        1.0  0.5078668724236478  0.2381122304553855  0.06403436492645652  1.0000
  C   C9        1.0  0.3615309765796439  0.7047502748284702  0.848675938911704  1.0000
  C   C10       1.0  0.6384675598135487  0.29524893967671056  0.1513247233026291  1.0000
  C   C11       1.0  0.7867334579555915  0.9006911189471938  0.9637244330462024  1.0000
  C   C12       1.0  0.21326850241883477  0.09930807766704673  0.036275518799726604  1.0000
  C   C13       1.0  0.25572585868379594  0.6203967174102943  0.16149394286756552  1.0000
  C   C14       1.0  0.7442726715730998  0.37960251057491223  0.838505646985233  1.0000
  C   C15       1.0  0.7172583940050146  0.8569520440556745  0.11840220298095971  1.0000
  C   C16       1.0  0.28274177371910275  0.14304825326367174  0.88159804200847  1.0000
  N   N1        1.0  0.5442572228214857  0.77016137291281  0.18257333337653855  1.0000
  N   N2        1.0  0.4557393657383102  0.2298411123367217  0.8174285702614198  1.0000
  N   N3        1.0  0.14675551686112692  0.565954256504057  0.0780163403872933  1.0000
  N   N4        1.0  0.8532396823468318  0.4340438706523885  0.9219861665976622  1.0000
  N   N5        1.0  0.2041871180920723  0.609505236093341  0.9274235642466736  1.0000
  N   N6        1.0  0.7958114244374171  0.3904939649318067  0.07257817032918017  1.0000
  O   O1        1.0  0.25748679048646034  0.9351923251574022  0.469139805780074  1.0000
  O   O2        1.0  0.7425100523250165  0.06480685785314932  0.5308644287030332  1.0000
  O   O3        1.0  0.3060691261270136  0.15198256496848472  0.5496469019410527  1.0000
  O   O4        1.0  0.6939308680051185  0.848019942830206  0.450351074243926  1.0000
  O   O5        1.0  0.39017568368544187  0.7415942873264144  0.710746711811737  1.0000
  O   O6        1.0  0.6098212336494271  0.2584038174045276  0.2892565123505406  1.0000
  O   O7        1.0  0.20436311219044265  0.584792966924347  0.30564947086190836  1.0000
  O   O8        1.0  0.7956368880779863  0.4152095273943104  0.6943495776845907  1.0000
  O   O9        1.0  0.6956968771506666  0.539180483002056  0.40725716556190866  1.0000
  O   O10       1.0  0.30430328443715393  0.4608198277973301  0.5927420070659933  1.0000
  O   O11       1.0  0.9691918834823098  0.6943016951620465  0.5956636290996259  1.0000
  O   O12       1.0  0.0308081290587197  0.30570077219654473  0.4043375641699285  1.0000
