data_image0
_chemical_formula_structural       Na4H32C12S12N12O12
_chemical_formula_sum              "Na4 H32 C12 S12 N12 O12"
_cell_length_a       7.725865153834964
_cell_length_b       10.351502542570074
_cell_length_c       12.600261561202728
_cell_angle_alpha    90.00008030588543
_cell_angle_beta     90.00058504811958
_cell_angle_gamma    108.96241863650624

_space_group_name_H-M_alt    "P 1"
_space_group_IT_number       1

loop_
  _space_group_symop_operation_xyz
  'x, y, z'

loop_
  _atom_site_type_symbol
  _atom_site_label
  _atom_site_symmetry_multiplicity
  _atom_site_fract_x
  _atom_site_fract_y
  _atom_site_fract_z
  _atom_site_occupancy
  Na  Na1       1.0  0.059174696101947956  0.9147453716088446  0.4367829245664296  1.0000
  Na  Na2       1.0  0.9408269181063675  0.08525131974440109  0.9367811700558875  1.0000
  Na  Na3       1.0  0.4296949043513224  0.0803509899533381  0.6043912278028712  1.0000
  Na  Na4       1.0  0.5703103247349829  0.9196548153243281  0.1043898415434796  1.0000
  H   H1        1.0  0.11173515624125943  0.8680566201814273  0.6682465109109756  1.0000
  H   H2        1.0  0.8882721224084807  0.13194550675875394  0.16824381210947334  1.0000
  H   H3        1.0  0.0556907002331926  0.0019754948141824  0.6673664806260006  1.0000
  H   H4        1.0  0.9443074609688084  0.9980235623913244  0.16736594234806287  1.0000
  H   H5        1.0  0.5700655781799214  0.1873639654213903  0.8045415436912932  1.0000
  H   H6        1.0  0.429941353993918  0.812641074787919  0.30453915242417645  1.0000
  H   H7        1.0  0.3674395115209991  0.0831357237424442  0.8354965543875323  1.0000
  H   H8        1.0  0.6325675369865353  0.9168654281462238  0.3354971422001255  1.0000
  H   H9        1.0  0.48366183955559455  0.8374885903278864  0.5449272022671963  1.0000
  H   H10       1.0  0.5163348734930795  0.1625147926221473  0.0449293516554334  1.0000
  H   H11       1.0  0.6268061860400425  0.862858156710267  0.6361527559885188  1.0000
  H   H12       1.0  0.3731905194430355  0.1371417227434435  0.1361523914688192  1.0000
  H   H13       1.0  0.7410997165030511  0.9810339484504242  0.4888768755480655  1.0000
  H   H14       1.0  0.2589016551377554  0.0189661400280201  0.9888763260749228  1.0000
  H   H15       1.0  0.8334978283830383  0.10190730896903229  0.4079600752413626  1.0000
  H   H16       1.0  0.16650929300542563  0.8980912411219675  0.907959977925735  1.0000
  H   H17       1.0  0.42891577069359965  0.0022120602266398  0.36730324406049414  1.0000
  H   H18       1.0  0.5710897516472642  0.9977903163064495  0.8673034177079585  1.0000
  H   H19       1.0  0.364139002069777  0.1312008188568754  0.37774099532963124  1.0000
  H   H20       1.0  0.6358619503924742  0.8687995815156738  0.8777414235436679  1.0000
  H   H21       1.0  0.9096134674076314  0.8058269031766513  0.24593155033609543  1.0000
  H   H22       1.0  0.09038104221281879  0.19417265581355986  0.7459277695896559  1.0000
  H   H23       1.0  0.1073621549058076  0.858974204844593  0.19775546506800618  1.0000
  H   H24       1.0  0.8926331582557697  0.14102606800211956  0.6977534740275003  1.0000
  H   H25       1.0  0.028907871526470733  0.5755252312648124  0.9618566515458438  1.0000
  H   H26       1.0  0.9710947144756548  0.4244757061250298  0.4618540211463582  1.0000
  H   H27       1.0  0.0413926093901793  0.5546453769945074  0.638393551853234  1.0000
  H   H28       1.0  0.9586167182223805  0.44535962373231536  0.13839086774165568  1.0000
  H   H29       1.0  0.46449868760936425  0.4276295807055846  0.41797160081795676  1.0000
  H   H30       1.0  0.5354939056809942  0.5723649478989186  0.917968671625978  1.0000
  H   H31       1.0  0.44196753342755823  0.4404880103484172  0.09338145047990308  1.0000
  H   H32       1.0  0.558025712699177  0.5595085316595103  0.5933818219184771  1.0000
  C   C1        1.0  0.8423231197207246  0.3899479369554655  0.7110087427801872  1.0000
  C   C2        1.0  0.157683735122518  0.6100575275285891  0.2110059953320373  1.0000
  C   C3        1.0  0.04859894465715798  0.5885479873111378  0.7991958118031801  1.0000
  C   C4        1.0  0.9513993082129065  0.4114611050780326  0.2991906618423598  1.0000
  C   C5        1.0  0.8361691676092778  0.4023323489162038  0.8957509274815151  1.0000
  C   C6        1.0  0.16382740205735763  0.5976691881107286  0.3957482040321025  1.0000
  C   C7        1.0  0.6587456717537563  0.5985207643976055  0.3482094720459443  1.0000
  C   C8        1.0  0.3412520784528966  0.4014763830496193  0.848208299911299  1.0000
  C   C9        1.0  0.44024142619423406  0.4112993891089403  0.2553137807185308  1.0000
  C   C10       1.0  0.5597536703806867  0.5886981867792186  0.7553110226746753  1.0000
  C   C11       1.0  0.6436874114423151  0.6064465449194287  0.1627172483701713  1.0000
  C   C12       1.0  0.35631025470397765  0.3935545255993489  0.6627137803877972  1.0000
  S   S1        1.0  0.7801880903841154  0.3072774100449607  0.5949545595799889  1.0000
  S   S2        1.0  0.2198143667742229  0.6927283350876435  0.09495309202351618  1.0000
  S   S3        1.0  0.21611605564309852  0.738484477233726  0.794544140148183  1.0000
  S   S4        1.0  0.7838923814282879  0.2615184560867547  0.2945401456756116  1.0000
  S   S5        1.0  0.7683038732866977  0.3337715578825353  0.0159681442556661  1.0000
  S   S6        1.0  0.23169527073284968  0.6662295970646709  0.5159673898224709  1.0000
  S   S7        1.0  0.7127135166209443  0.6848707246636108  0.046093741098260886  1.0000
  S   S8        1.0  0.28727881110392434  0.3151255154247323  0.546088954994687  1.0000
  S   S9        1.0  0.275511266984843  0.25867930883410384  0.2556504697397343  1.0000
  S   S10       1.0  0.7244816922754824  0.7413192907869471  0.7556489228183098  1.0000
  S   S11       1.0  0.747867937481921  0.6631690204223872  0.4658287760995491  1.0000
  S   S12       1.0  0.2521225117338163  0.3368217278756944  0.9658293506165875  1.0000
  N   N1        1.0  0.7662396255409903  0.3379898661088632  0.8048176377019018  1.0000
  N   N2        1.0  0.2337642384459216  0.6620110899971651  0.3048122533501356  1.0000
  N   N3        1.0  0.9725104240710751  0.5279002798416528  0.8914991355655743  1.0000
  N   N4        1.0  0.027495487977041915  0.4720961221807515  0.3914922360773332  1.0000
  N   N5        1.0  0.9798728120929499  0.5150152987454105  0.7102227554264501  1.0000
  N   N6        1.0  0.02014045904046922  0.48498709596881184  0.2102158249470421  1.0000
  N   N7        1.0  0.721012540872863  0.66146351635755  0.2553140133820904  1.0000
  N   N8        1.0  0.27898595380695923  0.338529973407681  0.7553076154820885  1.0000
  N   N9        1.0  0.516999275483741  0.4751349399358701  0.3461923308245431  1.0000
  N   N10       1.0  0.48299236857865696  0.5248601518674362  0.8461858424299465  1.0000
  N   N11       1.0  0.5051715452337291  0.4814313210682002  0.1645809881325206  1.0000
  N   N12       1.0  0.49482005008415103  0.5185646541041321  0.664572979192691  1.0000
  O   O1        1.0  0.1147664319838669  0.9469320814684328  0.6239697080182935  1.0000
  O   O2        1.0  0.8852365085298434  0.05306771993977579  0.1239668977013935  1.0000
  O   O3        1.0  0.47800716519836345  0.09490188479462348  0.7915478200036147  1.0000
  O   O4        1.0  0.5219955915681922  0.9051000081266095  0.2915445266952402  1.0000
  O   O5        1.0  0.5782524912296338  0.9119856242270642  0.582396605743014  1.0000
  O   O6        1.0  0.4217462438110361  0.08801799788621881  0.0823972814651484  1.0000
  O   O7        1.0  0.8223047976521799  0.006770913077609501  0.42520803903570936  1.0000
  O   O8        1.0  0.17769663182870218  0.9932287688599145  0.9252065361442376  1.0000
  O   O9        1.0  0.3703296252463987  0.05076106967401729  0.4175036341902467  1.0000
  O   O10       1.0  0.6296720994197076  0.9492395845563235  0.9175033243270432  1.0000
  O   O11       1.0  0.024255235527149876  0.8888727012046972  0.24306221823291446  1.0000
  O   O12       1.0  0.9757400679331171  0.11112581794818507  0.7430615064731256  1.0000
