data_image0
_chemical_formula_structural       Zn2H30C46N6Cl8O8
_chemical_formula_sum              "Zn2 H30 C46 N6 Cl8 O8"
_cell_length_a       8.758087062133354
_cell_length_b       8.891781403708158
_cell_length_c       17.807320787888468
_cell_angle_alpha    89.32971550583558
_cell_angle_beta     75.7447764683177
_cell_angle_gamma    60.464972041971485

_space_group_name_H-M_alt    "P 1"
_space_group_IT_number       1

loop_
  _space_group_symop_operation_xyz
  'x, y, z'

loop_
  _atom_site_type_symbol
  _atom_site_label
  _atom_site_symmetry_multiplicity
  _atom_site_fract_x
  _atom_site_fract_y
  _atom_site_fract_z
  _atom_site_occupancy
  Zn  Zn1       1.0  0.8089662327083362  0.2498597134771218  0.7499493773315821  1.0000
  Zn  Zn2       1.0  0.19101616652856993  0.7501350048607237  0.25004537550263717  1.0000
  H   H1        1.0  0.16185129393682737  0.15182582131178896  0.6326266898263243  1.0000
  H   H2        1.0  0.9461068885316952  0.3473158282234722  0.8675197382459531  1.0000
  H   H3        1.0  0.8381159815472902  0.8481813991755659  0.3673804016318415  1.0000
  H   H4        1.0  0.05387403303053156  0.6526917840900668  0.13248414777074666  1.0000
  H   H5        1.0  0.45500677071060386  0.14377083635169907  0.6279576647387232  1.0000
  H   H6        1.0  0.22588445018438102  0.3566272556238062  0.872232084471918  1.0000
  H   H7        1.0  0.5449653296807215  0.8562315129082095  0.3720458777538554  1.0000
  H   H8        1.0  0.7740833474258295  0.6433994364351818  0.1277706911294345  1.0000
  H   H9        1.0  0.48595533958501147  0.25056394704811424  0.7500818449662534  1.0000
  H   H10       1.0  0.5140186580563012  0.7494592484336381  0.24991767721161312  1.0000
  H   H11       1.0  0.14721638260674316  0.9111407602453029  0.7683632020060788  1.0000
  H   H12       1.0  0.8270917141935218  0.5886047238503239  0.7314724496669031  1.0000
  H   H13       1.0  0.8527346794347468  0.08887723028838937  0.231654654670379  1.0000
  H   H14       1.0  0.17290692592438012  0.411392022619971  0.26851570881298414  1.0000
  H   H15       1.0  0.31574999170714324  0.5914952181591745  0.7215725607052904  1.0000
  H   H16       1.0  0.6289802409123699  0.908240049497998  0.7784115057250248  1.0000
  H   H17       1.0  0.6842690392045374  0.40851972760381733  0.27844372548022284  1.0000
  H   H18       1.0  0.3710265713452686  0.09175984849310483  0.22157868800616853  1.0000
  H   H19       1.0  0.21059706736657793  0.4837273840325055  0.6266190510566859  1.0000
  H   H20       1.0  0.321119232124495  0.01595814369929376  0.8735219534656127  1.0000
  H   H21       1.0  0.7894892008487066  0.5162428759197867  0.373385406772485  1.0000
  H   H22       1.0  0.6788985798025352  0.9840459416684342  0.12647398259822756  1.0000
  H   H23       1.0  0.9443769854223946  0.7002812088140191  0.5806323102032637  1.0000
  H   H24       1.0  0.22543523264250345  0.799484130156472  0.9194228695152307  1.0000
  H   H25       1.0  0.05571690452045176  0.2996413893735906  0.41935423428854796  1.0000
  H   H26       1.0  0.7745798817105652  0.20053145256004976  0.080586447185361  1.0000
  H   H27       1.0  0.790466314180144  0.016406164004777776  0.6342133719207227  1.0000
  H   H28       1.0  0.44133348581882376  0.48343351230916215  0.86568498133029  1.0000
  H   H29       1.0  0.20956892275114583  0.983531415400016  0.3657665998653884  1.0000
  H   H30       1.0  0.5586692794169964  0.5165802267926338  0.13432697235393934  1.0000
  C   C1        1.0  0.18471500253616585  0.19257903898446935  0.6842474631680419  1.0000
  C   C2        1.0  0.061445489032266085  0.306854873122859  0.815920908207062  1.0000
  C   C3        1.0  0.8152529213182333  0.8074268881231961  0.31575962556086523  1.0000
  C   C4        1.0  0.938523162236621  0.693157126927204  0.18408478979529977  1.0000
  C   C5        1.0  0.34552918777946934  0.19029713157935654  0.6822479762949457  1.0000
  C   C6        1.0  0.21764446547862792  0.3097823294577611  0.8179402925092065  1.0000
  C   C7        1.0  0.654440319351018  0.8097115261701477  0.31775501411537027  1.0000
  C   C8        1.0  0.7823168976113736  0.6902393798622272  0.18206314451585115  1.0000
  C   C9        1.0  0.3622033801424324  0.25024451008079046  0.7500847650593273  1.0000
  C   C10       1.0  0.6377592794678434  0.7497734775089883  0.2499192295065172  1.0000
  C   C11       1.0  0.10573722124263445  0.8588614193834161  0.7272993423412829  1.0000
  C   C12       1.0  0.6921924013753794  0.6408932280427991  0.7725939105303753  1.0000
  C   C13       1.0  0.8942543860150779  0.14113226472674267  0.27271020800418455  1.0000
  C   C14       1.0  0.30780149133747164  0.35910781118117546  0.22740034991294786  1.0000
  C   C15       1.0  0.197867681742217  0.6810405481431873  0.7017525253693649  1.0000
  C   C16       1.0  0.5808680602594832  0.8187084729415447  0.7982290741788632  1.0000
  C   C17       1.0  0.8021538379303481  0.31895813936686324  0.2982564630380011  1.0000
  C   C18       1.0  0.41913003620837946  0.18130065164262996  0.20176637389138824  1.0000
  C   C19       1.0  0.1394426262060195  0.6216521610525377  0.6488274694520159  1.0000
  C   C20       1.0  0.41009107159973734  0.8780835470715403  0.8512308756538262  1.0000
  C   C21       1.0  0.8606243402109687  0.37831223044943857  0.35117446865383073  1.0000
  C   C22       1.0  0.5899148329701804  0.12192399010598363  0.14876814752995668  1.0000
  C   C23       1.0  0.9904132954975469  0.741313206647668  0.6236719231019664  1.0000
  C   C24       1.0  0.35558964973945023  0.758449419058046  0.8763531361054363  1.0000
  C   C25       1.0  0.009658882269441395  0.25862374275214967  0.37631970044528634  1.0000
  C   C26       1.0  0.6444202506535747  0.2415659824588802  0.12365090556667716  1.0000
  C   C27       1.0  0.9057094047200634  0.9166852952351692  0.6525139173217414  1.0000
  C   C28       1.0  0.475153049826801  0.5831220967431179  0.8474227092815385  1.0000
  C   C29       1.0  0.09432617075969325  0.08326844330753862  0.34747762232316864  1.0000
  C   C30       1.0  0.524845071876506  0.4168884763114775  0.15258253964571375  1.0000
  C   C31       1.0  0.7582191919276939  0.3448042939075152  0.5956438648403123  1.0000
  C   C32       1.0  0.6981197620813901  0.15541447615637355  0.9041727512354216  1.0000
  C   C33       1.0  0.2417719500967761  0.6551917260743779  0.4043509305174099  1.0000
  C   C34       1.0  0.3018714851039093  0.8445948985013774  0.09582820498479805  1.0000
  C   C35       1.0  0.4055000156319438  0.6798163275698529  0.4998327733337364  1.0000
  C   C36       1.0  0.5855530542033522  0.8201743534562951  0.00018682119215193138  1.0000
  C   C37       1.0  0.5944972765801495  0.3201907074581883  0.500159823467314  1.0000
  C   C38       1.0  0.4144508257709276  0.17982742759653558  0.9998147241753089  1.0000
  C   C39       1.0  0.6273150022393782  0.42425672737644493  0.5447661819520918  1.0000
  C   C40       1.0  0.596069709861567  0.07585720931870557  0.9551331929807106  1.0000
  C   C41       1.0  0.3726909545972464  0.5757487828568983  0.4552255933725321  1.0000
  C   C42       1.0  0.4039342482757462  0.9241473981728703  0.044869216386679525  1.0000
  C   C43       1.0  0.5327556978830826  0.6048146173010026  0.5435050074220201  1.0000
  C   C44       1.0  0.6812242722285689  0.8952909897756884  0.9564332684955944  1.0000
  C   C45       1.0  0.46724823479848976  0.3951874067493081  0.4564881640876736  1.0000
  C   C46       1.0  0.3187789598160081  0.1047143545985065  0.04356715360251679  1.0000
  N   N1        1.0  0.04560168583092422  0.24957051178830622  0.7500791228831077  1.0000
  N   N2        1.0  0.954368546951713  0.7504351391369116  0.24992698079508816  1.0000
  N   N3        1.0  0.9624355407972732  0.9750333126146628  0.7029924915276881  1.0000
  N   N4        1.0  0.6407851026309717  0.5247428864191975  0.7968856380121353  1.0000
  N   N5        1.0  0.03756065775971969  0.02495156083515581  0.29700866585518787  1.0000
  N   N6        1.0  0.3592102429282208  0.4752600839520583  0.20311090797182635  1.0000
  Cl  Cl1       1.0  0.5702664486508697  0.7356730435502855  0.5982809962552764  1.0000
  Cl  Cl2       1.0  0.9045603706817648  0.7645952857676408  0.9016132199919726  1.0000
  Cl  Cl3       1.0  0.4297268745156162  0.26433552040463587  0.40171244191931527  1.0000
  Cl  Cl4       1.0  0.09543707653464392  0.2354105923128742  0.09838448280475384  1.0000
  Cl  Cl5       1.0  0.2804252015450359  0.9036596044746332  0.5038241417475363  1.0000
  Cl  Cl6       1.0  0.6886835867980214  0.59636663843623  0.9962195110005112  1.0000
  Cl  Cl7       1.0  0.7195609094026667  0.09635014548059227  0.49617352944272863  1.0000
  Cl  Cl8       1.0  0.3113171808734166  0.403637869126257  0.003777916151236119  1.0000
  O   O1        1.0  0.9173757270446147  0.3148457109817287  0.5712442721470553  1.0000
  O   O2        1.0  0.8026510381855094  0.1857710863743663  0.928554793293877  1.0000
  O   O3        1.0  0.08260672662845533  0.6851723337720159  0.428759948413692  1.0000
  O   O4        1.0  0.197327033441951  0.8142627998855261  0.07145061137224225  1.0000
  O   O5        1.0  0.6821133490113311  0.3182415825130321  0.662290732352581  1.0000
  O   O6        1.0  0.6622489697702606  0.18166133907088527  0.8375082643914241  1.0000
  O   O7        1.0  0.3178850546348287  0.6817364699035053  0.33769990112126186  1.0000
  O   O8        1.0  0.33775706214530044  0.8183311080094954  0.16249225692338606  1.0000
