data_image0
_chemical_formula_structural       Zn4H24C16O24
_chemical_formula_sum              "Zn4 H24 C16 O24"
_cell_length_a       7.786795301017499
_cell_length_b       9.03107427000624
_cell_length_c       8.862440131026272
_cell_angle_alpha    90.0001348604838
_cell_angle_beta     90.00024347024804
_cell_angle_gamma    89.99999321885586

_space_group_name_H-M_alt    "P 1"
_space_group_IT_number       1

loop_
  _space_group_symop_operation_xyz
  'x, y, z'

loop_
  _atom_site_type_symbol
  _atom_site_label
  _atom_site_symmetry_multiplicity
  _atom_site_fract_x
  _atom_site_fract_y
  _atom_site_fract_z
  _atom_site_occupancy
  Zn  Zn1       1.0  0.8985406446286321  0.07168148331435023  0.1118671126526181  1.0000
  Zn  Zn2       1.0  0.6014580864904602  0.9283154915879238  0.6118698334522321  1.0000
  Zn  Zn3       1.0  0.3985409134488194  0.4283166107744878  0.8881302441946062  1.0000
  Zn  Zn4       1.0  0.1014598378852014  0.5716821567988717  0.3881309982295064  1.0000
  H   H1        1.0  0.0008498987773038  0.33790111602093736  0.9634743332423668  1.0000
  H   H2        1.0  0.4991499336249134  0.6620978260283935  0.46347114289695673  1.0000
  H   H3        1.0  0.5008492509447892  0.16209812164887447  0.0365294410040562  1.0000
  H   H4        1.0  0.9991503991141427  0.8379008933573149  0.5365266564604596  1.0000
  H   H5        1.0  0.9690664974811442  0.3527709968484487  0.1407760970780174  1.0000
  H   H6        1.0  0.5309285211181347  0.6472282595731756  0.6407756260396197  1.0000
  H   H7        1.0  0.4690679530450197  0.14722598352437904  0.8592271642135003  1.0000
  H   H8        1.0  0.030933942371596905  0.8527727171122524  0.3592249429827419  1.0000
  H   H9        1.0  0.15054375816924898  0.9934828829752222  0.7424832121932994  1.0000
  H   H10       1.0  0.34945757124098975  0.006516654606656402  0.2424903079078788  1.0000
  H   H11       1.0  0.6505454896229708  0.5065191900772774  0.25751103215685595  1.0000
  H   H12       1.0  0.8494552318703656  0.49348033668031377  0.7575136362796755  1.0000
  H   H13       1.0  0.2344325309407367  0.08514047738718489  0.9631111347717648  1.0000
  H   H14       1.0  0.2655672997187821  0.9148617856938374  0.46311557770081174  1.0000
  H   H15       1.0  0.734431846486629  0.41486316811551677  0.036886739257028  1.0000
  H   H16       1.0  0.7655665210919551  0.5851380623002527  0.5368892502358733  1.0000
  H   H17       1.0  0.14171015075879723  0.7431530203395129  0.9734192941548657  1.0000
  H   H18       1.0  0.35828972986546154  0.2568503738942881  0.4734179947856846  1.0000
  H   H19       1.0  0.6417094403190118  0.7568512681028353  0.0265816874392328  1.0000
  H   H20       1.0  0.8582863088413859  0.24314883115896185  0.526582597223495  1.0000
  H   H21       1.0  0.0911869811909582  0.7078325297725458  0.7826974180990832  1.0000
  H   H22       1.0  0.40881711163283535  0.29216820821772427  0.2826986481093741  1.0000
  H   H23       1.0  0.5911833374188973  0.7921684414142335  0.21730224696693767  1.0000
  H   H24       1.0  0.9088133364409146  0.2078309922256097  0.7173021320760712  1.0000
  C   C1        1.0  0.0903510755159971  0.9412489045115539  0.8415821555910341  1.0000
  C   C2        1.0  0.40964945014177806  0.05875307713566971  0.3415873437268218  1.0000
  C   C3        1.0  0.5903484658890791  0.558755388610166  0.1584129929381177  1.0000
  C   C4        1.0  0.9096492066775781  0.4412461232328725  0.6584145679224562  1.0000
  C   C5        1.0  0.8968817752808889  0.940479269605959  0.8131129423435155  1.0000
  C   C6        1.0  0.6031217842561035  0.05951927862971471  0.3131192474379603  1.0000
  C   C7        1.0  0.3968799843402522  0.5595183518211331  0.18688334777812093  1.0000
  C   C8        1.0  0.10312107547988349  0.44048105699587137  0.6868837793389844  1.0000
  C   C9        1.0  0.16095526846667238  0.7837239171500558  0.857728893187378  1.0000
  C   C10       1.0  0.33904661969267386  0.21627810188433477  0.3577296818018425  1.0000
  C   C11       1.0  0.660953840878406  0.7162781549592128  0.1422710317190834  1.0000
  C   C12       1.0  0.8390437534175917  0.2837222122112309  0.6422697101860066  1.0000
  C   C13       1.0  0.3491545370939307  0.774167962675783  0.8140223078988384  1.0000
  C   C14       1.0  0.15084457070100402  0.22582731141382348  0.3140212901014294  1.0000
  C   C15       1.0  0.8491558884147068  0.7258329849734724  0.1859771895563824  1.0000
  C   C16       1.0  0.6508432020205107  0.2741719125658406  0.6859785293326226  1.0000
  O   O1        1.0  0.8481374179071749  0.8827030543318916  0.68771729504018  1.0000
  O   O2        1.0  0.6518629652064619  0.11729298894064755  0.1877250482401607  1.0000
  O   O3        1.0  0.348136226172521  0.6172912496784735  0.3122788135421146  1.0000
  O   O4        1.0  0.15186287318088892  0.38270512766720804  0.8122826734895839  1.0000
  O   O5        1.0  0.4217401333518964  0.8937284404923389  0.7743190738619176  1.0000
  O   O6        1.0  0.07826648728543259  0.10627338537621264  0.2743141146570096  1.0000
  O   O7        1.0  0.9217327057581884  0.6062691786774722  0.2256863356874064  1.0000
  O   O8        1.0  0.5782652929695616  0.3937302743745122  0.7256831777684525  1.0000
  O   O9        1.0  0.9167071156182445  0.31457498921385973  0.0448272098152032  1.0000
  O   O10       1.0  0.5832912904529762  0.6854251522992031  0.5448270251619007  1.0000
  O   O11       1.0  0.41670774635743163  0.18542421050942443  0.955173599762844  1.0000
  O   O12       1.0  0.0832933300323262  0.8145758196089903  0.4551737388665344  1.0000
  O   O13       1.0  0.796220565279832  0.9973629825887687  0.908286385474817  1.0000
  O   O14       1.0  0.70378088724965  0.0026313568950016002  0.4082918010056815  1.0000
  O   O15       1.0  0.29621832152817273  0.502631326158344  0.0917095297538495  1.0000
  O   O16       1.0  0.2037797084040776  0.4973645403975342  0.5917138573602188  1.0000
  O   O17       1.0  0.42521407153927976  0.6493876735962802  0.8114620573075868  1.0000
  O   O18       1.0  0.07477988696268059  0.35060980915101686  0.31147008161460116  1.0000
  O   O19       1.0  0.92522055321583  0.8506055160883436  0.1885298249112495  1.0000
  O   O20       1.0  0.5747811180620558  0.14939163635349934  0.6885373530444383  1.0000
  O   O21       1.0  0.1246197310954074  0.027770795349596308  0.972237016401195  1.0000
  O   O22       1.0  0.375376291140995  0.9722359180203316  0.47224426226230076  1.0000
  O   O23       1.0  0.6246254148008674  0.4722372893184217  0.027755935244094598  1.0000
  O   O24       1.0  0.8753767611840005  0.5277650272405198  0.5277587179200509  1.0000
