data_image0
_chemical_formula_structural       Zn4H64C96N8O16
_chemical_formula_sum              "Zn4 H64 C96 N8 O16"
_cell_length_a       14.357816595775237
_cell_length_b       15.093579611021358
_cell_length_c       15.198373851752182
_cell_angle_alpha    90.00016186173704
_cell_angle_beta     105.90432653610985
_cell_angle_gamma    89.99985442057945

_space_group_name_H-M_alt    "P 1"
_space_group_IT_number       1

loop_
  _space_group_symop_operation_xyz
  'x, y, z'

loop_
  _atom_site_type_symbol
  _atom_site_label
  _atom_site_symmetry_multiplicity
  _atom_site_fract_x
  _atom_site_fract_y
  _atom_site_fract_z
  _atom_site_occupancy
  Zn  Zn1       1.0  0.993839693482471  0.26454479271507136  0.7479562579621161  1.0000
  Zn  Zn2       1.0  0.5061619143895655  0.7645446907816903  0.25204516523633214  1.0000
  Zn  Zn3       1.0  0.006161174109592999  0.7354541194077766  0.25204632285294093  1.0000
  Zn  Zn4       1.0  0.49383969789140275  0.2354542213367949  0.7479549812226907  1.0000
  H   H1        1.0  0.8233288115405769  0.4777637974021331  0.5106851065499073  1.0000
  H   H2        1.0  0.676672374862946  0.9777672702575444  0.48931614742521407  1.0000
  H   H3        1.0  0.176666991858319  0.522231802057206  0.48931547271845244  1.0000
  H   H4        1.0  0.32333140485670236  0.02223429199349879  0.5106852320534543  1.0000
  H   H5        1.0  0.0487598526950705  0.3101960838608803  0.47384164266364354  1.0000
  H   H6        1.0  0.4512430730817912  0.8101996586826271  0.5261564689309212  1.0000
  H   H7        1.0  0.9512388577063788  0.6898021657275991  0.5261583918902346  1.0000
  H   H8        1.0  0.5487607322636662  0.18980124103035215  0.4738416274374729  1.0000
  H   H9        1.0  0.1876017752029142  0.47156061624737317  0.9838451853458567  1.0000
  H   H10       1.0  0.3124000779197189  0.9715604257700928  0.01615638608339513  1.0000
  H   H11       1.0  0.8123976542609697  0.5284389584081594  0.016155697963007778  1.0000
  H   H12       1.0  0.6876022534230231  0.0284404739488053  0.9838446091313744  1.0000
  H   H13       1.0  0.9126612774495014  0.49658325695008176  0.26138636557348593  1.0000
  H   H14       1.0  0.5873369796719743  0.9965863308396975  0.738613506272138  1.0000
  H   H15       1.0  0.0873359743243185  0.5034149926414812  0.7386145979610463  1.0000
  H   H16       1.0  0.4126617409762261  0.0034152314136903996  0.26138521504171314  1.0000
  H   H17       1.0  0.10859669046318031  0.49357960989844674  0.23847129849465185  1.0000
  H   H18       1.0  0.3914043892926742  0.9935786994310618  0.7615307877570318  1.0000
  H   H19       1.0  0.8914041925026409  0.5064206272882998  0.7615293124562188  1.0000
  H   H20       1.0  0.6085972127382321  0.0064202126892994  0.23847067194579102  1.0000
  H   H21       1.0  0.6450107418360744  0.7111167590791041  0.42889638552900083  1.0000
  H   H22       1.0  0.8549866329203866  0.211118681736572  0.5711031061299823  1.0000
  H   H23       1.0  0.3549865201878077  0.2888814905105831  0.5711032647617247  1.0000
  H   H24       1.0  0.14501425516980504  0.7888822179825891  0.4288968481997345  1.0000
  H   H25       1.0  0.9451063237202391  0.32709093900468383  0.01926812544068213  1.0000
  H   H26       1.0  0.5548966073918677  0.8270914680163984  0.980733824995035  1.0000
  H   H27       1.0  0.05489238155352889  0.6729099607181722  0.980732565738123  1.0000
  H   H28       1.0  0.445105713700805  0.17290943170437603  0.019268483463541528  1.0000
  H   H29       1.0  0.1857701490403088  0.6150046792688144  0.2553613611977283  1.0000
  H   H30       1.0  0.3142324072001799  0.11500255691839097  0.74464070842663  1.0000
  H   H31       1.0  0.8142307390505505  0.3849955579169872  0.744638593131228  1.0000
  H   H32       1.0  0.68576848089333  0.8849950301339716  0.25535924589929965  1.0000
  H   H33       1.0  0.7674049683841702  0.5509806505743311  0.20247665694531494  1.0000
  H   H34       1.0  0.7325956235141646  0.0509821892655538  0.7975232371865246  1.0000
  H   H35       1.0  0.23259590945728795  0.4490189240799935  0.7975246106266953  1.0000
  H   H36       1.0  0.2674023626945257  0.9490200355236807  0.20247660524032096  1.0000
  H   H37       1.0  0.0318220430835652  0.37600929865221383  0.31961774028258116  1.0000
  H   H38       1.0  0.468180031958461  0.8760106212701755  0.6803796729974823  1.0000
  H   H39       1.0  0.9681781156934691  0.6239909385351297  0.6803826785367095  1.0000
  H   H40       1.0  0.5318208766325156  0.12398961591186007  0.31961765484386023  1.0000
  H   H41       1.0  0.3255496622943568  0.7172242034991283  0.30579365243306  1.0000
  H   H42       1.0  0.1744519754966305  0.2172209512942587  0.694207145476888  1.0000
  H   H43       1.0  0.6744512309208658  0.28277669621909496  0.6942056452747565  1.0000
  H   H44       1.0  0.825548912596872  0.782776635758104  0.3057928088490485  1.0000
  H   H45       1.0  0.7819000222869403  0.6073182340864635  0.48490979726462774  1.0000
  H   H46       1.0  0.7180961066364446  0.10732165413459425  0.5150897294831581  1.0000
  H   H47       1.0  0.21809651042445205  0.3926786904380535  0.5150903175149184  1.0000
  H   H48       1.0  0.2819047814530862  0.8926799081179269  0.4849102248473188  1.0000
  H   H49       1.0  0.6339895988307306  0.6612037746658427  0.15863704680332105  1.0000
  H   H50       1.0  0.8660115069811809  0.1612057773341533  0.8413619781743905  1.0000
  H   H51       1.0  0.3660120185752617  0.33879513745169015  0.8413624430337948  1.0000
  H   H52       1.0  0.1339879276057445  0.8387957849205133  0.15863824851484057  1.0000
  H   H53       1.0  0.4565818154142747  0.6170222297653679  0.11627026985705413  1.0000
  H   H54       1.0  0.043418574472980295  0.11702049711185228  0.8837299147411175  1.0000
  H   H55       1.0  0.5434205159304497  0.3829766823534511  0.8837307253554416  1.0000
  H   H56       1.0  0.9565830326836251  0.8829777524742041  0.11627088833904517  1.0000
  H   H57       1.0  0.972147471831711  0.3904491939508076  0.17566801337112986  1.0000
  H   H58       1.0  0.5278553376448089  0.8904486807912164  0.8243334252712914  1.0000
  H   H59       1.0  0.0278541404472676  0.6095517057677426  0.8243321330901596  1.0000
  H   H60       1.0  0.47214771276234296  0.10955155639464915  0.17566841869619762  1.0000
  H   H61       1.0  0.32665119626665967  0.5059883430717419  0.06111641518191388  1.0000
  H   H62       1.0  0.17335012970704614  0.005985789981153298  0.938885020979811  1.0000
  H   H63       1.0  0.6733504108872878  0.4940125566477532  0.9388843879012826  1.0000
  H   H64       1.0  0.8266521965126543  0.9940131221386037  0.06111663085458473  1.0000
  C   C1        1.0  0.8571984124047418  0.49525445173593136  0.38048216620889264  1.0000
  C   C2        1.0  0.6428027595066581  0.9952563896786726  0.6195165012585164  1.0000
  C   C3        1.0  0.1427988649942264  0.5047437978509278  0.6195155142161257  1.0000
  C   C4        1.0  0.3571981234571737  0.004745835108145999  0.3804841096946135  1.0000
  C   C5        1.0  0.7835621209206778  0.5647595451937306  0.3485780397745729  1.0000
  C   C6        1.0  0.7164362708414133  0.064763357318455  0.651421309462137  1.0000
  C   C7        1.0  0.2164351411038652  0.43523804186259685  0.6514216105153992  1.0000
  C   C8        1.0  0.2835638828079468  0.9352395300032653  0.3485797659820875  1.0000
  C   C9        1.0  0.9486438062959763  0.3588966701133244  0.5964886878284972  1.0000
  C   C10       1.0  0.5513583574909902  0.8588995399088188  0.4035105166950075  1.0000
  C   C11       1.0  0.0513534557272379  0.6411022420097154  0.4035109624629883  1.0000
  C   C12       1.0  0.44864543247937416  0.14110135980698146  0.5964895495390936  1.0000
  C   C13       1.0  0.937608919317178  0.3924213986285281  0.5013792073812767  1.0000
  C   C14       1.0  0.5623910099555331  0.8924238498654798  0.4986188407588657  1.0000
  C   C15       1.0  0.06238978595791878  0.6075781760276086  0.49862148379602195  1.0000
  C   C16       1.0  0.4376091693183142  0.10757969998489607  0.501378951576598  1.0000
  C   C17       1.0  0.8684645468230912  0.4575902025176006  0.46716305549956877  1.0000
  C   C18       1.0  0.631533808811767  0.9575939086393035  0.5328341007254594  1.0000
  C   C19       1.0  0.13152838544382212  0.5424073845395297  0.5328334721352591  1.0000
  C   C20       1.0  0.3684678034652222  0.04240897867933308  0.46716604573809667  1.0000
  C   C21       1.0  0.0667485452128673  0.39492355548839697  0.9937085878036813  1.0000
  C   C22       1.0  0.4332541854262857  0.8949243691083522  0.006293000574650914  1.0000
  C   C23       1.0  0.9332494409978124  0.6050766817007653  0.006291254620890578  1.0000
  C   C24       1.0  0.5667488701045755  0.10507719314329482  0.9937081867724518  1.0000
  C   C25       1.0  0.1609492463806532  0.488739567734612  0.11723894840738322  1.0000
  C   C26       1.0  0.3390518533096483  0.9887378041503182  0.88276181353573  1.0000
  C   C27       1.0  0.8390509175214191  0.5112606694517936  0.8827608137900074  1.0000
  C   C28       1.0  0.6609497589706522  0.0112617705015197  0.11723833292404617  1.0000
  C   C29       1.0  0.2422413770344463  0.5507877551542817  0.15184488282790914  1.0000
  C   C30       1.0  0.2577584160557649  0.050785401779087594  0.8481556148553795  1.0000
  C   C31       1.0  0.7577580678038699  0.4492124820317827  0.8481540306160015  1.0000
  C   C32       1.0  0.7422417478496116  0.9492115227405192  0.15184414733822393  1.0000
  C   C33       1.0  0.9954823572415135  0.36180690967927376  0.44701952102641235  1.0000
  C   C34       1.0  0.504518352344789  0.8618103184368449  0.5529793058870426  1.0000
  C   C35       1.0  0.0045149047843509  0.6381893523103341  0.5529801292620464  1.0000
  C   C36       1.0  0.4954839943730391  0.13819058127922554  0.44701971946201285  1.0000
  C   C37       1.0  0.1435028352658918  0.45301963968063313  0.02893408332640491  1.0000
  C   C38       1.0  0.3564990652026694  0.9530187476945782  0.9710661324756632  1.0000
  C   C39       1.0  0.8564980425762272  0.5469792724403318  0.971067184244845  1.0000
  C   C40       1.0  0.6435025522020014  0.046981489489674295  0.02893335736296629  1.0000
  C   C41       1.0  0.9170018785817078  0.4652369045151019  0.3271839432567916  1.0000
  C   C42       1.0  0.5829993533845652  0.9652404641676781  0.672814655595758  1.0000
  C   C43       1.0  0.08299683182040948  0.5347606825400179  0.6728160912963264  1.0000
  C   C44       1.0  0.41700226914380784  0.03476109808235609  0.3271841776224776  1.0000
  C   C45       1.0  0.050889637156132005  0.3597561684632281  0.8984693211056299  1.0000
  C   C46       1.0  0.44911171033935915  0.8597578772704251  0.10153245924382057  1.0000
  C   C47       1.0  0.949108349053887  0.640244731259294  0.10153052131970242  1.0000
  C   C48       1.0  0.5508891572487258  0.14024501005257406  0.898470121575784  1.0000
  C   C49       1.0  0.09806873746278201  0.46553515091995473  0.17018790568660347  1.0000
  C   C50       1.0  0.40193457096751223  0.9655350718291656  0.8298146928542921  1.0000
  C   C51       1.0  0.9019321403780155  0.5344650862677297  0.8298133618861672  1.0000
  C   C52       1.0  0.5980692036284337  0.03446516535610299  0.17018734324476978  1.0000
  C   C53       1.0  0.6740053630898686  0.6737371862672886  0.3810518402515656  1.0000
  C   C54       1.0  0.8259928106416224  0.1737386528439657  0.6189477580930075  1.0000
  C   C55       1.0  0.3259926231228009  0.32626106332178756  0.6189480021707325  1.0000
  C   C56       1.0  0.1740073532611106  0.8262609218090802  0.3810520041036227  1.0000
  C   C57       1.0  0.005459732927818101  0.37177866783606106  0.0475077353706865  1.0000
  C   C58       1.0  0.49454376820649765  0.8717793760287547  0.9524939922324975  1.0000
  C   C59       1.0  0.9945404207255206  0.628220244285508  0.9524933400689904  1.0000
  C   C60       1.0  0.5054592822006612  0.12822086115711778  0.04750785173498428  1.0000
  C   C61       1.0  0.24421710192959264  0.6115229489318423  0.22254024605857134  1.0000
  C   C62       1.0  0.25578474733787004  0.1115210616502935  0.7774603102318383  1.0000
  C   C63       1.0  0.7557837964113218  0.38847728825207634  0.777458395026585  1.0000
  C   C64       1.0  0.744216864943759  0.8884771879348322  0.22253983622642448  1.0000
  C   C65       1.0  0.7418064065358649  0.5832971466491227  0.25545630138355346  1.0000
  C   C66       1.0  0.7581941207053332  0.08329979756795318  0.7445436666214036  1.0000
  C   C67       1.0  0.2581894071124323  0.41669911534169296  0.7445429646417595  1.0000
  C   C68       1.0  0.24180965901563667  0.9167004396163775  0.25545771285575114  1.0000
  C   C69       1.0  0.9849519754636945  0.39857276318566887  0.36062989531637163  1.0000
  C   C70       1.0  0.5150472121855786  0.8985777173878445  0.6393686313782824  1.0000
  C   C71       1.0  0.015043833060893502  0.6014221737393722  0.6393700273293277  1.0000
  C   C72       1.0  0.48495441034412323  0.10142251979547011  0.3606302018384471  1.0000
  C   C73       1.0  0.32171944015610177  0.669548892233628  0.25104202099303313  1.0000
  C   C74       1.0  0.17828302233315435  0.16954578658793906  0.7489582034463853  1.0000
  C   C75       1.0  0.6782829065610583  0.330452670015802  0.7489570043567755  1.0000
  C   C76       1.0  0.8217193192629536  0.8304518004622775  0.25104147852079  1.0000
  C   C77       1.0  0.7496488695322512  0.6146431377343189  0.4116580025371946  1.0000
  C   C78       1.0  0.7503508656805736  0.11464602558606167  0.5883425016117487  1.0000
  C   C79       1.0  0.2503505650579926  0.3853551118535562  0.5883422241482565  1.0000
  C   C80       1.0  0.24964928796878647  0.8853568617356657  0.4116585738324759  1.0000
  C   C81       1.0  0.6672564829745156  0.6447319318941281  0.23024621365762954  1.0000
  C   C82       1.0  0.832745374859357  0.14473116122650248  0.7697536224176105  1.0000
  C   C83       1.0  0.33274222230124906  0.3552669802286487  0.7697544775189016  1.0000
  C   C84       1.0  0.1672569667341008  0.8552690759571531  0.2302460595525915  1.0000
  C   C85       1.0  0.3953984480380867  0.6134658666217306  0.1456321325348426  1.0000
  C   C86       1.0  0.1046026731527832  0.11346456464529099  0.8543682360659517  1.0000
  C   C87       1.0  0.6046031693679127  0.38653304549580264  0.8543673573022732  1.0000
  C   C88       1.0  0.8953996581919413  0.8865343474735211  0.1456327591465367  1.0000
  C   C89       1.0  0.0213245915360361  0.40745685706461626  0.1350113758185714  1.0000
  C   C90       1.0  0.4786773847140822  0.907457354640641  0.8649907056994338  1.0000
  C   C91       1.0  0.9786762863060902  0.5925420550563486  0.8649898917526856  1.0000
  C   C92       1.0  0.5213249363792585  0.0925428825467733  0.1350116027583823  1.0000
  C   C93       1.0  0.32160840447080835  0.5525585572011166  0.11429040022826341  1.0000
  C   C94       1.0  0.17839282832878203  0.052556503069560286  0.8857111423882672  1.0000
  C   C95       1.0  0.67839320781016  0.4474403549173615  0.8857097462307524  1.0000
  C   C96       1.0  0.8216080546390286  0.9474417465170999  0.11428946856032243  1.0000
  N   N1        1.0  0.3962448488699408  0.6715370105280697  0.21309327769769482  1.0000
  N   N2        1.0  0.1037561561381111  0.17153485605012259  0.7869072236461819  1.0000
  N   N3        1.0  0.6037574927241778  0.32846256412221914  0.786906404271747  1.0000
  N   N4        1.0  0.8962454561428573  0.8284640560683553  0.21309292281284095  1.0000
  N   N5        1.0  0.6314331770631015  0.6878484085146609  0.2915659631597904  1.0000
  N   N6        1.0  0.8685671461284558  0.18784870155668187  0.708433587212909  1.0000
  N   N7        1.0  0.3685662575244919  0.31215249120665317  0.7084342635286875  1.0000
  N   N8        1.0  0.1314344764005853  0.8121521981599926  0.29156524600457356  1.0000
  O   O1        1.0  0.9813121751120094  0.30268636522949066  0.8704881182649944  1.0000
  O   O2        1.0  0.5186900806368798  0.8026878717630481  0.12951358425418397  1.0000
  O   O3        1.0  0.0186858162230408  0.6973145344920865  0.1295110675384308  1.0000
  O   O4        1.0  0.4813115162656842  0.1973143530250496  0.8704885320743332  1.0000
  O   O5        1.0  0.8951633252359769  0.388359659447559  0.6428988308611139  1.0000
  O   O6        1.0  0.6048416609883133  0.8883582923303023  0.3571031793986138  1.0000
  O   O7        1.0  0.10483321772282041  0.6116399152085065  0.3570999706776519  1.0000
  O   O8        1.0  0.3951650103647636  0.11163995725247128  0.6428996252244659  1.0000
  O   O9        1.0  0.014063750532827202  0.2986907895662794  0.627001401797962  1.0000
  O   O10       1.0  0.4859355670673581  0.7986958319550724  0.3729970360844207  1.0000
  O   O11       1.0  0.9859327821772368  0.7013074600249493  0.37299871298309745  1.0000
  O   O12       1.0  0.5140653363952693  0.2013077178947  0.6270009483826088  1.0000
  O   O13       1.0  0.10382099235062729  0.3846725893494351  0.8496066848096221  1.0000
  O   O14       1.0  0.39617886716780504  0.8846732404524428  0.15039345498777834  1.0000
  O   O15       1.0  0.8961791664270747  0.6153269853045487  0.15039373400890804  1.0000
  O   O16       1.0  0.603819113917183  0.11532765927100998  0.8496070440594536  1.0000
