data_image0
_chemical_formula_structural       Zn4H14C42S10N4Cl2O26
_chemical_formula_sum              "Zn4 H14 C42 S10 N4 Cl2 O26"
_cell_length_a       11.463063951726504
_cell_length_b       12.759463120138921
_cell_length_c       23.92691655045982
_cell_angle_alpha    90.24203873682592
_cell_angle_beta     88.55558374250344
_cell_angle_gamma    89.46650400055994

_space_group_name_H-M_alt    "P 1"
_space_group_IT_number       1

loop_
  _space_group_symop_operation_xyz
  'x, y, z'

loop_
  _atom_site_type_symbol
  _atom_site_label
  _atom_site_symmetry_multiplicity
  _atom_site_fract_x
  _atom_site_fract_y
  _atom_site_fract_z
  _atom_site_occupancy
  Zn  Zn1       1.0  0.6181828404147468  0.5014325810117058  0.49920967520301207  1.0000
  Zn  Zn2       1.0  0.3769008194932227  0.5003523429436285  0.49797752573351045  1.0000
  Zn  Zn3       1.0  0.38154022643075086  0.5057348572970782  0.9714895263785973  1.0000
  Zn  Zn4       1.0  0.6236170401485382  0.49929409593717383  0.9596655082659494  1.0000
  H   H1        1.0  0.7544182279159202  0.5732908238077742  0.7846253986667405  1.0000
  H   H2        1.0  0.7597400040567949  0.4338088512717988  0.7836495181247471  1.0000
  H   H3        1.0  0.7636907111671011  0.4351002874583259  0.6779122126768157  1.0000
  H   H4        1.0  0.7574028073857522  0.5746759671993901  0.678660997824366  1.0000
  H   H5        1.0  0.8890239929748845  0.3291676674376376  0.41540317030118246  1.0000
  H   H6        1.0  0.10691388834150221  0.6605546341812314  0.5888698736073578  1.0000
  H   H7        1.0  0.7598237932953611  0.08079110567192063  0.5039770721630389  1.0000
  H   H8        1.0  0.24099320147396242  0.9212794203344643  0.49644311780966166  1.0000
  H   H9        1.0  0.2447168863130216  0.5037344874722223  0.2719236961597673  1.0000
  H   H10       1.0  0.7729938853512978  0.5060514676805496  0.1907296534633858  1.0000
  H   H11       1.0  0.11063784647547692  0.3326394528676103  0.050613071051543584  1.0000
  H   H12       1.0  0.8981320369090469  0.6695535808519678  0.8787332233532792  1.0000
  H   H13       1.0  0.23842283293023306  0.08517031722179522  0.9626217896554149  1.0000
  H   H14       1.0  0.7581266449375053  0.9197726301540214  0.9646951379374183  1.0000
  C   C1        1.0  0.5003002041668695  0.7054635797096865  0.49942969350269095  1.0000
  C   C2        1.0  0.5004897273336795  0.4989278247447048  0.6083279710293252  1.0000
  C   C3        1.0  0.49808124267838133  0.2959305993931308  0.49854461694250307  1.0000
  C   C4        1.0  0.4917052425772823  0.49969551665113  0.38926150565987416  1.0000
  C   C5        1.0  0.4970738269018469  0.7073289158723669  0.9651784501738587  1.0000
  C   C6        1.0  0.4941394494311239  0.500418456731893  0.8564373619629677  1.0000
  C   C7        1.0  0.4975916572018947  0.29790567212194224  0.9648920721947076  1.0000
  C   C8        1.0  0.5209894839736293  0.5012620013379419  0.0744246387494414  1.0000
  C   C9        1.0  0.8727413343786168  0.4435431527967994  0.4671629333023332  1.0000
  C   C10       1.0  0.12262966141301494  0.5608737189842473  0.5289659764227251  1.0000
  C   C11       1.0  0.0027935920987190066  0.5404427785906876  0.518805055261282  1.0000
  C   C12       1.0  0.9925443094449521  0.4620715182528627  0.4783079426499908  1.0000
  C   C13       1.0  0.5974717290565579  0.11197934726752122  0.4999303917807223  1.0000
  C   C14       1.0  0.40350141140204  0.8896097391033068  0.4985977657761962  1.0000
  C   C15       1.0  0.5025532409961002  0.18076415155032785  0.4986521645747714  1.0000
  C   C16       1.0  0.4981951271330872  0.8205599546838087  0.49970516141641497  1.0000
  C   C17       1.0  0.4399868312625515  0.995684873958787  0.49873868872700183  1.0000
  C   C18       1.0  0.5612453500518129  0.005769356054599898  0.4999697283728465  1.0000
  C   C19       1.0  0.4861668338217485  0.4968160143863257  0.7937905819207526  1.0000
  C   C20       1.0  0.48961377290086733  0.4963873346471175  0.6711556052226441  1.0000
  C   C21       1.0  0.588345874287626  0.49951963173113983  0.7610483633058462  1.0000
  C   C22       1.0  0.3837752538624103  0.4906652919804203  0.7033729756767497  1.0000
  C   C23       1.0  0.5899804278462  0.4997665311016704  0.702809868462424  1.0000
  C   C24       1.0  0.3821955580764751  0.491214178415852  0.7628532184252278  1.0000
  C   C25       1.0  0.7200404719691137  0.5030218717726811  0.7643695037092326  1.0000
  C   C26       1.0  0.722055869361654  0.5036220225835778  0.6982680824851426  1.0000
  C   C27       1.0  0.40543689344661976  0.49891389676601255  0.29026870314363146  1.0000
  C   C28       1.0  0.611846408510452  0.5006490917365766  0.17325279264896656  1.0000
  C   C29       1.0  0.4962417940852363  0.499139239727171  0.3278474897995166  1.0000
  C   C30       1.0  0.5208282848652813  0.5003605030288298  0.13584874042717127  1.0000
  C   C31       1.0  0.5697588589309461  0.5002479315240294  0.22965748550824822  1.0000
  C   C32       1.0  0.44791119457901374  0.49956056812843747  0.23401534598540508  1.0000
  C   C33       1.0  0.1262504730710035  0.448990454686964  0.0007880358785215  1.0000
  C   C34       1.0  0.8792621088111832  0.5584413763263855  0.931518824490794  1.0000
  C   C35       1.0  0.9982215925064895  0.5422828357735768  0.9456841318592734  1.0000
  C   C36       1.0  0.007222582453792409  0.4650300166932483  0.9866246386633717  1.0000
  C   C37       1.0  0.4006141107911105  0.11496827838824687  0.9650048993532888  1.0000
  C   C38       1.0  0.5958035221470938  0.890106054624077  0.963051287363349  1.0000
  C   C39       1.0  0.4951044044957058  0.1827584036412446  0.9645798674079271  1.0000
  C   C40       1.0  0.5012492176003108  0.8224101166738791  0.9641239409681431  1.0000
  C   C41       1.0  0.5589604697108045  0.9967575253559675  0.9634287662985695  1.0000
  C   C42       1.0  0.4375396115078374  0.008362693705230096  0.9645985470705366  1.0000
  S   S1        1.0  0.8668132327300314  0.5857051622754527  0.5398206851707457  1.0000
  S   S2        1.0  0.12861199963984402  0.42012681794557954  0.455428354908264  1.0000
  S   S3        1.0  0.3692761588986358  0.11546100946772953  0.4975515714457328  1.0000
  S   S4        1.0  0.6316663835837915  0.8856752272656011  0.5010109957824864  1.0000
  S   S5        1.0  0.6334407576566434  0.5001724233025583  0.29427491325089505  1.0000
  S   S6        1.0  0.3837977914202143  0.49938329350501925  0.16962345093637762  1.0000
  S   S7        1.0  0.13411141470523094  0.5895322206262962  0.9279415245659021  1.0000
  S   S8        1.0  0.8709663795757054  0.41975984301544866  0.0053691690479097985  1.0000
  S   S9        1.0  0.628963679754115  0.1158800923507783  0.9632151219866  1.0000
  S   S10       1.0  0.36743210281746747  0.8893772057515009  0.9658572322229585  1.0000
  N   N1        1.0  0.7995170252326318  0.503376098783157  0.4972333160423189  1.0000
  N   N2        1.0  0.19576691923704465  0.501517248988101  0.49852219861362085  1.0000
  N   N3        1.0  0.1999716205752549  0.5097501485945416  0.9725505628096937  1.0000
  N   N4        1.0  0.8053444642248311  0.49819822437005723  0.9599325179951916  1.0000
  Cl  Cl1       1.0  0.25066164849168626  0.48048452321070556  0.6716562351195348  1.0000
  Cl  Cl2       1.0  0.24800200691815635  0.4816235196185375  0.796773090175513  1.0000
  O   O1        1.0  0.6011148961204357  0.6616401431620887  0.5025473663866362  1.0000
  O   O2        1.0  0.403071183402247  0.6592583248072968  0.49592412224664156  1.0000
  O   O3        1.0  0.40735541712271583  0.4979257290088555  0.580766179207387  1.0000
  O   O4        1.0  0.603799105387992  0.5023211537261291  0.5875042775144833  1.0000
  O   O5        1.0  0.39641561937659026  0.33770675866092864  0.4966046326143568  1.0000
  O   O6        1.0  0.594886999083009  0.34388295512447803  0.5005580400961875  1.0000
  O   O7        1.0  0.5895663353368124  0.5050943967471896  0.41359177138550496  1.0000
  O   O8        1.0  0.3911250879892237  0.4948914791277588  0.4129550803036464  1.0000
  O   O9        1.0  0.39538246493034995  0.6676340690229595  0.9710158152283693  1.0000
  O   O10       1.0  0.5935016375379335  0.6573793690281704  0.9603171134827446  1.0000
  O   O11       1.0  0.5968146147990012  0.48918176545482345  0.87510875996643  1.0000
  O   O12       1.0  0.4018970985827154  0.515542423164746  0.8858481011662531  1.0000
  O   O13       1.0  0.5989659442277215  0.33941764872973584  0.9650640870771737  1.0000
  O   O14       1.0  0.4000093876811165  0.3461704905961653  0.9649033909690555  1.0000
  O   O15       1.0  0.4190044962847638  0.50282459676599  0.053541391026740784  1.0000
  O   O16       1.0  0.6177657870406038  0.5005873815673284  0.04733042093157279  1.0000
  O   O17       1.0  0.8285129719073155  0.3761778136543867  0.43036976399451266  1.0000
  O   O18       1.0  0.16710547719433322  0.6316436983038186  0.563709983152954  1.0000
  O   O19       1.0  0.7108552236576244  0.1431987991431214  0.5008496517786651  1.0000
  O   O20       1.0  0.2901680735926391  0.85868405657515  0.49773852928570494  1.0000
  O   O21       1.0  0.2901919524487014  0.49832320265238644  0.30568447996335374  1.0000
  O   O22       1.0  0.7267861900105999  0.5010169886065441  0.15722417056957735  1.0000
  O   O23       1.0  0.16925627094429535  0.3832032539711606  0.03882398941426859  1.0000
  O   O24       1.0  0.8366667571812274  0.6246432001252841  0.8935528835668334  1.0000
  O   O25       1.0  0.2868005443085337  0.1471709713571201  0.966000633731326  1.0000
  O   O26       1.0  0.7095631062678152  0.8577617077881355  0.962047267258505  1.0000
