data_image0
_chemical_formula_structural       Mn2H24C32N16
_chemical_formula_sum              "Mn2 H24 C32 N16"
_cell_length_a       9.566534177346742
_cell_length_b       9.560414309980308
_cell_length_c       11.79454090260361
_cell_angle_alpha    95.24686705241699
_cell_angle_beta     108.06721333886937
_cell_angle_gamma    120.1145053823104

_space_group_name_H-M_alt    "P 1"
_space_group_IT_number       1

loop_
  _space_group_symop_operation_xyz
  'x, y, z'

loop_
  _atom_site_type_symbol
  _atom_site_label
  _atom_site_symmetry_multiplicity
  _atom_site_fract_x
  _atom_site_fract_y
  _atom_site_fract_z
  _atom_site_occupancy
  Mn  Mn1       1.0  0.5000018634454547  0.49999795215835957  0.5000036147860669  1.0000
  Mn  Mn2       1.0  0.5006682114682945  0.0005600265277436998  0.9998308408351022  1.0000
  H   H1        1.0  0.5878913881551567  0.8370831228250849  0.44193227292132053  1.0000
  H   H2        1.0  0.8915196438230026  0.14184879535653036  0.06047266762572426  1.0000
  H   H3        1.0  0.4121111494563507  0.16292042392693418  0.5580651178896403  1.0000
  H   H4        1.0  0.10847440459999545  0.8580975295709905  0.9395654658988306  1.0000
  H   H5        1.0  0.8198279650960246  0.14726016370877199  0.5315314181685409  1.0000
  H   H6        1.0  0.11277251399375388  0.2873777217741349  0.9724371746341873  1.0000
  H   H7        1.0  0.18017392477418073  0.8527458717745234  0.46847280215602183  1.0000
  H   H8        1.0  0.8871037569742343  0.7125691674462828  0.027615651590153296  1.0000
  H   H9        1.0  0.14594101042294477  0.031399088768047485  0.7940190370319584  1.0000
  H   H10       1.0  0.7373009825458536  0.35573460073397467  0.7116010336145067  1.0000
  H   H11       1.0  0.8540568198802275  0.9686018715284916  0.20598378261170308  1.0000
  H   H12       1.0  0.2626266590058178  0.6442186668947868  0.2884902244862104  1.0000
  H   H13       1.0  0.9001884354280206  0.7245785429632721  0.6910122959056934  1.0000
  H   H14       1.0  0.5317956585319763  0.2090506735965363  0.8117345405069258  1.0000
  H   H15       1.0  0.09981005228308956  0.27541992382464286  0.3089845440912171  1.0000
  H   H16       1.0  0.46812392582472734  0.7909119707212539  0.18825801831300734  1.0000
  H   H17       1.0  0.20849083876986899  0.357141543598317  0.677646189082715  1.0000
  H   H18       1.0  0.17846521776631621  0.5345721900677135  0.8281231328545573  1.0000
  H   H19       1.0  0.7914947149492023  0.6428719361744514  0.32236908795406544  1.0000
  H   H20       1.0  0.8215067081128212  0.465408306954778  0.1718937694616542  1.0000
  H   H21       1.0  0.2419060282350074  0.3203245256769947  0.8242635444950608  1.0000
  H   H22       1.0  0.9964916254459197  0.4226792543558133  0.6815068320718041  1.0000
  H   H23       1.0  0.758088539906879  0.6796725985011206  0.17574325686286574  1.0000
  H   H24       1.0  0.003481528042527819  0.5773011848186798  0.3185213864181407  1.0000
  C   C1        1.0  0.7137681757986485  0.8860955954315202  0.5205286767666593  1.0000
  C   C2        1.0  0.86278781487119  0.1909753503814073  0.9828882023850128  1.0000
  C   C3        1.0  0.2862325687968905  0.1139066554440973  0.47947241227983994  1.0000
  C   C4        1.0  0.13708178000794638  0.8088982272931488  0.017143441568144555  1.0000
  C   C5        1.0  0.8431050027545622  0.05885260848812379  0.5716907466574881  1.0000
  C   C6        1.0  0.9846721928673291  0.2712121813629977  0.932330854984542  1.0000
  C   C7        1.0  0.15689651024683104  0.9411508957878424  0.42831317518361794  1.0000
  C   C8        1.0  0.01518291019175416  0.7287119305336205  0.06770225041130824  1.0000
  C   C9        1.0  0.0015615988816221886  0.1171975438774595  0.6743070443790486  1.0000
  C   C10       1.0  0.941885564703739  0.3292349415178321  0.8304572765650775  1.0000
  C   C11       1.0  0.9984344190723178  0.8828021300973603  0.3256977737664428  1.0000
  C   C12       1.0  0.058049355658546596  0.6707136847193595  0.1695666885910896  1.0000
  C   C13       1.0  0.023763684748608672  0.9943543117733782  0.7164699430120364  1.0000
  C   C14       1.0  0.7773826912395235  0.3096123332152203  0.7884655674162744  1.0000
  C   C15       1.0  0.9762352474976979  0.005646652780526999  0.2835331445362854  1.0000
  C   C16       1.0  0.2225369243961025  0.6902992395438473  0.21160676598081093  1.0000
  C   C17       1.0  0.8878659557864595  0.8234332598345945  0.6597182133966938  1.0000
  C   C18       1.0  0.6616630534621563  0.2282936820877168  0.8437966356696763  1.0000
  C   C19       1.0  0.11213256558954039  0.1765689920809734  0.3402806401067693  1.0000
  C   C20       1.0  0.3382046567363373  0.7715748432468101  0.1562315938113556  1.0000
  C   C21       1.0  0.14026027392687007  0.3036936450468559  0.7380262037699125  1.0000
  C   C22       1.0  0.06550109530529367  0.4062306295589764  0.7674145081078478  1.0000
  C   C23       1.0  0.8597219023045922  0.6963008485422293  0.26198670068862373  1.0000
  C   C24       1.0  0.9344548429648538  0.5937446498990366  0.23261504391319218  1.0000
  C   C25       1.0  0.42442937394466895  0.4424665748703376  0.20518446227642778  1.0000
  C   C26       1.0  0.7225601092604562  0.20863028850176588  0.27997348770067276  1.0000
  C   C27       1.0  0.5755364733638401  0.5574810504181258  0.7948214929153892  1.0000
  C   C28       1.0  0.27753687695830803  0.7914715433784634  0.7199624502293317  1.0000
  C   C29       1.0  0.42146507571472824  0.2693183848418599  0.05652808888024909  1.0000
  C   C30       1.0  0.7310980502601507  0.36265264245812284  0.44462449990200525  1.0000
  C   C31       1.0  0.5786755001559598  0.7307822253898593  0.9434403785803767  1.0000
  C   C32       1.0  0.2688389198658854  0.6372835788612862  0.5553574009798155  1.0000
  N   N1        1.0  0.7331255328845286  0.7691902268185942  0.5647921569827332  1.0000
  N   N2        1.0  0.7011870058723915  0.16564011418657285  0.937841566469949  1.0000
  N   N3        1.0  0.26687409043461224  0.23081202935433956  0.43520696442539736  1.0000
  N   N4        1.0  0.2984593061880148  0.8339956020627213  0.06219866071483439  1.0000
  N   N5        1.0  0.44532534843777677  0.5033087681647288  0.30578408643528115  1.0000
  N   N6        1.0  0.661939801106044  0.12261207568565169  0.17693932512962354  1.0000
  N   N7        1.0  0.554681321408772  0.4966960160957044  0.6942220400853928  1.0000
  N   N8        1.0  0.3384302924506173  0.8777217216583822  0.82295809745127  1.0000
  N   N9        1.0  0.39789664233609295  0.3855480040616541  0.09146364964826145  1.0000
  N   N10       1.0  0.8008528237872667  0.3033388841411764  0.3947890950843558  1.0000
  N   N11       1.0  0.6020038104764251  0.6143550208921126  0.908536347053186  1.0000
  N   N12       1.0  0.199046300757871  0.6965452395809989  0.6051954669785431  1.0000
  N   N13       1.0  0.4359312104201578  0.16290532760974932  0.014461760809865573  1.0000
  N   N14       1.0  0.6781046217203723  0.4200239416205065  0.49968251295461386  1.0000
  N   N15       1.0  0.5644423538421249  0.8374159114218075  0.9854219110074427  1.0000
  N   N16       1.0  0.32189423819453106  0.5799732569150889  0.5003151616197528  1.0000
