data_image0
_chemical_formula_structural       Ag4P4H28C20S4N8O16
_chemical_formula_sum              "Ag4 P4 H28 C20 S4 N8 O16"
_cell_length_a       9.521023998945605
_cell_length_b       10.690971037133512
_cell_length_c       11.144276745916839
_cell_angle_alpha    110.92706469295877
_cell_angle_beta     115.29442311484996
_cell_angle_gamma    89.97706521700317

_space_group_name_H-M_alt    "P 1"
_space_group_IT_number       1

loop_
  _space_group_symop_operation_xyz
  'x, y, z'

loop_
  _atom_site_type_symbol
  _atom_site_label
  _atom_site_symmetry_multiplicity
  _atom_site_fract_x
  _atom_site_fract_y
  _atom_site_fract_z
  _atom_site_occupancy
  Ag  Ag1       1.0  0.5890350042204986  0.4569538175315343  0.896207039003812  1.0000
  Ag  Ag2       1.0  0.693047585035181  0.04314848426758999  0.10441407835437382  1.0000
  Ag  Ag3       1.0  0.41097074197364236  0.5430435256990265  0.10379631113159593  1.0000
  Ag  Ag4       1.0  0.30695041639464893  0.9568509682788858  0.895583685796005  1.0000
  P   P1        1.0  0.7728267416256146  0.41283373477265406  0.21268488056880844  1.0000
  P   P2        1.0  0.5600298348271622  0.0870520969068878  0.7874865492667096  1.0000
  P   P3        1.0  0.2271752611190863  0.5871626346288393  0.7873141075217518  1.0000
  P   P4        1.0  0.4399616257187162  0.9129494302661385  0.21250873522611613  1.0000
  H   H1        1.0  0.6078445919911815  0.2681439727926147  0.38315655886194827  1.0000
  H   H2        1.0  0.2250096753928332  0.23199828055621913  0.6172745108638082  1.0000
  H   H3        1.0  0.3921628488422684  0.7318502868396947  0.616848095844091  1.0000
  H   H4        1.0  0.7749874128131395  0.7680021748407952  0.38272507947003476  1.0000
  H   H5        1.0  0.5339460933289858  0.22887516282658993  0.5787603991879917  1.0000
  H   H6        1.0  0.9555619937746584  0.271138993481685  0.4213430090477813  1.0000
  H   H7        1.0  0.4660552435261351  0.7711232075146126  0.4212426504746388  1.0000
  H   H8        1.0  0.044438794558551764  0.7288624656723995  0.5786582462086044  1.0000
  H   H9        1.0  0.7377256671068296  0.8740068716041519  0.822015929730142  1.0000
  H   H10       1.0  0.9163585371380237  0.6257468359338744  0.17815618300526373  1.0000
  H   H11       1.0  0.26227466988002135  0.1259925614435957  0.1779835518713284  1.0000
  H   H12       1.0  0.08364783944266917  0.3742586264594151  0.8218529535038996  1.0000
  H   H13       1.0  0.8093451826748108  0.7712180097985949  0.7022273617815811  1.0000
  H   H14       1.0  0.10773574011906104  0.7284495162451491  0.2980416817363149  1.0000
  H   H15       1.0  0.19065611085810727  0.22878039047061083  0.2977729907587373  1.0000
  H   H16       1.0  0.8922675339298962  0.2715580364185826  0.7019635056084466  1.0000
  H   H17       1.0  0.9344304503881844  0.8476712971758859  0.8924991108132261  1.0000
  H   H18       1.0  0.04237878394732057  0.6522868004500992  0.10765699526174187  1.0000
  H   H19       1.0  0.0655687549219905  0.1523281206812257  0.107501759664629  1.0000
  H   H20       1.0  0.9576243832651059  0.3477146092772472  0.8923486745680476  1.0000
  H   H21       1.0  0.007211186932863688  0.4977705575077138  0.3970738553517775  1.0000
  H   H22       1.0  0.6106778408641418  0.0024759387372981015  0.6032915164122341  1.0000
  H   H23       1.0  0.9927912671581892  0.5022278380001239  0.602926906393698  1.0000
  H   H24       1.0  0.3893306633518988  0.9975234310528689  0.3967135267476392  1.0000
  H   H25       1.0  0.8630078840172786  0.249065466358239  0.10145212099239129  1.0000
  H   H26       1.0  0.7598486689685372  0.2513903437248786  0.8956373249490922  1.0000
  H   H27       1.0  0.13699023478022096  0.7509350740614167  0.8985397871796649  1.0000
  H   H28       1.0  0.2401375863821258  0.7486143012825011  0.10435362927609053  1.0000
  C   C1        1.0  0.6270158562130632  0.3400159634336717  0.48881279861263477  1.0000
  C   C2        1.0  0.1386254795478621  0.16008296768167438  0.5116107236320531  1.0000
  C   C3        1.0  0.3729929491906033  0.6599793194544432  0.5111918035648628  1.0000
  C   C4        1.0  0.8613755561196327  0.8399194895615736  0.48839276701295375  1.0000
  C   C5        1.0  0.5917320568423817  0.3225120582858807  0.5896996375572314  1.0000
  C   C6        1.0  0.0025149370021110935  0.1775220842800209  0.41057474053084764  1.0000
  C   C7        1.0  0.40827138267620455  0.6774852844914108  0.410303793208641  1.0000
  C   C8        1.0  0.9974790775535994  0.8224804414354381  0.589422698720135  1.0000
  C   C9        1.0  0.6978370547172402  0.5443649448550401  0.7090409215896043  1.0000
  C   C10       1.0  0.9893779611289162  0.9555870684117377  0.29158723872706804  1.0000
  C   C11       1.0  0.3021621505929417  0.4556344730020641  0.29095994888825066  1.0000
  C   C12       1.0  0.010624352464375894  0.044416471943321795  0.7084108051447657  1.0000
  C   C13       1.0  0.7562062591390414  0.6788146025040189  0.8259461367922751  1.0000
  C   C14       1.0  0.9308007864262038  0.8211465518381119  0.17469149857846833  1.0000
  C   C15       1.0  0.24379409228853888  0.3211848205677227  0.17405424384996587  1.0000
  C   C16       1.0  0.06920157048929808  0.17885695858894474  0.8253092424156846  1.0000
  C   C17       1.0  0.8137692631474424  0.7981393896469909  0.8083981147041611  1.0000
  C   C18       1.0  0.00597178049238068  0.7017149680891989  0.19192231603757648  1.0000
  C   C19       1.0  0.18623224883828726  0.20186002866338265  0.19160267514323687  1.0000
  C   C20       1.0  0.9940310566509537  0.2982905484921971  0.8080819966930404  1.0000
  S   S1        1.0  0.7112577596079673  0.5061142101146385  0.5497570508066046  1.0000
  S   S2        1.0  0.1620016944933339  0.9939189419086315  0.4509513752052994  1.0000
  S   S3        1.0  0.28874752079907745  0.4938811169855839  0.45024362663311013  1.0000
  S   S4        1.0  0.8379988320648551  0.0060815291322811  0.5490467456216948  1.0000
  N   N1        1.0  0.6333572786888909  0.43658746754343986  0.7130219682430763  1.0000
  N   N2        1.0  0.920876854092377  0.06334963849037219  0.2873784206205768  1.0000
  N   N3        1.0  0.3666442477375682  0.5634119407909282  0.2869797206450926  1.0000
  N   N4        1.0  0.0791224974669403  0.9366508472879144  0.7126183919604967  1.0000
  N   N5        1.0  0.7551229453336603  0.6885277361847455  0.9456231604191244  1.0000
  N   N6        1.0  0.8098776141973119  0.8114801874174448  0.05511513204412206  1.0000
  N   N7        1.0  0.24487858109279867  0.31147167214962923  0.05437852846903716  1.0000
  N   N8        1.0  0.19012175180274227  0.18852028838484355  0.9448825795777224  1.0000
  O   O1        1.0  0.6709897784775619  0.4936678763922231  0.1321087996969653  1.0000
  O   O2        1.0  0.5389678417038085  0.006087357294454398  0.867938063753158  1.0000
  O   O3        1.0  0.32901309807838425  0.506332565173956  0.8678919376218843  1.0000
  O   O4        1.0  0.4610241240417777  0.9939111109936929  0.13205631802360768  1.0000
  O   O5        1.0  0.697613262736837  0.3062089131516927  0.2354951819179049  1.0000
  O   O6        1.0  0.46179790784743346  0.19347073862483907  0.7642140297880359  1.0000
  O   O7        1.0  0.3023845057994449  0.6937895313296208  0.7645012458846309  1.0000
  O   O8        1.0  0.5381912998762459  0.8065257031037021  0.23577865896426428  1.0000
  O   O9        1.0  0.9048885555476646  0.5273399512384955  0.36440337853585447  1.0000
  O   O10       1.0  0.5412162076639077  0.9727068091133119  0.6359904639478129  1.0000
  O   O11       1.0  0.09511369453131377  0.47265741625216856  0.6355978449433194  1.0000
  O   O12       1.0  0.4587824202428905  0.027295717508678787  0.36400681404224833  1.0000
  O   O13       1.0  0.8859283459150404  0.3486644664822051  0.1384953205844893  1.0000
  O   O14       1.0  0.747372228435026  0.15206942592273975  0.8629465174504813  1.0000
  O   O15       1.0  0.11407824520887286  0.6513369688650456  0.8615079806976738  1.0000
  O   O16       1.0  0.2526187413518813  0.8479351501591595  0.13705056879918942  1.0000
