data_image0
_chemical_formula_structural       Ni2H40C40N16O8
_chemical_formula_sum              "Ni2 H40 C40 N16 O8"
_cell_length_a       8.027335705406342
_cell_length_b       12.235123388645297
_cell_length_c       11.313271019292763
_cell_angle_alpha    79.64554125426955
_cell_angle_beta     80.88670128897839
_cell_angle_gamma    70.66687404390154

_space_group_name_H-M_alt    "P 1"
_space_group_IT_number       1

loop_
  _space_group_symop_operation_xyz
  'x, y, z'

loop_
  _atom_site_type_symbol
  _atom_site_label
  _atom_site_symmetry_multiplicity
  _atom_site_fract_x
  _atom_site_fract_y
  _atom_site_fract_z
  _atom_site_occupancy
  Ni  Ni1       1.0  8.959312224999997e-07  1.2804676400000007e-08  2.5967439400000005e-07  1.0000
  Ni  Ni2       1.0  0.4999949727926845  0.5000068548576664  0.5000018601812145  1.0000
  H   H1        1.0  0.24646625935469763  0.4404498806770574  0.8379771732095024  1.0000
  H   H2        1.0  0.7535423020993763  0.5595409045226489  0.16202363339733947  1.0000
  H   H3        1.0  0.8076584761541808  0.37517107072486067  0.07703742614919654  1.0000
  H   H4        1.0  0.19234679583600206  0.6248215183248577  0.9229642902903024  1.0000
  H   H5        1.0  0.7120153468938426  0.08888018585868453  0.8262080993053474  1.0000
  H   H6        1.0  0.287986012295697  0.9111185428009773  0.17379108339402197  1.0000
  H   H7        1.0  0.6663198933286693  0.09755407922873621  0.1921297801931487  1.0000
  H   H8        1.0  0.33367981731424834  0.9024455501540913  0.8078694161383808  1.0000
  H   H9        1.0  0.33535792696314104  0.20710788188618073  0.11637916412574609  1.0000
  H   H10       1.0  0.6646383144820546  0.7928909466590425  0.8836179468877104  1.0000
  H   H11       1.0  0.3880890101189749  0.18871811460381588  0.8717203832969957  1.0000
  H   H12       1.0  0.6119138178833551  0.811277108645058  0.12827579061947608  1.0000
  H   H13       1.0  0.09415767632059158  0.15178116385583  0.771136514522695  1.0000
  H   H14       1.0  0.9058423785312897  0.8482236700948819  0.22886690697362866  1.0000
  H   H15       1.0  0.9769910263640182  0.8388990840831173  0.8273856010944485  1.0000
  H   H16       1.0  0.02301819724922891  0.1611046500407198  0.17260282164783552  1.0000
  H   H17       1.0  0.0818693980321895  0.8820727674710865  0.5811054649628177  1.0000
  H   H18       1.0  0.9181528916720011  0.11793589867180293  0.4188839777599114  1.0000
  H   H19       1.0  0.15652566410942376  0.08971790334720706  0.5594216608812275  1.0000
  H   H20       1.0  0.84348723121726  0.910295331644498  0.4405821151003409  1.0000
  H   H21       1.0  0.42793464281874793  0.19813597662611931  0.3827813287312408  1.0000
  H   H22       1.0  0.5720593726253822  0.8018620146926451  0.6172100226860593  1.0000
  H   H23       1.0  0.6239211531298064  0.9652921485113808  0.6967436576097583  1.0000
  H   H24       1.0  0.3760839432790419  0.03470647338539121  0.3032453848236827  1.0000
  H   H25       1.0  0.3721806090869677  0.693200435998051  0.2946463250754547  1.0000
  H   H26       1.0  0.6277988982816467  0.3068169497213731  0.7053552341249585  1.0000
  H   H27       1.0  0.5561280258571343  0.3330036054124719  0.31222697349750217  1.0000
  H   H28       1.0  0.4438735934061098  0.6670124776378615  0.6877819762460504  1.0000
  H   H29       1.0  0.42962335178724936  0.42014156038138145  0.0880374185262625  1.0000
  H   H30       1.0  0.5703772423723023  0.579864999500579  0.9119673633567372  1.0000
  H   H31       1.0  0.30598100528395383  0.6600370345996112  0.09178916005244275  1.0000
  H   H32       1.0  0.6940022580395249  0.3399716140332814  0.9082145854423587  1.0000
  H   H33       1.0  0.23592660985275424  0.39546397559906415  0.6393662027583176  1.0000
  H   H34       1.0  0.764071107928409  0.6045374380706576  0.36063640710608513  1.0000
  H   H35       1.0  0.16383338740910594  0.724015570615201  0.4519429425437167  1.0000
  H   H36       1.0  0.8361619245309837  0.2759884892720592  0.5480585376392995  1.0000
  H   H37       1.0  0.8340511938140122  0.7164471734418143  0.5627272842125848  1.0000
  H   H38       1.0  0.16594057611165872  0.28354742644007297  0.43727384639273487  1.0000
  H   H39       1.0  0.9056091825836815  0.4946089957844606  0.6930175328630527  1.0000
  H   H40       1.0  0.09439330110351554  0.505387111028142  0.3069820409541322  1.0000
  C   C1        1.0  0.04930019721230389  0.2860508803214898  0.9002784366404413  1.0000
  C   C2        1.0  0.950702010930129  0.7139400435563064  0.09972485512690815  1.0000
  C   C3        1.0  0.028460466222007548  0.3962521392702527  0.9512394393743691  1.0000
  C   C4        1.0  0.9715412407595209  0.6037370706946774  0.04876690484795183  1.0000
  C   C5        1.0  0.13787593327531056  0.46658040023250186  0.9084253113693919  1.0000
  C   C6        1.0  0.8621261561681236  0.5334079381870893  0.09158204579385652  1.0000
  C   C7        1.0  0.8914207316471233  0.4307177329566513  0.043739233705061144  1.0000
  C   C8        1.0  0.10858164859978808  0.5692757932050867  0.9562661706446889  1.0000
  C   C9        1.0  0.6264355162220028  0.10981534072494273  0.10249512584010029  1.0000
  C   C10       1.0  0.3735658200794773  0.8901833807236912  0.8975014091542731  1.0000
  C   C11       1.0  0.4576204923642991  0.1657563222313527  0.06318833438386659  1.0000
  C   C12       1.0  0.5423762655005078  0.8342442250340838  0.9368074893112778  1.0000
  C   C13       1.0  0.48007131331442554  0.1578857466535339  0.9402933798347561  1.0000
  C   C14       1.0  0.5199256777958752  0.8421113339936427  0.05970399192391797  1.0000
  C   C15       1.0  0.012488699492017497  0.9126441051682476  0.7742226064735007  1.0000
  C   C16       1.0  0.9875249686001839  0.08735521287322  0.22576882782725952  1.0000
  C   C17       1.0  0.06891571313477134  0.9349743283820328  0.6511718682033915  1.0000
  C   C18       1.0  0.931099190418557  0.0650310389985123  0.34882263431646277  1.0000
  C   C19       1.0  0.10638592770560958  0.04017110773731499  0.6379655006746034  1.0000
  C   C20       1.0  0.8936300849804794  0.9598377211204365  0.3620352528919142  1.0000
  C   C21       1.0  0.5471382362525289  0.1943882313658705  0.5910662174622773  1.0000
  C   C22       1.0  0.45285434089623056  0.8056132749783841  0.4089316730112246  1.0000
  C   C23       1.0  0.5268105934082641  0.09222820551900672  0.5446894889729634  1.0000
  C   C24       1.0  0.47318740765319917  0.9077723053575756  0.4553026604440973  1.0000
  C   C25       1.0  0.45828719364348564  0.11063524439519057  0.43361927272690076  1.0000
  C   C26       1.0  0.5417106353134995  0.8893626641974494  0.5663707641077593  1.0000
  C   C27       1.0  0.5696534648011422  0.9801675024630183  0.610734063613144  1.0000
  C   C28       1.0  0.4303469344720483  0.019830359792358407  0.3892583329169597  1.0000
  C   C29       1.0  0.4952762166556965  0.42231657950761564  0.2724371405531087  1.0000
  C   C30       1.0  0.5047230045019973  0.5776960640323096  0.7275639370118868  1.0000
  C   C31       1.0  0.43095107869097404  0.4679519138483598  0.15956716455809783  1.0000
  C   C32       1.0  0.5690516956935169  0.5320554688380027  0.8404380815110813  1.0000
  C   C33       1.0  0.36837241125390824  0.5887916691229407  0.158838668406176  1.0000
  C   C34       1.0  0.6316097809774062  0.41121961818275576  0.8411708639491097  1.0000
  C   C35       1.0  0.12715216261432966  0.6538195996713086  0.5119075048431796  1.0000
  C   C36       1.0  0.8728443043408306  0.346181847983594  0.4880978967309773  1.0000
  C   C37       1.0  0.9613031416255279  0.6495602535262108  0.5707488724711568  1.0000
  C   C38       1.0  0.03868576707429837  0.3504352930824055  0.4292594763177249  1.0000
  C   C39       1.0  0.9927771417324178  0.5379666547403019  0.6353974405190145  1.0000
  C   C40       1.0  0.007222247483433366  0.4620338654172826  0.36460780341820964  1.0000
  N   N1        1.0  0.7453878186994485  0.06959393023569761  0.009330719374744908  1.0000
  N   N2        1.0  0.25461734637359246  0.9304047132941665  0.9906662661736547  1.0000
  N   N3        1.0  0.6526516844675638  0.1000021126547566  0.9121650127821399  1.0000
  N   N4        1.0  0.34735003429582173  0.8999957372485312  0.08783253515316865  1.0000
  N   N5        1.0  0.015380417179180513  0.9997529099062986  0.8313332082975649  1.0000
  N   N6        1.0  0.9846206858768056  0.0002492781605880973  0.16866177863329307  1.0000
  N   N7        1.0  0.07325937344778308  0.0767326999215285  0.7472692554161213  1.0000
  N   N8        1.0  0.9267444949169529  0.9232720513030657  0.25273285149756225  1.0000
  N   N9        1.0  0.471155060721749  0.5103025210563031  0.33616602389600564  1.0000
  N   N10       1.0  0.5288408709720613  0.4897119263336336  0.663835963501647  1.0000
  N   N11       1.0  0.3939667471499603  0.6108575749720515  0.2662109147052405  1.0000
  N   N12       1.0  0.6060183215659122  0.3891527704142702  0.7337931646031421  1.0000
  N   N13       1.0  0.25140907154411  0.5503877920054023  0.5392350865490485  1.0000
  N   N14       1.0  0.7485928879879394  0.44961268181491226  0.46077251708361894  1.0000
  N   N15       1.0  0.1676242870692946  0.4817176747571707  0.6144368741958958  1.0000
  N   N16       1.0  0.832373985278252  0.5182854696511542  0.3855688611918354  1.0000
  O   O1        1.0  0.9770438150310736  0.21500614108560268  0.9648801600152196  1.0000
  O   O2        1.0  0.022962745931884857  0.7849864259973244  0.03512317755617287  1.0000
  O   O3        1.0  0.13475933336310666  0.2709631399740218  0.7951164882450712  1.0000
  O   O4        1.0  0.8652422590719269  0.7290321220673802  0.20488424251782084  1.0000
  O   O5        1.0  0.4525831268562258  0.29473067822029003  0.5494649901049513  1.0000
  O   O6        1.0  0.5474200836080101  0.7052636734832375  0.4505321967524623  1.0000
  O   O7        1.0  0.6585625452616172  0.1746374638442845  0.6683323261470663  1.0000
  O   O8        1.0  0.34143571956276014  0.8253595900287536  0.3316649016068283  1.0000
