data_image0
_chemical_formula_structural       Ag8H8C16O20
_chemical_formula_sum              "Ag8 H8 C16 O20"
_cell_length_a       5.046115270052322
_cell_length_b       8.048758614762619
_cell_length_c       15.49805399448867
_cell_angle_alpha    90.00133010250755
_cell_angle_beta     103.4721693475907
_cell_angle_gamma    89.99879974408891

_space_group_name_H-M_alt    "P 1"
_space_group_IT_number       1

loop_
  _space_group_symop_operation_xyz
  'x, y, z'

loop_
  _atom_site_type_symbol
  _atom_site_label
  _atom_site_symmetry_multiplicity
  _atom_site_fract_x
  _atom_site_fract_y
  _atom_site_fract_z
  _atom_site_occupancy
  Ag  Ag1       1.0  0.7370446650628678  0.4833321578647585  0.9321080062842311  1.0000
  Ag  Ag2       1.0  0.7629271456213617  0.9833435414048212  0.5678889547985759  1.0000
  Ag  Ag3       1.0  0.2629069453555033  0.5166645908177899  0.067877716906402  1.0000
  Ag  Ag4       1.0  0.23706690668359437  0.0166469952019028  0.43211165978608784  1.0000
  Ag  Ag5       1.0  0.05602353659871536  0.20289115383653206  0.9411906339163917  1.0000
  Ag  Ag6       1.0  0.4439623596250044  0.702899715961948  0.5588067830142833  1.0000
  Ag  Ag7       1.0  0.9439833659814453  0.7971292010704971  0.05881529518070037  1.0000
  Ag  Ag8       1.0  0.5560194779991932  0.2970957904188722  0.4411930776776598  1.0000
  H   H1        1.0  0.3787157626938651  0.5012715479031087  0.7205641457662038  1.0000
  H   H2        1.0  0.12127527774659087  0.001284468700419  0.7794448764261117  1.0000
  H   H3        1.0  0.6212998652957539  0.498718988457  0.2794319875615939  1.0000
  H   H4        1.0  0.8787315340830943  0.9987271891988386  0.22056040113584874  1.0000
  H   H5        1.0  0.8319061134719873  0.31846693277375243  0.6343556633497724  1.0000
  H   H6        1.0  0.6680816780292673  0.8184374155300631  0.8656365475931691  1.0000
  H   H7        1.0  0.168079795707051  0.6815273311582433  0.3656444486417456  1.0000
  H   H8        1.0  0.3319289328601798  0.1815655453113294  0.13436702675312515  1.0000
  C   C1        1.0  0.05550092692205768  0.45988637363344514  0.7930074412415917  1.0000
  C   C2        1.0  0.44449851618293207  0.9599030142290701  0.7069930669257543  1.0000
  C   C3        1.0  0.9445107203769114  0.5401054051899337  0.20698909227969145  1.0000
  C   C4        1.0  0.5555094228392293  0.04010367380470831  0.2930058213343187  1.0000
  C   C5        1.0  0.1750998355042199  0.3134938458530598  0.5684487810321313  1.0000
  C   C6        1.0  0.3248918569377821  0.8135050494429521  0.9315541174474402  1.0000
  C   C7        1.0  0.8248801482414692  0.6864892362910595  0.4315522569330452  1.0000
  C   C8        1.0  0.675110701608709  0.1865078508762537  0.06844960582882458  1.0000
  C   C9        1.0  0.1587993951120126  0.4817890092838796  0.7098366592650007  1.0000
  C   C10       1.0  0.3412164885645765  0.9817897400466009  0.7901702778775785  1.0000
  C   C11       1.0  0.8411961477771686  0.5182015272255924  0.2901601720140618  1.0000
  C   C12       1.0  0.6588062459952653  0.018219432854820604  0.20983339892244854  1.0000
  C   C13       1.0  0.01732113848443358  0.3856813774360647  0.6308217800778733  1.0000
  C   C14       1.0  0.4826787548383322  0.885659031303618  0.869181793349959  1.0000
  C   C15       1.0  0.9826703329311215  0.6143041893841429  0.36917479987156543  1.0000
  C   C16       1.0  0.5173286022576491  0.1143464145441868  0.13082739314034336  1.0000
  O   O1        1.0  0.8427070997773001  0.5344555853471463  0.8017263871668658  1.0000
  O   O2        1.0  0.6572655964903831  0.034456825729194  0.698275249929871  1.0000
  O   O3        1.0  0.15729807670832227  0.46553992073314276  0.19826716344181242  1.0000
  O   O4        1.0  0.3427159685412775  0.9655386806083114  0.3017226562828767  1.0000
  O   O5        1.0  0.20348981287341417  0.3587791138505949  0.846677449766396  1.0000
  O   O6        1.0  0.29648951709349086  0.8587915123487307  0.6533180921193773  1.0000
  O   O7        1.0  0.7965222886489869  0.6412201196106936  0.15332234125627045  1.0000
  O   O8        1.0  0.7035195123313188  0.14121269100308353  0.34668861404545476  1.0000
  O   O9        1.0  0.10427270915650406  0.1679519544695438  0.5397471466805184  1.0000
  O   O10       1.0  0.395740438117727  0.6679536043547997  0.9602651214039992  1.0000
  O   O11       1.0  0.8957342846127078  0.8320435518995454  0.4602594337894529  1.0000
  O   O12       1.0  0.6042512147987793  0.3320493564809582  0.039732761615709884  1.0000
  O   O13       1.0  0.36484900729810477  0.39800703011302124  0.5488194983412811  1.0000
  O   O14       1.0  0.1351623236782586  0.8980117182902063  0.9511816909066865  1.0000
  O   O15       1.0  0.6351427365638074  0.6019897185990788  0.4511790361414397  1.0000
  O   O16       1.0  0.8648520860597844  0.10199869705237322  0.04882018030205158  1.0000
  O   O17       1.0  0.9946405087922657  0.5639099052032464  0.6339697403421168  1.0000
  O   O18       1.0  0.5053914542596587  0.0639010294382913  0.8660429920004515  1.0000
  O   O19       1.0  0.005356978953308589  0.4360843585640382  0.3660265651147084  1.0000
  O   O20       1.0  0.49464534889193595  0.9361131130704977  0.13396026140704007  1.0000
