data_image0
_chemical_formula_structural       Ba2H48C40N4O4F8
_chemical_formula_sum              "Ba2 H48 C40 N4 O4 F8"
_cell_length_a       8.355159352417191
_cell_length_b       10.991995727286733
_cell_length_c       11.97582441104642
_cell_angle_alpha    103.65004503997106
_cell_angle_beta     93.72380848726819
_cell_angle_gamma    95.08395524490547

_space_group_name_H-M_alt    "P 1"
_space_group_IT_number       1

loop_
  _space_group_symop_operation_xyz
  'x, y, z'

loop_
  _atom_site_type_symbol
  _atom_site_label
  _atom_site_symmetry_multiplicity
  _atom_site_fract_x
  _atom_site_fract_y
  _atom_site_fract_z
  _atom_site_occupancy
  Ba  Ba1       1.0  0.256804128087218  0.5664293347721739  0.5119356025239129  1.0000
  Ba  Ba2       1.0  0.7431963969322763  0.4335696441951813  0.488064319960266  1.0000
  H   H1        1.0  0.10516545426578723  0.5261579251267038  0.9295414163118212  1.0000
  H   H2        1.0  0.894835201024179  0.4738419954607451  0.07045871655679294  1.0000
  H   H3        1.0  0.9605648693289267  0.6936684852608865  0.05419945791292243  1.0000
  H   H4        1.0  0.039435788439469405  0.30633143473521335  0.9458015099534196  1.0000
  H   H5        1.0  0.8240399351958559  0.8448761569517063  0.9606250321364915  1.0000
  H   H6        1.0  0.17595845178293254  0.15512470676449655  0.039375206324919525  1.0000
  H   H7        1.0  0.8016827688654897  0.8439806455413362  0.20600996066075797  1.0000
  H   H8        1.0  0.19831575086220002  0.15602115920361115  0.7939913231828087  1.0000
  H   H9        1.0  0.6243801695382913  0.7004209059170564  0.03973541093019861  1.0000
  H   H10       1.0  0.375620490708542  0.299579013487687  0.9602663919338712  1.0000
  H   H11       1.0  0.4175041543243053  0.5387483483017307  0.08272201618127897  1.0000
  H   H12       1.0  0.5824989020257475  0.46125157018570934  0.9172790564767015  1.0000
  H   H13       1.0  0.4073159623990961  0.8621669814612287  0.48627015941734447  1.0000
  H   H14       1.0  0.5926860249306002  0.13783387940063113  0.5137310712292448  1.0000
  H   H15       1.0  0.22110984910275286  0.9328519684174739  0.49412279204553056  1.0000
  H   H16       1.0  0.7788872107931651  0.06714795384161222  0.5058780186333537  1.0000
  H   H17       1.0  0.3460604362672015  0.028421625991207105  0.3529698031525187  1.0000
  H   H18       1.0  0.6539378204411082  0.971578296104909  0.6470302249244569  1.0000
  H   H19       1.0  0.4341699568109901  0.8878111185417128  0.29220028286577826  1.0000
  H   H20       1.0  0.5658296269801896  0.11218974501151278  0.7077991729937169  1.0000
  H   H21       1.0  0.18859934947036547  0.8673865424853703  0.1610353106549313  1.0000
  H   H22       1.0  0.8114001065287794  0.1326133788564121  0.8389647698178636  1.0000
  H   H23       1.0  0.07516547896469214  0.9282975753141545  0.2785116983548833  1.0000
  H   H24       1.0  0.9248314481823244  0.07170140591619403  0.7214880669418451  1.0000
  H   H25       1.0  0.01200981996986885  0.7076958665305856  0.2687052946021781  1.0000
  H   H26       1.0  0.9879895082372343  0.2923031125997539  0.7312954104839168  1.0000
  H   H27       1.0  0.2008266767428353  0.6699718880502347  0.21444168387847645  1.0000
  H   H28       1.0  0.7991741112960327  0.33002897356595895  0.7855594943722936  1.0000
  H   H29       1.0  0.5515685623454657  0.7044352787285391  0.7943562976051342  1.0000
  H   H30       1.0  0.4484332872784619  0.2955646422872817  0.20564221766384355  1.0000
  H   H31       1.0  0.36077629946419887  0.6592671437430512  0.8412304385260331  1.0000
  H   H32       1.0  0.6392254198892573  0.3407318356526758  0.15876786635850954  1.0000
  H   H33       1.0  0.4439152332618903  0.8455861897418305  0.993321874664652  1.0000
  H   H34       1.0  0.5560852892791672  0.15441278981688106  0.006677212821799118  1.0000
  H   H35       1.0  0.553234376631444  0.9191132792583903  0.8995039372308827  1.0000
  H   H36       1.0  0.446765076889264  0.0808866426747414  0.10049530824418443  1.0000
  H   H37       1.0  0.3028299912102383  0.0189030675075941  0.9019014425109407  1.0000
  H   H38       1.0  0.697168267976508  0.9810968539971724  0.09809942056377002  1.0000
  H   H39       1.0  0.18450445683514974  0.8745644593375561  0.898974289720606  1.0000
  H   H40       1.0  0.8154944780821013  0.12543169552385083  0.10102494921446244  1.0000
  H   H41       1.0  0.16704980274844422  0.8662930974871376  0.6938586863671576  1.0000
  H   H42       1.0  0.8329481934189287  0.1337049413687836  0.3061409209409547  1.0000
  H   H43       1.0  0.36691328686798397  0.9449744739276585  0.7053230490173024  1.0000
  H   H44       1.0  0.6330877517980938  0.055028273294127  0.29467521001141966  1.0000
  H   H45       1.0  0.6454157603002315  0.7182214494073165  0.5277320336856449  1.0000
  H   H46       1.0  0.3545848999465945  0.2817784699974339  0.4722697691784249  1.0000
  H   H47       1.0  0.9156554671386133  0.7204971294872281  0.575989255694566  1.0000
  H   H48       1.0  0.08434505788088129  0.27950184948012696  0.4240106667896202  1.0000
  C   C1        1.0  0.9625581566416698  0.6640238370738061  0.7165043646192616  1.0000
  C   C2        1.0  0.03744129935746802  0.3359760842679763  0.28349571585353334  1.0000
  C   C3        1.0  0.0388873077161165  0.5849581315064328  0.776650349324946  1.0000
  C   C4        1.0  0.9611120180125496  0.41504084821524867  0.22334952076342066  1.0000
  C   C5        1.0  0.04123577788465844  0.5923176539692181  0.893415902156015  1.0000
  C   C6        1.0  0.9587675365279013  0.4076841483497589  0.10658475627309377  1.0000
  C   C7        1.0  0.9624633738136054  0.6861071337058535  0.9621586818401229  1.0000
  C   C8        1.0  0.03753595439349771  0.3138918454244788  0.03784202324597172  1.0000
  C   C9        1.0  0.8850657751581821  0.7694775200188391  0.9103551075667088  1.0000
  C   C10       1.0  0.114935010402256  0.23052334218870393  0.08964523568633352  1.0000
  C   C11       1.0  0.8869636378263762  0.7566476997139733  0.7927352352828766  1.0000
  C   C12       1.0  0.11303701746358998  0.2433522208734757  0.20726489758573766  1.0000
  C   C13       1.0  0.5887266131143535  0.667189097548217  0.36146695758881725  1.0000
  C   C14       1.0  0.41127297563369325  0.33281176482230995  0.6385341682661406  1.0000
  C   C15       1.0  0.6979273151973261  0.7580610285948952  0.33070358367943004  1.0000
  C   C16       1.0  0.302071204530364  0.2419407761500595  0.6692977001641369  1.0000
  C   C17       1.0  0.7119623297419652  0.7719977875101238  0.21980032054769802  1.0000
  C   C18       1.0  0.2880383280264311  0.228002132485969  0.780200647318644  1.0000
  C   C19       1.0  0.6124770704657222  0.6926455418339403  0.12773645891968508  1.0000
  C   C20       1.0  0.3875213189914958  0.30735532129091336  0.8722646145394538  1.0000
  C   C21       1.0  0.4995686271341242  0.601635337329391  0.15072114725172275  1.0000
  C   C22       1.0  0.50043429894545  0.3983636395379478  0.8492797150218298  1.0000
  C   C23       1.0  0.49154327922605023  0.592629079411175  0.26329601871812974  1.0000
  C   C24       1.0  0.5084573785423531  0.4073708405849245  0.7367049491482123  1.0000
  C   C25       1.0  0.2968892868985762  0.8739197443438871  0.4365412371848338  1.0000
  C   C26       1.0  0.7031100363516601  0.12607923596915072  0.563457797905798  1.0000
  C   C27       1.0  0.3278359969122562  0.9252597902845423  0.3316978016342348  1.0000
  C   C28       1.0  0.6721646633345698  0.07474012912020102  0.668304001229835  1.0000
  C   C29       1.0  0.1740437343712458  0.8711641960297527  0.2521527869277024  1.0000
  C   C30       1.0  0.8259573117301358  0.1288385494179849  0.7478479770942034  1.0000
  C   C31       1.0  0.14074163536464113  0.7403218899613224  0.27372492099596013  1.0000
  C   C32       1.0  0.8592580687832763  0.25967991757740094  0.7262714052570517  1.0000
  C   C33       1.0  0.43333060473764823  0.7348658354300569  0.8151897714478694  1.0000
  C   C34       1.0  0.5666712473647096  0.26513408499440777  0.18480957881883606  1.0000
  C   C35       1.0  0.44303643722467007  0.8592358805876119  0.9054354761229678  1.0000
  C   C36       1.0  0.5569628885040032  0.14076309913406962  0.09456439396539203  1.0000
  C   C37       1.0  0.2931345334670893  0.9163272142280546  0.8691906844474035  1.0000
  C   C38       1.0  0.7068646570342452  0.08367082505623812  0.13080730526106524  1.0000
  C   C39       1.0  0.2886456146914896  0.8778528040415811  0.7382983742805254  1.0000
  C   C40       1.0  0.7113537060803097  0.122146176862806  0.26169982581237866  1.0000
  N   N1        1.0  0.9665761299796428  0.6484789724558342  0.6006651803019951  1.0000
  N   N2        1.0  0.03342452778875331  0.35152094754025853  0.3993357875643469  1.0000
  N   N3        1.0  0.5736164643472321  0.6488570375273924  0.4688601596476546  1.0000
  N   N4        1.0  0.42638419589959403  0.3511428818773581  0.5311416432164151  1.0000
  O   O1        1.0  0.20996485187745148  0.7495889933527948  0.3907154880586036  1.0000
  O   O2        1.0  0.7900359212908229  0.2504118718115081  0.6092806802057924  1.0000
  O   O3        1.0  0.3517024601677861  0.7562069411106694  0.7112593891818977  1.0000
  O   O4        1.0  0.6482980598948418  0.24379203903938423  0.2887388633068256  1.0000
  F   F1        1.0  0.1210457718881202  0.4935447601403524  0.709218571040559  1.0000
  F   F2        1.0  0.8789547531313744  0.5064542188270026  0.29078135144362  1.0000
  F   F3        1.0  0.8100267361096981  0.8394053081457072  0.7426924345360748  1.0000
  F   F4        1.0  0.1899725920974049  0.16059367098463181  0.2573082705500199  1.0000
  F   F5        1.0  0.7982226983312087  0.8361298059898487  0.4203679529402466  1.0000
  F   F6        1.0  0.201775823874911  0.16387199816374928  0.5796341659010482  1.0000
  F   F7        1.0  0.3762327062463767  0.503530111122771  0.28532331102228886  1.0000
  F   F8        1.0  0.6237679440867225  0.4964698106473834  0.7146751518508626  1.0000
