data_image0
_chemical_formula_structural       Cu2P4H36C36N4O12
_chemical_formula_sum              "Cu2 P4 H36 C36 N4 O12"
_cell_length_a       9.759441089329448
_cell_length_b       10.683401817669429
_cell_length_c       11.202660287391813
_cell_angle_alpha    62.73086230045268
_cell_angle_beta     89.32362851610404
_cell_angle_gamma    69.0040985160863

_space_group_name_H-M_alt    "P 1"
_space_group_IT_number       1

loop_
  _space_group_symop_operation_xyz
  'x, y, z'

loop_
  _atom_site_type_symbol
  _atom_site_label
  _atom_site_symmetry_multiplicity
  _atom_site_fract_x
  _atom_site_fract_y
  _atom_site_fract_z
  _atom_site_occupancy
  Cu  Cu1       1.0  0.14830988314927404  0.11780195375795434  0.023613965912886718  1.0000
  Cu  Cu2       1.0  0.8516867272117637  0.8821987796869876  0.9763855556414638  1.0000
  P   P1        1.0  0.8369476703252232  0.22323105415905078  0.8248122593745106  1.0000
  P   P2        1.0  0.16305436397217923  0.7767662119849064  0.1751896056776729  1.0000
  P   P3        1.0  0.2413966903964635  0.0023085028572041003  0.7967889886144589  1.0000
  P   P4        1.0  0.7586025628265463  0.9976933603609197  0.2032100102947324  1.0000
  H   H1        1.0  0.16438884593804196  0.8194734670476863  0.9267693541404681  1.0000
  H   H2        1.0  0.8356162654861169  0.18052378502557792  0.07323069693458704  1.0000
  H   H3        1.0  0.9879230476995037  0.24474777299191422  0.6775212862694886  1.0000
  H   H4        1.0  0.012079137464723989  0.7552517820145326  0.32247957881175177  1.0000
  H   H5        1.0  0.09931245157060431  0.0010759544717941997  0.3145368969473522  1.0000
  H   H6        1.0  0.9006854729473375  0.998921336884557  0.6854641109675936  1.0000
  H   H7        1.0  0.10303400528920288  0.08727496979121702  0.49277053277118904  1.0000
  H   H8        1.0  0.8969659731715827  0.9127223098386845  0.5072304570160071  1.0000
  H   H9        1.0  0.14294108339897352  0.3253102733085669  0.4252159792684438  1.0000
  H   H10       1.0  0.8570609490046696  0.6746869945948786  0.5747849923909952  1.0000
  H   H11       1.0  0.17881192403636698  0.4742458906068948  0.1860800013372952  1.0000
  H   H12       1.0  0.8211880525306654  0.5257513907825028  0.813920095057142  1.0000
  H   H13       1.0  0.21859139518154083  0.5757662489006634  0.9822475083776607  1.0000
  H   H14       1.0  0.7814090251190677  0.42422987984738103  0.017755763648558794  1.0000
  H   H15       1.0  0.24831616484900115  0.6836786114474335  0.7401162788751278  1.0000
  H   H16       1.0  0.7516808854580931  0.316320972875154  0.2598846315255016  1.0000
  H   H17       1.0  0.2291361991285045  0.5465703062084158  0.6098077881166473  1.0000
  H   H18       1.0  0.7708623143085587  0.453428126647573  0.3901927152808895  1.0000
  H   H19       1.0  0.1908830760565365  0.3023114133754632  0.7349093400570723  1.0000
  H   H20       1.0  0.8091204213708281  0.6976847013018953  0.2650921179920189  1.0000
  H   H21       1.0  0.5021886006643115  0.8506767556601603  0.8511185513413578  1.0000
  H   H22       1.0  0.4978132954206771  0.1493262373311453  0.14887992492266017  1.0000
  H   H23       1.0  0.4230604872740642  0.8970236461812676  0.6869138423671259  1.0000
  H   H24       1.0  0.5769408198917958  0.1029782053104  0.3130851384143085  1.0000
  H   H25       1.0  0.4316919880821715  0.1072013323047685  0.486789650551195  1.0000
  H   H26       1.0  0.5683088810313919  0.8928016665497723  0.5132088347767052  1.0000
  H   H27       1.0  0.5245243656497892  0.31440975167122087  0.3756032666202244  1.0000
  H   H28       1.0  0.4754750403338053  0.6855943986499112  0.6243956257107683  1.0000
  H   H29       1.0  0.6191204482628407  0.403034916096466  0.515902636733216  1.0000
  H   H30       1.0  0.38088173690137955  0.5969646389099879  0.48409822834802435  1.0000
  H   H31       1.0  0.5286566298025406  0.0759327965427019  0.8754082038394415  1.0000
  H   H32       1.0  0.47134365039189424  0.9240690608122011  0.12459078600586797  1.0000
  H   H33       1.0  0.5959289897919646  0.4278050730082724  0.7337035472450494  1.0000
  H   H34       1.0  0.4040742280249744  0.5721944708564736  0.2662999889505641  1.0000
  H   H35       1.0  0.5975529609449524  0.2660895070626097  0.8861732180889063  1.0000
  H   H36       1.0  0.40244922611303485  0.7339100461843486  0.11382854038508582  1.0000
  C   C1        1.0  0.11883213438215284  0.10283578612688869  0.2937342635716647  1.0000
  C   C2        1.0  0.8811653501897257  0.8971626543518169  0.7062653554970024  1.0000
  C   C3        1.0  0.1199678538793449  0.15149710926399254  0.38952070206869377  1.0000
  C   C4        1.0  0.8800310957162552  0.8485001779886261  0.6104794033896253  1.0000
  C   C5        1.0  0.14271725059700205  0.28557790153732293  0.351415279594022  1.0000
  C   C6        1.0  0.8572822898114865  0.7144205254554379  0.6485852147396401  1.0000
  C   C7        1.0  0.1651748444196528  0.3667978904029354  0.2192882995596932  1.0000
  C   C8        1.0  0.8348241051759474  0.6331993968496832  0.7807118058986261  1.0000
  C   C9        1.0  0.1653049730795288  0.31011173250954027  0.12881205579476773  1.0000
  C   C10       1.0  0.8346925133861093  0.6898867062096771  0.8711884566666439  1.0000
  C   C11       1.0  0.18954023371517084  0.38226561356690064  0.9871642507593634  1.0000
  C   C12       1.0  0.8104572508567075  0.6177328269118048  0.012835368309304006  1.0000
  C   C13       1.0  0.21558717920282083  0.5166275996279239  0.925488319137095  1.0000
  C   C14       1.0  0.7844098692105134  0.4833719864541521  0.07451169787078973  1.0000
  C   C15       1.0  0.2319286045487914  0.5767064088103241  0.7889989160472481  1.0000
  C   C16       1.0  0.7680688819168466  0.42329202990888604  0.2110015964141638  1.0000
  C   C17       1.0  0.2219188909855064  0.501376109876922  0.7176520126628317  1.0000
  C   C18       1.0  0.7780796224515569  0.4986223229790667  0.2823484907347051  1.0000
  C   C19       1.0  0.19870894139593528  0.3661378101676362  0.7856882272497571  1.0000
  C   C20       1.0  0.8012920640362751  0.6338594635990306  0.21431275347355674  1.0000
  C   C21       1.0  0.4269596517398924  0.9447573202260672  0.7547240251996283  1.0000
  C   C22       1.0  0.5730401922960057  0.05524568273219901  0.24527536258489846  1.0000
  C   C23       1.0  0.4784907823490201  0.0739358552709533  0.6889178895033224  1.0000
  C   C24       1.0  0.521509059793118  0.9260671494468083  0.31108060488845984  1.0000
  C   C25       1.0  0.47504820847171925  0.144595548463748  0.5478028498902816  1.0000
  C   C26       1.0  0.5249511937243556  0.8554086053763683  0.4521942556552147  1.0000
  C   C27       1.0  0.5259057748324382  0.2620210330369019  0.4854962753545917  1.0000
  C   C28       1.0  0.47409510374993175  0.7379819570201676  0.5145066769370458  1.0000
  C   C29       1.0  0.5781371962407178  0.3122473452573685  0.5632062880240554  1.0000
  C   C30       1.0  0.4218636766603654  0.6877556500781735  0.4367939840893412  1.0000
  C   C31       1.0  0.5769678322856109  0.2477269684700687  0.703743647933905  1.0000
  C   C32       1.0  0.4230320117502871  0.7522760344881975  0.29625573985062187  1.0000
  C   C33       1.0  0.5281351996640709  0.1278187373056667  0.7656497627525312  1.0000
  C   C34       1.0  0.4718640535589387  0.872183125912457  0.23434923615665326  1.0000
  C   C35       1.0  0.6338462879715934  0.3022317541412675  0.7869672405863213  1.0000
  C   C36       1.0  0.36615546103408997  0.6977689464685497  0.21303402243413663  1.0000
  N   N1        1.0  0.14145645554334865  0.18057110429310794  0.16716710470829813  1.0000
  N   N2        1.0  0.8585405928699928  0.8194284817889681  0.8328329122995797  1.0000
  N   N3        1.0  0.18349227887584624  0.3085551323589399  0.9170441551870425  1.0000
  N   N4        1.0  0.8165060836943924  0.6914410116345452  0.08295734818143784  1.0000
  O   O1        1.0  0.8833849181722259  0.25458083830342554  0.9353273660120537  1.0000
  O   O2        1.0  0.11661901730743551  0.7454141290110742  0.06467458749056476  1.0000
  O   O3        1.0  0.8999080951465857  0.0551413360396253  0.8582428476923454  1.0000
  O   O4        1.0  0.10009290839186494  0.9448559394865441  0.14175723963822395  1.0000
  O   O5        1.0  0.2613421228839811  0.020468564480651708  0.9226533505532116  1.0000
  O   O6        1.0  0.7386542002915777  0.9795356051896532  0.07734467557666845  1.0000
  O   O7        1.0  0.1347522906983158  0.1438940296273259  0.6710368472570991  1.0000
  O   O8        1.0  0.8652479876023594  0.8561078294870654  0.3289612491954584  1.0000
  O   O9        1.0  0.20543749137927142  0.8557017491651493  0.8369028562004458  1.0000
  O   O10       1.0  0.7945652770227909  0.1442989526194225  0.16309482418514415  1.0000
  O   O11       1.0  0.885596890902633  0.315311242901167  0.6866891686432266  1.0000
  O   O12       1.0  0.11440617225995448  0.684686015620059  0.31331358073783366  1.0000
