data_image0
_chemical_formula_structural       Tl2B2H26C42S12N6
_chemical_formula_sum              "Tl2 B2 H26 C42 S12 N6"
_cell_length_a       8.18287249708424
_cell_length_b       11.1828965709748
_cell_length_c       14.560489157720859
_cell_angle_alpha    95.13835851199578
_cell_angle_beta     89.99971519207114
_cell_angle_gamma    90.00045586583983

_space_group_name_H-M_alt    "P 1"
_space_group_IT_number       1

loop_
  _space_group_symop_operation_xyz
  'x, y, z'

loop_
  _atom_site_type_symbol
  _atom_site_label
  _atom_site_symmetry_multiplicity
  _atom_site_fract_x
  _atom_site_fract_y
  _atom_site_fract_z
  _atom_site_occupancy
  Tl  Tl1       1.0  0.9656286732185109  0.8101205422248158  0.5448263055710001  1.0000
  Tl  Tl2       1.0  0.4656301383314201  0.1898809669537088  0.4551721929876252  1.0000
  B   B1        1.0  0.5463269385168275  0.9024005253969632  0.7318302171055963  1.0000
  B   B2        1.0  0.046326602977679  0.09759956184247898  0.268171420115344  1.0000
  H   H1        1.0  0.3197126903342351  0.069140148179514  0.6922672195174543  1.0000
  H   H2        1.0  0.8197146157112557  0.9308569498921743  0.30773002505745245  1.0000
  H   H3        1.0  0.2159556520727435  0.27546338617044347  0.6854993719592315  1.0000
  H   H4        1.0  0.7159601718287546  0.7245322328735211  0.3144973790618408  1.0000
  H   H5        1.0  0.4024863603019284  0.45167386959632694  0.7079091141306366  1.0000
  H   H6        1.0  0.902491612739169  0.5483228199132314  0.29209268017240936  1.0000
  H   H7        1.0  0.6962728714749602  0.4231670748298626  0.7405884228236487  1.0000
  H   H8        1.0  0.19627902490200463  0.576834748362039  0.2594135957060574  1.0000
  H   H9        1.0  0.501428794766845  0.0062238705349458  0.9008978405083639  1.0000
  H   H10       1.0  0.0014213188681609001  0.9937741507012845  0.09910035328108792  1.0000
  H   H11       1.0  0.5409456152219151  0.034248918391639904  0.07011916249550151  1.0000
  H   H12       1.0  0.0409403138039153  0.9657511265312518  0.9298804266078733  1.0000
  H   H13       1.0  0.7045733704360514  0.8910073771041952  0.1509177083427886  1.0000
  H   H14       1.0  0.20457049899053456  0.1089917905173294  0.8490827400878589  1.0000
  H   H15       1.0  0.8294445756833255  0.7110666011367287  0.0640024794033778  1.0000
  H   H16       1.0  0.32943922319545044  0.28893505664564156  0.9359977828118106  1.0000
  H   H17       1.0  0.30356035489494815  0.7602312424432327  0.7791519218631678  1.0000
  H   H18       1.0  0.8035628916410573  0.23976759030305322  0.22085028863031653  1.0000
  H   H19       1.0  0.11157071870137972  0.5888338742177837  0.7546491239416967  1.0000
  H   H20       1.0  0.6115736743033652  0.41116387832423845  0.24535149186574057  1.0000
  H   H21       1.0  0.0792276335815174  0.4782763030904746  0.6000475222850599  1.0000
  H   H22       1.0  0.5792279841683482  0.5217239630182321  0.39995334792336484  1.0000
  H   H23       1.0  0.2316041678718719  0.5434961596716691  0.4647869470343835  1.0000
  H   H24       1.0  0.7316087342046559  0.45650854936596375  0.5352144743870895  1.0000
  H   H25       1.0  0.42178507843381413  0.9318903117262638  0.7726788001190599  1.0000
  H   H26       1.0  0.9217844772267797  0.06810828899592988  0.22732443863547053  1.0000
  C   C1        1.0  0.8141291107540738  0.0318520976161238  0.7428760860751995  1.0000
  C   C2        1.0  0.3141309676680351  0.9681512623972353  0.2571229564181507  1.0000
  C   C3        1.0  0.5679203299771274  0.1286525039026358  0.7247887493218883  1.0000
  C   C4        1.0  0.0679283120351144  0.8713476993368517  0.27521214835279306  1.0000
  C   C5        1.0  0.4022952921210107  0.1451406349928419  0.7052489098072245  1.0000
  C   C6        1.0  0.9023001746711544  0.8548569347780415  0.2947501952969063  1.0000
  C   C7        1.0  0.3447415841916809  0.2620819682133728  0.7006659133116317  1.0000
  C   C8        1.0  0.8447451600580606  0.7379179666599143  0.2993321333179182  1.0000
  C   C9        1.0  0.44915283282016116  0.36152342044174907  0.713779977795113  1.0000
  C   C10       1.0  0.9491603352023577  0.6384735286297955  0.2862217031107122  1.0000
  C   C11       1.0  0.6143758192288545  0.34601091405067314  0.7327344752845378  1.0000
  C   C12       1.0  0.1143864054442147  0.6539922369181994  0.2672657982462283  1.0000
  C   C13       1.0  0.6718427572762381  0.22954969094423214  0.7386571585887014  1.0000
  C   C14       1.0  0.1718473243660412  0.7704528900618898  0.2613442908414711  1.0000
  C   C15       1.0  0.7140468077798516  0.7077606254034664  0.7616073095325575  1.0000
  C   C16       1.0  0.21404639760995542  0.29223948448870374  0.23839180034512003  1.0000
  C   C17       1.0  0.6428592690450613  0.8412620736544341  0.8859161710053415  1.0000
  C   C18       1.0  0.14285483895707068  0.15873495094644602  0.11408362311418331  1.0000
  C   C19       1.0  0.5735318637883751  0.9419417934812415  0.9354037350701674  1.0000
  C   C20       1.0  0.0735218898803893  0.05805663290444579  0.06459497058619951  1.0000
  C   C21       1.0  0.5964679677881933  0.9574768584808098  0.0304887223595216  1.0000
  C   C22       1.0  0.09645843025995758  0.04252168722700131  0.9695085534309626  1.0000
  C   C23       1.0  0.6881918356475295  0.875625590693261  0.07660566888691993  1.0000
  C   C24       1.0  0.18818481174556467  0.12437348167967605  0.9233941322875907  1.0000
  C   C25       1.0  0.7580129500039163  0.7750179345657172  0.02835835631866249  1.0000
  C   C26       1.0  0.2580078138599404  0.22498242809811583  0.9716420208648631  1.0000
  C   C27       1.0  0.7337912297763225  0.7585798503514383  0.9330969866597416  1.0000
  C   C28       1.0  0.2337905537549929  0.2414212713025066  0.0669028209105349  1.0000
  C   C29       1.0  0.5461772012083302  0.8621138651121569  0.550888804141735  1.0000
  C   C30       1.0  0.04617937857290141  0.1378907145321051  0.4491138135192401  1.0000
  C   C31       1.0  0.37736141304930726  0.7487115040314833  0.6356106114379827  1.0000
  C   C32       1.0  0.8773664797345829  0.251290420290033  0.3643895343318065  1.0000
  C   C33       1.0  0.28990259984468036  0.7125569012292915  0.7111508429096107  1.0000
  C   C34       1.0  0.7899062775776144  0.2874445325243685  0.28884882831079756  1.0000
  C   C35       1.0  0.18305212896702733  0.6156019673434443  0.6967801583666146  1.0000
  C   C36       1.0  0.6830567304189615  0.3843961869019381  0.3032209708132569  1.0000
  C   C37       1.0  0.16389264555982663  0.5534883100992332  0.6093562615867896  1.0000
  C   C38       1.0  0.663897151666454  0.44651152085259577  0.39064297015411853  1.0000
  C   C39       1.0  0.24881567353816084  0.5891875141609833  0.5334545857724535  1.0000
  C   C40       1.0  0.7488240145044074  0.4108163804228581  0.466544674020156  1.0000
  C   C41       1.0  0.3536961865079107  0.6877591428997506  0.5474363037784684  1.0000
  C   C42       1.0  0.8537011386803286  0.3122453350129035  0.4525627011699386  1.0000
  S   S1        1.0  0.9619536955509888  0.9280958720357191  0.7423850512939937  1.0000
  S   S2        1.0  0.4619543965787045  0.07190919561378452  0.2576116294058792  1.0000
  S   S3        1.0  0.8692743072177579  0.1829145819983893  0.7590663618285305  1.0000
  S   S4        1.0  0.36927589247740394  0.817089982549341  0.24093260527080673  1.0000
  S   S5        1.0  0.7393265343072669  0.639290544738202  0.6555319243342339  1.0000
  S   S6        1.0  0.23933204409605927  0.360711493169056  0.3444658671812419  1.0000
  S   S7        1.0  0.8027887273142086  0.6436336023348732  0.8546939738926512  1.0000
  S   S8        1.0  0.3027873852728434  0.35636610330988117  0.14530486175033272  1.0000
  S   S9        1.0  0.6766553202164046  0.9672767296910795  0.5188436754128816  1.0000
  S   S10       1.0  0.17665485511756174  0.03272676764138539  0.4811564467988489  1.0000
  S   S11       1.0  0.46597411719316284  0.7577027593271025  0.4669807971213444  1.0000
  S   S12       1.0  0.9659788271297599  0.2423005639206721  0.5330205660652041  1.0000
  N   N1        1.0  0.6494363218885866  0.019130292439101002  0.729766002375513  1.0000
  N   N2        1.0  0.14943697931769148  0.9808703600423173  0.27023401016646187  1.0000
  N   N3        1.0  0.6337624754715919  0.8111034483770468  0.7903687843823876  1.0000
  N   N4        1.0  0.1337587546649459  0.18889532127269598  0.20963114904557767  1.0000
  N   N5        1.0  0.4904432378194485  0.8428566319957085  0.6361017728643007  1.0000
  N   N6        1.0  0.9904460671936659  0.1571459253970318  0.3638987851981241  1.0000
