data_image0
_chemical_formula_structural       Zn2P4H24C18O8
_chemical_formula_sum              "Zn2 P4 H24 C18 O8"
_cell_length_a       5.376961919136732
_cell_length_b       8.573867102733212
_cell_length_c       13.124013616950911
_cell_angle_alpha    89.71486410408028
_cell_angle_beta     101.8640358647958
_cell_angle_gamma    90.30953123535846

_space_group_name_H-M_alt    "P 1"
_space_group_IT_number       1

loop_
  _space_group_symop_operation_xyz
  'x, y, z'

loop_
  _atom_site_type_symbol
  _atom_site_label
  _atom_site_symmetry_multiplicity
  _atom_site_fract_x
  _atom_site_fract_y
  _atom_site_fract_z
  _atom_site_occupancy
  Zn  Zn1       1.0  0.2421941680966029  0.36141208055418883  0.9661477261800115  1.0000
  Zn  Zn2       1.0  0.7711801290662238  0.8586230181422749  0.031360465816440815  1.0000
  P   P1        1.0  0.7284230158133198  0.5329431220282926  0.9361430875910487  1.0000
  P   P2        1.0  0.2854892436910035  0.03140152502413679  0.062187534483968  1.0000
  P   P3        1.0  0.827877589185576  0.3098820018569555  0.7653948429800437  1.0000
  P   P4        1.0  0.1715953646634887  0.810282594000121  0.23452538832931683  1.0000
  H   H1        1.0  0.46267146722701813  0.46843745689739075  0.7681371145137064  1.0000
  H   H2        1.0  0.7371924423705065  0.5811621300011396  0.7556038133431642  1.0000
  H   H3        1.0  0.5477994188706461  0.9560424322469102  0.22959660402426615  1.0000
  H   H4        1.0  0.2896784383328849  0.0788305521224686  0.24509923636880873  1.0000
  H   H5        1.0  0.7024838953397178  0.14883024457292046  0.8914427508436946  1.0000
  H   H6        1.0  0.47182290236305846  0.1468714702021003  0.7755919906625124  1.0000
  H   H7        1.0  0.28825386418694166  0.6483241779795178  0.1097188092648622  1.0000
  H   H8        1.0  0.5177655443133987  0.6381209728856518  0.2277405988955081  1.0000
  H   H9        1.0  0.7109455470796036  0.8873283117578267  0.808028191667276  1.0000
  H   H10       1.0  0.9994615497097642  0.9846414998176769  0.8060396017772575  1.0000
  H   H11       1.0  0.757045512329796  0.9747573887880209  0.6901956770239863  1.0000
  H   H12       1.0  0.24090831002018834  0.38650288226578056  0.186755518704075  1.0000
  H   H13       1.0  0.9710649674414921  0.4976238787142009  0.19303336307088162  1.0000
  H   H14       1.0  0.2129094842488968  0.4714796022794019  0.3073371218443413  1.0000
  H   H15       1.0  0.1130483848538901  0.4515162927124265  0.626041864047437  1.0000
  H   H16       1.0  0.051318032034899416  0.46450673571826673  0.43430793865861267  1.0000
  H   H17       1.0  0.686263840305564  0.3251345106703242  0.3225295381673733  1.0000
  H   H18       1.0  0.3767054328845418  0.17898764652669294  0.40608340813410854  1.0000
  H   H19       1.0  0.43277700046473194  0.17003928395519807  0.5968761289112905  1.0000
  H   H20       1.0  0.5603712896148282  0.6671104373479437  0.40280064470945837  1.0000
  H   H21       1.0  0.6118812538850662  0.6681686841434028  0.5932993485699427  1.0000
  H   H22       1.0  0.3036288833901253  0.8110709922490642  0.6773973383499268  1.0000
  H   H23       1.0  0.9454486792902513  0.9562642361138388  0.5664329831445443  1.0000
  H   H24       1.0  0.8879773804993435  0.95154639222509  0.3745180911611429  1.0000
  C   C1        1.0  0.6685086050982747  0.48331007469906245  0.7969190073056751  1.0000
  C   C2        1.0  0.3436279657809038  0.9790104718610021  0.20237520457204286  1.0000
  C   C3        1.0  0.6780756401427225  0.13906365663110173  0.8061961173937606  1.0000
  C   C4        1.0  0.3122690361753442  0.6367347982415764  0.1948415505917325  1.0000
  C   C5        1.0  0.7939198383681472  0.9882441110616615  0.7751121996746095  1.0000
  C   C6        1.0  0.17698579440851597  0.4899370886537682  0.22278665763746372  1.0000
  C   C7        1.0  0.7783058274887862  0.3097099506709924  0.6247252431093031  1.0000
  C   C8        1.0  0.21892952647475275  0.8085646162397137  0.3752544980371014  1.0000
  C   C9        1.0  0.9508880084130878  0.39250537433620986  0.5776918770914179  1.0000
  C   C10       1.0  0.42350938207459876  0.7299471295983507  0.4377992446578034  1.0000
  C   C11       1.0  0.9166486899850168  0.3988510488133911  0.4695291466925582  1.0000
  C   C12       1.0  0.4528877599605181  0.730819984774655  0.545971250873265  1.0000
  C   C13       1.0  0.7115744619774417  0.32119604164114424  0.40719097955386024  1.0000
  C   C14       1.0  0.28059096129145195  0.8111225224678975  0.5928027305630367  1.0000
  C   C15       1.0  0.5384977483902488  0.23920297395864765  0.45373460250585407  1.0000
  C   C16       1.0  0.07940626744649391  0.892029120719812  0.5308027171872283  1.0000
  C   C17       1.0  0.570381742707397  0.23386882415046267  0.5619931792296953  1.0000
  C   C18       1.0  0.0476166076548381  0.8902281109627809  0.42260478971167714  1.0000
  O   O1        1.0  0.016900864695614404  0.5359010890410404  0.9752602783615032  1.0000
  O   O2        1.0  0.10363862611529132  0.9086141670474176  0.0031171405538117005  1.0000
  O   O3        1.0  0.17105750810971188  0.19545344289371508  0.05635654014000831  1.0000
  O   O4        1.0  0.6104432751716119  0.6949268711857144  0.9398500510058839  1.0000
  O   O5        1.0  0.5996366105980896  0.4055856225575027  0.989799326710326  1.0000
  O   O6        1.0  0.5429056676631704  0.03137501286033739  0.029486028048943097  1.0000
  O   O7        1.0  0.1143545299314539  0.31518094598168733  0.8101343332255269  1.0000
  O   O8        1.0  0.8854438182447596  0.8182701235053288  0.18947906705034975  1.0000
