data_image0
_chemical_formula_structural       Zn2H24C30N6O8
_chemical_formula_sum              "Zn2 H24 C30 N6 O8"
_cell_length_a       11.147054965349678
_cell_length_b       14.069000818794146
_cell_length_c       15.263773411335812
_cell_angle_alpha    93.19411963150914
_cell_angle_beta     89.25836763211754
_cell_angle_gamma    87.22424052242269

_space_group_name_H-M_alt    "P 1"
_space_group_IT_number       1

loop_
  _space_group_symop_operation_xyz
  'x, y, z'

loop_
  _atom_site_type_symbol
  _atom_site_label
  _atom_site_symmetry_multiplicity
  _atom_site_fract_x
  _atom_site_fract_y
  _atom_site_fract_z
  _atom_site_occupancy
  Zn  Zn1       1.0  0.4920129240974376  0.6054920272663012  0.5009563187756  1.0000
  Zn  Zn2       1.0  0.49764205862744865  0.40314112524582396  0.4877290521617254  1.0000
  H   H1        1.0  0.3121315483553674  0.7654885541668005  0.5330485691021919  1.0000
  H   H2        1.0  0.6764783849950505  0.7477930626664034  0.47893880410024536  1.0000
  H   H3        1.0  0.08035238264047709  0.5851023165492535  0.47372851659888926  1.0000
  H   H4        1.0  0.9017130509160793  0.5464254740848558  0.538183902995037  1.0000
  H   H5        1.0  0.570286810558315  0.6374187137749343  0.061140060084440485  1.0000
  H   H6        1.0  0.4526598387028642  0.6445266768736603  0.9432104170856306  1.0000
  H   H7        1.0  0.5563932155800941  0.6403115833924103  0.22432148487286696  1.0000
  H   H8        1.0  0.45620617914899964  0.6466548889498467  0.7802046181807398  1.0000
  H   H9        1.0  0.43458610094331374  0.3555884260484277  0.2101055225310517  1.0000
  H   H10       1.0  0.566836875541668  0.3500348128557462  0.7602372147730916  1.0000
  H   H11       1.0  0.4423590681091697  0.35279095980977354  0.04659637613176668  1.0000
  H   H12       1.0  0.5671516856312878  0.34697797123563834  0.9234231245070389  1.0000
  H   H13       1.0  0.6322103276454529  0.0537260681215628  0.3997351691142583  1.0000
  H   H14       1.0  0.3566850868536379  0.08490161838627588  0.6028614211547135  1.0000
  H   H15       1.0  0.30371605341637326  0.944190392051617  0.5338930440686553  1.0000
  H   H16       1.0  0.6851339133662648  0.9256589651639969  0.477056024712418  1.0000
  H   H17       1.0  0.21510523861230274  0.342993401270462  0.4604775440657249  1.0000
  H   H18       1.0  0.07765326132463461  0.2891217269364432  0.445867940694427  1.0000
  H   H19       1.0  0.9606213322013772  0.35633791996574604  0.3255522135349054  1.0000
  H   H20       1.0  0.814882195722987  0.37898394961075615  0.36217721088389954  1.0000
  H   H21       1.0  0.6666279973129009  0.3086971570800046  0.4037535461040135  1.0000
  H   H22       1.0  0.7152536109942601  0.1973813749107407  0.36091098123723236  1.0000
  H   H23       1.0  0.328414402125162  0.34242313782129935  0.5896353829324709  1.0000
  H   H24       1.0  0.28143211871899604  0.24198443412402773  0.639577987330888  1.0000
  C   C1        1.0  0.48780592250310667  0.4997917644480339  0.32503895319386794  1.0000
  C   C2        1.0  0.5088213888482472  0.5017200515977791  0.6625561975006917  1.0000
  C   C3        1.0  0.5063979834053214  0.49518115024181225  0.041908041763313995  1.0000
  C   C4        1.0  0.5094941921050733  0.4955131202039809  0.9452408276764999  1.0000
  C   C5        1.0  0.5720457478906624  0.0969549941449657  0.4443013570915895  1.0000
  C   C6        1.0  0.41638899272606966  0.1142334734934991  0.5554105323119742  1.0000
  C   C7        1.0  0.5710126254913632  0.19680962052437678  0.44292704203911626  1.0000
  C   C8        1.0  0.4174362488596729  0.21388333932495832  0.5498804927337984  1.0000
  C   C9        1.0  0.4940630502026836  0.055424936895235505  0.5016088064026931  1.0000
  C   C10       1.0  0.3888523748132685  0.9038880299191233  0.522153483406619  1.0000
  C   C11       1.0  0.5999733736084779  0.8934325803856139  0.4889648883993018  1.0000
  C   C12       1.0  0.39215492318777484  0.8050363391240795  0.5217803297395847  1.0000
  C   C13       1.0  0.5965090439089593  0.7949814335107915  0.49014576331938986  1.0000
  C   C14       1.0  0.4942794468890528  0.9505864308778201  0.5046246292066172  1.0000
  C   C15       1.0  0.7323012636262972  0.5033565544994898  0.4833962893458192  1.0000
  C   C16       1.0  0.2572884898726855  0.5191406555361694  0.4944014683344661  1.0000
  C   C17       1.0  0.07092840468520481  0.4351836965834153  0.45532359149875384  1.0000
  C   C18       1.0  0.9396752857260895  0.4375729666654777  0.43978012521291987  1.0000
  C   C19       1.0  0.12942279768104473  0.5167578694181499  0.4765906237274179  1.0000
  C   C20       1.0  0.8633820191556508  0.49793171066707487  0.48941823571423976  1.0000
  C   C21       1.0  0.5383308550559464  0.5759342544238419  0.0933878695213011  1.0000
  C   C22       1.0  0.47965506982831846  0.5799787013773494  0.9034861142983316  1.0000
  C   C23       1.0  0.5317940904784991  0.5777409228132412  0.18449217083828978  1.0000
  C   C24       1.0  0.48052963411158334  0.5815662344478695  0.8125878629119896  1.0000
  C   C25       1.0  0.49415265470400266  0.4983005897183118  0.22696538584084885  1.0000
  C   C26       1.0  0.5112269684540324  0.49861725934940887  0.7603839172414695  1.0000
  C   C27       1.0  0.46377236477464123  0.41694447580947985  0.17636569238130304  1.0000
  C   C28       1.0  0.5418982759497197  0.41411815488371667  0.8011454385685325  1.0000
  C   C29       1.0  0.46948627671792315  0.4155549764579406  0.0851757489260834  1.0000
  C   C30       1.0  0.5410330479091671  0.4126935420508459  0.8923276452484854  1.0000
  N   N1        1.0  0.49354934752542345  0.2546421667635954  0.4938707898794873  1.0000
  N   N2        1.0  0.4941662929417277  0.751472627747141  0.5057299494131725  1.0000
  N   N3        1.0  0.12752978829520603  0.3470124445451717  0.4419026292208628  1.0000
  N   N4        1.0  0.9032176873133156  0.37027212447078717  0.37741853206620846  1.0000
  N   N5        1.0  0.6471607515940506  0.23927861247327087  0.3886054197541498  1.0000
  N   N6        1.0  0.3422927349131656  0.2719990816834184  0.6016249166627927  1.0000
  O   O1        1.0  0.5087478683887525  0.5777900040847896  0.3671429803868164  1.0000
  O   O2        1.0  0.47776169353514325  0.5810857476751181  0.6315990497471304  1.0000
  O   O3        1.0  0.462622084022982  0.4220933209068177  0.35900613934465747  1.0000
  O   O4        1.0  0.5369068321673183  0.4244738066290239  0.6171573642726286  1.0000
  O   O5        1.0  0.6772011053576322  0.5802637720564262  0.5127066085930494  1.0000
  O   O6        1.0  0.30694075804419196  0.5987105524009096  0.4917020096641877  1.0000
  O   O7        1.0  0.6784460571622547  0.43030590167801813  0.45048281305784593  1.0000
  O   O8        1.0  0.3156438435998581  0.4400672947593876  0.511500451446004  1.0000
