data_image0
_chemical_formula_structural       Hg2H16C44N12O4F16
_chemical_formula_sum              "Hg2 H16 C44 N12 O4 F16"
_cell_length_a       8.359892977177896
_cell_length_b       10.462621495142933
_cell_length_c       12.49364034729253
_cell_angle_alpha    98.11242027920551
_cell_angle_beta     90.00008517279436
_cell_angle_gamma    89.99925844769483

_space_group_name_H-M_alt    "P 1"
_space_group_IT_number       1

loop_
  _space_group_symop_operation_xyz
  'x, y, z'

loop_
  _atom_site_type_symbol
  _atom_site_label
  _atom_site_symmetry_multiplicity
  _atom_site_fract_x
  _atom_site_fract_y
  _atom_site_fract_z
  _atom_site_occupancy
  Hg  Hg1       1.0  1.1961884424999998e-06  0.9999999998570174  8.003909214528858e-07  1.0000
  Hg  Hg2       1.0  0.4999987943577366  0.5000005809016485  0.99999986000973  1.0000
  H   H1        1.0  0.033414010050528  0.8760107552626338  0.6948890641275796  1.0000
  H   H2        1.0  0.5334124374364252  0.623989171500085  0.3051130164081002  1.0000
  H   H3        1.0  0.9665870726163135  0.12398950286936379  0.3051105312267239  1.0000
  H   H4        1.0  0.46658744905048627  0.3760101211936586  0.6948864647411455  1.0000
  H   H5        1.0  0.09713894031699512  0.6588698743924438  0.5873044104549194  1.0000
  H   H6        1.0  0.5971365071807498  0.8411284201698449  0.4126983414018994  1.0000
  H   H7        1.0  0.9028609461546537  0.34113134919031296  0.4126952991047261  1.0000
  H   H8        1.0  0.40286337930528054  0.15887087266062141  0.5873003393562897  1.0000
  H   H9        1.0  0.19032703769101286  0.5115864441475466  0.8724742317420464  1.0000
  H   H10       1.0  0.690326393894402  0.9884079795087217  0.1275265549792692  1.0000
  H   H11       1.0  0.8096740449749477  0.4884138141211736  0.1275245632212005  1.0000
  H   H12       1.0  0.30967588496763204  0.011591313172502298  0.8724729261696922  1.0000
  H   H13       1.0  0.296538557907752  0.01665543204671139  0.1874895565549011  1.0000
  H   H14       1.0  0.7965407008516082  0.48334307385990627  0.8125111384189198  1.0000
  H   H15       1.0  0.7034625247590897  0.983344826085279  0.8125100387994023  1.0000
  H   H16       1.0  0.2034591856344221  0.5166562189705528  0.18748754233926948  1.0000
  C   C1        1.0  0.0675491213654382  0.7939847084735587  0.7347151846603381  1.0000
  C   C2        1.0  0.5675461426893734  0.7060129299114164  0.2652890606757481  1.0000
  C   C3        1.0  0.9324519612937721  0.2060165151029451  0.2652845248991653  1.0000
  C   C4        1.0  0.43245374379842627  0.2939863626455973  0.7347112208645612  1.0000
  C   C5        1.0  0.1032980876180076  0.6737441744432856  0.6754286779804701  1.0000
  C   C6        1.0  0.603294503214471  0.826253090386672  0.3245731578435098  1.0000
  C   C7        1.0  0.8967029950412029  0.3262570491332183  0.3245710315790332  1.0000
  C   C8        1.0  0.3967041870781288  0.17374716762110146  0.6754272379021344  1.0000
  C   C9        1.0  0.15610580547991046  0.5929175087496006  0.8317614904619931  1.0000
  C   C10       1.0  0.6561041661826507  0.9070763069072636  0.16824239160111884  1.0000
  C   C11       1.0  0.8438952771792999  0.4070837148269033  0.16823821909751047  1.0000
  C   C12       1.0  0.343896916492703  0.0929229856434972  0.8317578899390483  1.0000
  C   C13       1.0  0.12330304768024551  0.7134861108762678  0.8920681060042313  1.0000
  C   C14       1.0  0.6233044094600828  0.7865138409903523  0.10793406776829068  1.0000
  C   C15       1.0  0.8766968387999158  0.28651414712525985  0.1079322897412709  1.0000
  C   C16       1.0  0.3766942808316358  0.2134864171541508  0.8920655275862899  1.0000
  C   C17       1.0  0.14629984207922322  0.7308011690358923  0.01284479008400298  1.0000
  C   C18       1.0  0.6462938498418254  0.7691821282400466  0.9871642411383021  1.0000
  C   C19       1.0  0.853698848205738  0.2692000544164017  0.9871557198668413  1.0000
  C   C20       1.0  0.35370364425558165  0.23081909521850008  0.012836268812684192  1.0000
  C   C21       1.0  0.12254986036057859  0.8628978704436251  0.18322321083327608  1.0000
  C   C22       1.0  0.6225492042655817  0.6371020890391533  0.8167805638972964  1.0000
  C   C23       1.0  0.8774512223071512  0.1371023875516428  0.8167771849120911  1.0000
  C   C24       1.0  0.3774494860270181  0.3628981689686269  0.18321983184834778  1.0000
  C   C25       1.0  0.029714391095453197  0.7910280324165908  0.24665967596145316  1.0000
  C   C26       1.0  0.5297148324763228  0.7089757948151882  0.7533428622577887  1.0000
  C   C27       1.0  0.970286691556126  0.20897415660442673  0.7533401478032503  1.0000
  C   C28       1.0  0.4702862501999193  0.2910234975988359  0.246658219673435  1.0000
  C   C29       1.0  0.035306506212982904  0.8141403267991689  0.3592239780135317  1.0000
  C   C30       1.0  0.5353058748728259  0.6858644069736781  0.640781074279758  1.0000
  C   C31       1.0  0.9646933802671782  0.18585993120235858  0.6407764177319777  1.0000
  C   C32       1.0  0.4646952078016469  0.31413488571379833  0.3592184068693456  1.0000
  C   C33       1.0  0.14106315700421854  0.9062170500956764  0.41004676666806006  1.0000
  C   C34       1.0  0.6410615011948195  0.5937875432215589  0.5899559739879904  1.0000
  C   C35       1.0  0.8589391218425534  0.09378417347457457  0.5899529428913013  1.0000
  C   C36       1.0  0.3589395814746723  0.40621271450024904  0.41004602253949685  1.0000
  C   C37       1.0  0.23488908193466773  0.9766096466028172  0.3470574713236516  1.0000
  C   C38       1.0  0.7348910886567384  0.5233929994684344  0.6529467340225281  1.0000
  C   C39       1.0  0.765112000739812  0.0233896460846665  0.6529420098254518  1.0000
  C   C40       1.0  0.265108797823423  0.4766072585330861  0.347053661722974  1.0000
  C   C41       1.0  0.22654211882236552  0.957073337140315  0.2351266884965852  1.0000
  C   C42       1.0  0.7265440581703262  0.5429265004618813  0.7648739746168332  1.0000
  C   C43       1.0  0.7734589638538694  0.0429259552737165  0.7648743934346386  1.0000
  C   C44       1.0  0.2734570245135474  0.45707182650763667  0.23512699310919058  1.0000
  N   N1        1.0  0.0776807943657545  0.8131934621586578  0.8424819219929204  1.0000
  N   N2        1.0  0.5776802793728493  0.6868031051921122  0.157519805601126  1.0000
  N   N3        1.0  0.9223190921144068  0.18680679584286247  0.1575184737525817  1.0000
  N   N4        1.0  0.4223184109179884  0.31319715308912066  0.8424789893623981  1.0000
  N   N5        1.0  0.14733659698885762  0.5728138117764342  0.7237079963721412  1.0000
  N   N6        1.0  0.6473360687987294  0.9271829923526338  0.2762938291788046  1.0000
  N   N7        1.0  0.8526644856771027  0.4271864464922856  0.2762907985911056  1.0000
  N   N8        1.0  0.3526638176881889  0.0728163003411026  0.723705651970441  1.0000
  N   N9        1.0  0.10398145555206643  0.8454868951193718  0.06956923009728651  1.0000
  N   N10       1.0  0.6039831623913586  0.6545132588677659  0.9304329481822576  1.0000
  N   N11       1.0  0.8960196271224136  0.15451239756811216  0.930430251051817  1.0000
  N   N12       1.0  0.3960179202831143  0.3454860338197178  0.0695665329668458  1.0000
  O   O1        1.0  0.20653584011216  0.63981708114801  0.05459917156488809  1.0000
  O   O2        1.0  0.7065462361885225  0.860188758908727  0.9453989798812757  1.0000
  O   O3        1.0  0.7934628501880712  0.3601822114152569  0.945401109975556  1.0000
  O   O4        1.0  0.2934512579080036  0.13981246468654968  0.054600729678647  1.0000
  F   F1        1.0  0.9277911597738182  0.700090541726034  0.19909854506946797  1.0000
  F   F2        1.0  0.4277906004735075  0.7999139481965539  0.8009060721004032  1.0000
  F   F3        1.0  0.0722087267054619  0.2999097164122161  0.8009010502849776  1.0000
  F   F4        1.0  0.5722104822009725  0.20008534449092955  0.19909340904870018  1.0000
  F   F5        1.0  0.93791553002513  0.7503689645111393  0.41948243027737664  1.0000
  F   F6        1.0  0.4379140970637891  0.7496383159756873  0.5805217267554639  1.0000
  F   F7        1.0  0.0620855526264492  0.24963322450987843  0.5805173934873267  1.0000
  F   F8        1.0  0.5620869856115647  0.2503609765750666  0.4194785547847033  1.0000
  F   F9        1.0  0.14960148883450589  0.9279985662788377  0.5190279056746689  1.0000
  F   F10       1.0  0.6495999430177832  0.5720040068296866  0.48097460457927343  1.0000
  F   F11       1.0  0.8503983976532937  0.0720007262781763  0.4809723758656403  1.0000
  F   F12       1.0  0.3504011396490582  0.42799625130230373  0.51902499077503  1.0000
  F   F13       1.0  0.33390130022727504  0.06759943425360149  0.3991941327932906  1.0000
  F   F14       1.0  0.8339014031447649  0.43240157714722455  0.6008068960809254  1.0000
  F   F15       1.0  0.6661021748146895  0.9324008238658762  0.6008054625607357  1.0000
  F   F16       1.0  0.16609848332776522  0.5675996462988095  0.3991936138697767  1.0000
