data_image0
_chemical_formula_structural       Dy2Cu2H20C32N10O18
_chemical_formula_sum              "Dy2 Cu2 H20 C32 N10 O18"
_cell_length_a       10.453198496688541
_cell_length_b       10.872928673338748
_cell_length_c       11.629652274004066
_cell_angle_alpha    72.85333141245144
_cell_angle_beta     81.7364616570102
_cell_angle_gamma    59.08047480833924

_space_group_name_H-M_alt    "P 1"
_space_group_IT_number       1

loop_
  _space_group_symop_operation_xyz
  'x, y, z'

loop_
  _atom_site_type_symbol
  _atom_site_label
  _atom_site_symmetry_multiplicity
  _atom_site_fract_x
  _atom_site_fract_y
  _atom_site_fract_z
  _atom_site_occupancy
  Dy  Dy1       1.0  0.435399973675807  0.007501598866881008  0.8232641957447484  1.0000
  Dy  Dy2       1.0  0.5645995740037506  0.9924967513849129  0.17673387903511875  1.0000
  Cu  Cu1       1.0  0.9999988775866558  0.9999999618816061  2.8920714214408343e-06  1.0000
  Cu  Cu2       1.0  3.619345754695407e-06  6.959782651998073e-07  0.499999635477849  1.0000
  H   H1        1.0  0.9273714336130117  0.7697462035180891  0.4882397661742815  1.0000
  H   H2        1.0  0.07263143887873012  0.23026834194818946  0.5117599263408934  1.0000
  H   H3        1.0  0.026609252384176305  0.49612368439890986  0.5838874828847551  1.0000
  H   H4        1.0  0.9733804446320136  0.5038892110709483  0.416104487463457  1.0000
  H   H5        1.0  0.3585271288946076  0.4928350371786009  0.7650712947417802  1.0000
  H   H6        1.0  0.6414788748077672  0.5071521822292127  0.23493587531038426  1.0000
  H   H7        1.0  0.2500741331493686  0.766452321515267  0.6621878715211692  1.0000
  H   H8        1.0  0.7499428198736737  0.2335344457964936  0.3378202492680772  1.0000
  H   H9        1.0  0.018592221275994796  0.2530070014681272  0.8200829200633137  1.0000
  H   H10       1.0  0.9813983301067357  0.7469938968512293  0.17991413780418253  1.0000
  H   H11       1.0  0.8706333056889125  0.5328668507391824  0.7673992683411229  1.0000
  H   H12       1.0  0.12935560336575944  0.46713519539366644  0.2325942769596594  1.0000
  H   H13       1.0  0.5819020074746535  0.5003383512973157  0.06267316120889893  1.0000
  H   H14       1.0  0.41810014533834317  0.4996653463621995  0.9373298156601352  1.0000
  H   H15       1.0  0.7362109219555392  0.22234472104016592  0.10394144891041893  1.0000
  H   H16       1.0  0.2637884433198608  0.7776591043698814  0.8960662414704359  1.0000
  H   H17       1.0  0.21232677613111423  0.98107429837043  0.7195214225940848  1.0000
  H   H18       1.0  0.7876726015551443  0.01891645321543931  0.28048234070215733  1.0000
  H   H19       1.0  0.3330401095546805  0.9446055398644617  0.6196463067932569  1.0000
  H   H20       1.0  0.6669531726617564  0.05539417162845689  0.3803566810733515  1.0000
  C   C1        1.0  0.8037855575745851  0.028726753341999305  0.7081955413906016  1.0000
  C   C2        1.0  0.19621808942206106  0.9712768509892128  0.29179517633033925  1.0000
  C   C3        1.0  0.8139460308332434  0.015249884968554296  0.8307779316603715  1.0000
  C   C4        1.0  0.18605346356576305  0.9847506431062525  0.1692195155826326  1.0000
  C   C5        1.0  0.6931047102481999  0.045574650795273904  0.6263393776948264  1.0000
  C   C6        1.0  0.3068907524028717  0.9544282195706727  0.3736571739887965  1.0000
  C   C7        1.0  0.7301699091399816  0.9916170627157328  0.9409737157231035  1.0000
  C   C8        1.0  0.2698332188892536  0.008380056340819004  0.059026723583769994  1.0000
  C   C9        1.0  0.023048893201043138  0.7043789423424016  0.5496192326449005  1.0000
  C   C10       1.0  0.9769522161129489  0.29563133238982425  0.4503845723849978  1.0000
  C   C11       1.0  0.07785895260499136  0.5535909567684529  0.6026612328845219  1.0000
  C   C12       1.0  0.9221373512881429  0.4464205851114824  0.3973343713833942  1.0000
  C   C13       1.0  0.19926617388293266  0.4757353888103779  0.681983023261445  1.0000
  C   C14       1.0  0.8007326451303527  0.5242684243577429  0.318010991909091  1.0000
  C   C15       1.0  0.2633031837387634  0.5520641597591762  0.7041199055995122  1.0000
  C   C16       1.0  0.7367066044479671  0.4479294278844391  0.29588479516392857  1.0000
  C   C17       1.0  0.20354284412375284  0.7024191415161595  0.6478686573699335  1.0000
  C   C18       1.0  0.7964644672211633  0.29757781766299723  0.352137178163325  1.0000
  C   C19       1.0  0.2624591932525036  0.31306517560423686  0.7429497479647154  1.0000
  C   C20       1.0  0.7375398647504599  0.6869386429197275  0.25705025011033206  1.0000
  C   C21       1.0  0.9208191568101824  0.3120051871945649  0.8714367027592331  1.0000
  C   C22       1.0  0.07917407212571002  0.6879967021213671  0.12856565757051902  1.0000
  C   C23       1.0  0.8394650376732077  0.4662815077235294  0.8427832515842371  1.0000
  C   C24       1.0  0.16053452500856488  0.5337190218815167  0.15721590506004904  1.0000
  C   C25       1.0  0.7148329590013776  0.5363132943924355  0.9114264172269204  1.0000
  C   C26       1.0  0.2851650979178687  0.4636883860865808  0.08857264565323665  1.0000
  C   C27       1.0  0.6784642021923589  0.4481136651241541  0.008233469840774905  1.0000
  C   C28       1.0  0.3215323148229816  0.55188916546372  0.9917646445746016  1.0000
  C   C29       1.0  0.7642227311146145  0.29446517298099906  0.03163392875210751  1.0000
  C   C30       1.0  0.23577609947754757  0.7055375826414547  0.9683724393306578  1.0000
  C   C31       1.0  0.618620123114418  0.7025598103563268  0.8794821926913912  1.0000
  C   C32       1.0  0.3813762764745548  0.2974408385829364  0.12051227575762617  1.0000
  N   N1        1.0  0.9286960282416674  0.03093863166095901  0.6583244559723411  1.0000
  N   N2        1.0  0.07130931436358182  0.9690616470337473  0.341670401852177  1.0000
  N   N3        1.0  0.011458845021408596  0.021915742368676702  0.7404959391233348  1.0000
  N   N4        1.0  0.9885452882284937  0.9780791567914306  0.2595041263502225  1.0000
  N   N5        1.0  0.9422305489819608  0.012622047703246205  0.8443771859080229  1.0000
  N   N6        1.0  0.05776949923946252  0.9873773715710144  0.1556213564692897  1.0000
  N   N7        1.0  0.0851721865191379  0.776723942247088  0.5728268287158116  1.0000
  N   N8        1.0  0.9148404150726608  0.22327823429390042  0.42717663129285915  1.0000
  N   N9        1.0  0.8824569709867092  0.22835727970175407  0.9638373338846195  1.0000
  N   N10       1.0  0.11753629209055562  0.7716446103792978  0.03616588114577719  1.0000
  O   O1        1.0  0.7386079991022926  0.035104614559635594  0.5207504098053022  1.0000
  O   O2        1.0  0.26139118460093874  0.9648926697301619  0.479250616179698  1.0000
  O   O3        1.0  0.5638712150299058  0.0741476201050943  0.6656696759879352  1.0000
  O   O4        1.0  0.43612194562321355  0.9258542676805989  0.3343309749405207  1.0000
  O   O5        1.0  0.619555724312342  0.9762530979885825  0.9360945986895787  1.0000
  O   O6        1.0  0.38044106997101335  0.023745380778862603  0.06390904430275408  1.0000
  O   O7        1.0  0.7754284051960314  0.9833135308744829  0.041043516234431345  1.0000
  O   O8        1.0  0.22457504251650562  0.0166705212439808  0.9589606882936366  1.0000
  O   O9        1.0  0.2234126946936357  0.23707450537003893  0.7065468934860205  1.0000
  O   O10       1.0  0.7765864882959832  0.7629303737600779  0.29344417047937543  1.0000
  O   O11       1.0  0.35624358348364626  0.2556937660674734  0.8280365113898611  1.0000
  O   O12       1.0  0.6437579104914376  0.7442957849197923  0.17195779729389227  1.0000
  O   O13       1.0  0.5031989830126736  0.760910304464822  0.9424725529924771  1.0000
  O   O14       1.0  0.49680004498586083  0.23908915535263023  0.05752528135371904  1.0000
  O   O15       1.0  0.652697807664744  0.7802691278136181  0.7893836672775265  1.0000
  O   O16       1.0  0.34729559953834876  0.2197316442854458  0.2106103864794378  1.0000
  O   O17       1.0  0.321722977450179  0.937003584894228  0.7075786173393084  1.0000
  O   O18       1.0  0.6782767942168421  0.06299259136014969  0.2924243584806447  1.0000
