data_image0
_chemical_formula_structural       Ag2H18C22S4N6O10F6
_chemical_formula_sum              "Ag2 H18 C22 S4 N6 O10 F6"
_cell_length_a       8.284656477888962
_cell_length_b       9.000746081134883
_cell_length_c       14.076021863897623
_cell_angle_alpha    89.9988430128441
_cell_angle_beta     90.00098866579445
_cell_angle_gamma    113.94850201984913

_space_group_name_H-M_alt    "P 1"
_space_group_IT_number       1

loop_
  _space_group_symop_operation_xyz
  'x, y, z'

loop_
  _atom_site_type_symbol
  _atom_site_label
  _atom_site_symmetry_multiplicity
  _atom_site_fract_x
  _atom_site_fract_y
  _atom_site_fract_z
  _atom_site_occupancy
  Ag  Ag1       1.0  0.5111281817781758  0.1439502215337214  0.23707786515697649  1.0000
  Ag  Ag2       1.0  0.48886917372288957  0.8560433884175324  0.7370730993591721  1.0000
  H   H1        1.0  0.2782471732834892  0.39111583619889956  0.16255759607624037  1.0000
  H   H2        1.0  0.7217567742422305  0.6088869661390532  0.6625541000454546  1.0000
  H   H3        1.0  0.5733553864310109  0.7512190184597712  0.9321584385860715  1.0000
  H   H4        1.0  0.42663625719433174  0.24878175346050566  0.432161001966726  1.0000
  H   H5        1.0  0.2095465599694677  0.5077148458900282  0.7225151344299547  1.0000
  H   H6        1.0  0.7904574550682285  0.49227558104950464  0.22252107001921215  1.0000
  H   H7        1.0  0.11697987297613817  0.242535344634831  0.8086934233177416  1.0000
  H   H8        1.0  0.883023330197382  0.757461389929638  0.3086926128510896  1.0000
  H   H9        1.0  0.9492340890295168  0.7034675191804141  0.09588174660829198  1.0000
  H   H10       1.0  0.05077572541339491  0.29653943439858205  0.5958897189974409  1.0000
  H   H11       1.0  0.1560421575152445  0.9788319874768731  0.14977188383545575  1.0000
  H   H12       1.0  0.8439624149132355  0.0211675134741967  0.6497715087442869  1.0000
  H   H13       1.0  0.5560266845399296  0.8216937042841649  0.20195016523840784  1.0000
  H   H14       1.0  0.4439779975785711  0.17830812584688968  0.7019444434798672  1.0000
  H   H15       1.0  0.052686091344590076  0.4756224923019232  0.09746437041615508  1.0000
  H   H16       1.0  0.9473195907371946  0.5243831618611309  0.5974727623260989  1.0000
  H   H17       1.0  0.25496504673898107  0.23847440668804148  0.9680161482092727  1.0000
  H   H18       1.0  0.7450324698888766  0.7615291718714091  0.4680096316761819  1.0000
  C   C1        1.0  0.47035815012764454  0.6380135026452506  0.9071494519550497  1.0000
  C   C2        1.0  0.5296392658668766  0.36198554484789713  0.4071544368824789  1.0000
  C   C3        1.0  0.2680164846555044  0.4996942636638479  0.7904203199492982  1.0000
  C   C4        1.0  0.7319877623737979  0.5003005204940861  0.2904255627049181  1.0000
  C   C5        1.0  0.4213511351911947  0.4963551777647055  0.9607298865177185  1.0000
  C   C6        1.0  0.5786401779116942  0.5036485059408092  0.46072927771131583  1.0000
  C   C7        1.0  0.21450507449095105  0.35327449547994405  0.8398412065653247  1.0000
  C   C8        1.0  0.7854857108347346  0.646724938018039  0.33984083961320266  1.0000
  C   C9        1.0  0.31254967729174143  0.6327862632764861  0.14901971707682546  1.0000
  C   C10       1.0  0.6874562738734156  0.36721931921513107  0.649021120259718  1.0000
  C   C11       1.0  0.0820977363173796  0.7235901855412976  0.1187587108257375  1.0000
  C   C12       1.0  0.9179085138787002  0.27641252684298934  0.618765028142434  1.0000
  C   C13       1.0  0.1965144599804348  0.8778617849831607  0.14832559648606036  1.0000
  C   C14       1.0  0.8034869660840015  0.12213892251954657  0.6483220915594499  1.0000
  C   C15       1.0  0.4208350621370869  0.7905592111190174  0.1783222700598159  1.0000
  C   C16       1.0  0.5791684870686638  0.20944440283159338  0.6783160892212052  1.0000
  C   C17       1.0  0.14001737774105294  0.5985240474131217  0.1189296007725602  1.0000
  C   C18       1.0  0.8599887045628093  0.40148107707053526  0.618930170621212  1.0000
  C   C19       1.0  0.29222598290110824  0.35040084755317474  0.9270864372948822  1.0000
  C   C20       1.0  0.7077712835937575  0.6495964923478752  0.42708738110133027  1.0000
  C   C21       1.0  0.9950305028240862  0.21745440886304127  0.351894230545959  1.0000
  C   C22       1.0  0.004971942247713895  0.7825376126731385  0.8518976106302245  1.0000
  S   S1        1.0  0.9468814402041019  0.15070514880064678  0.2253892150751895  1.0000
  S   S2        1.0  0.05311344953224041  0.8492947677527878  0.7253936413243095  1.0000
  S   S3        1.0  0.5227684467357605  0.5070811361155448  0.0730242621387802  1.0000
  S   S4        1.0  0.4772326093810833  0.49291539674850066  0.5730183742607053  1.0000
  N   N1        1.0  0.36261991175931035  0.9103194867736877  0.1780185627694166  1.0000
  N   N2        1.0  0.6373850164280981  0.08968173324345227  0.6780209057335753  1.0000
  N   N3        1.0  0.3947585462941205  0.6393086247698605  0.8227559000624893  1.0000
  N   N4        1.0  0.6052327837680239  0.36068761343842937  0.3227602429686697  1.0000
  N   N5        1.0  0.3760947004820281  0.5078666478576253  0.1521019683624871  1.0000
  N   N6        1.0  0.6239094022917796  0.49214004436469583  0.6520982796805795  1.0000
  O   O1        1.0  0.8456313526793195  0.9763516476931927  0.23306879580680118  1.0000
  O   O2        1.0  0.15435830482709886  0.023646804081913296  0.7330706721314897  1.0000
  O   O3        1.0  0.12436328668050578  0.1977783681140153  0.1845507853577999  1.0000
  O   O4        1.0  0.8756362168354029  0.8022238317143504  0.684548480957062  1.0000
  O   O5        1.0  0.8528494071939008  0.24515394410512667  0.1890412155093131  1.0000
  O   O6        1.0  0.14714497571819146  0.7548444533116978  0.6890442545222369  1.0000
  O   O7        1.0  0.6718469808724875  0.6623584611299194  0.0771899630549342  1.0000
  O   O8        1.0  0.3281592027031124  0.33766100527314785  0.5771888353245698  1.0000
  O   O9        1.0  0.5436110927645218  0.3569836436174398  0.0874896481470913  1.0000
  O   O10       1.0  0.45640065009182257  0.643028379574247  0.587485168332627  1.0000
  F   F1        1.0  0.8425142856492371  0.18405764374720227  0.4005707823055217  1.0000
  F   F2        1.0  0.15748717771780454  0.815951290791041  0.9005752695797823  1.0000
  F   F3        1.0  0.08381217254930108  0.13859344631777049  0.3957477072267039  1.0000
  F   F4        1.0  0.9161678455875517  0.8613826970758256  0.8957422074437673  1.0000
  F   F5        1.0  0.09496782313749463  0.3800762843865401  0.3581716710942189  1.0000
  F   F6        1.0  0.9050432255859917  0.6199072223707917  0.8581734328647598  1.0000
