data_image0
_chemical_formula_structural       Ca2H24C16N4O16
_chemical_formula_sum              "Ca2 H24 C16 N4 O16"
_cell_length_a       5.227246028807125
_cell_length_b       5.875169557781258
_cell_length_c       19.342768495426718
_cell_angle_alpha    90.00070299056691
_cell_angle_beta     89.99960203283348
_cell_angle_gamma    98.1256870357373

_space_group_name_H-M_alt    "P 1"
_space_group_IT_number       1

loop_
  _space_group_symop_operation_xyz
  'x, y, z'

loop_
  _atom_site_type_symbol
  _atom_site_label
  _atom_site_symmetry_multiplicity
  _atom_site_fract_x
  _atom_site_fract_y
  _atom_site_fract_z
  _atom_site_occupancy
  Ca  Ca1       1.0  0.9999898027559126  0.9999963476794208  0.9999995377105083  1.0000
  Ca  Ca2       1.0  0.50000124174408  0.4999956816829041  0.49999976884486597  1.0000
  H   H1        1.0  0.8938749201702336  0.5630887791393135  0.8937301460621969  1.0000
  H   H2        1.0  0.3938934495461766  0.06309044011198489  0.6062682050171306  1.0000
  H   H3        1.0  0.10611252255638702  0.43691783401547474  0.1062683576917749  1.0000
  H   H4        1.0  0.6061150298646041  0.9369027166708362  0.39373340062697804  1.0000
  H   H5        1.0  0.7949480656947687  0.7318742549359742  0.8317797541778873  1.0000
  H   H6        1.0  0.2949424808363261  0.23186589628932103  0.6682199319358448  1.0000
  H   H7        1.0  0.20504537297633624  0.2681341515976641  0.16821874957415875  1.0000
  H   H8        1.0  0.7050648185488697  0.7681323932502693  0.33178219070814663  1.0000
  H   H9        1.0  0.36470513252739073  0.5276660804431472  0.8335220022213864  1.0000
  H   H10       1.0  0.8647137573094456  0.027642888560379213  0.666474198111196  1.0000
  H   H11       1.0  0.6352860959190708  0.472326853507987  0.16646978064522241  1.0000
  H   H12       1.0  0.13529398533062684  0.9723451107458275  0.33352792451283625  1.0000
  H   H13       1.0  0.4538382125170699  0.3426496954766804  0.8998998664077862  1.0000
  H   H14       1.0  0.9538579886508742  0.8426341786167414  0.600096339011472  1.0000
  H   H15       1.0  0.5461499190856429  0.6573483465495329  0.10009553539482142  1.0000
  H   H16       1.0  0.0461507363592517  0.15736069730905203  0.3999042326575336  1.0000
  H   H17       1.0  0.9897299797708714  0.459275746663053  0.7712075883553384  1.0000
  H   H18       1.0  0.4897381200548878  0.9592763846515453  0.7287884796931581  1.0000
  H   H19       1.0  0.01027830197892139  0.5407294195056663  0.2287935003227092  1.0000
  H   H20       1.0  0.5102586130553346  0.0407149045356192  0.27121312595785707  1.0000
  H   H21       1.0  0.65192687026601  0.36906294410543683  0.7635598982521261  1.0000
  H   H22       1.0  0.1519406470177387  0.8690776672101492  0.7364395303310902  1.0000
  H   H23       1.0  0.34808328039092373  0.6309285181683961  0.2364370544855917  1.0000
  H   H24       1.0  0.8480664068063817  0.130918903119678  0.2635600073644753  1.0000
  C   C1        1.0  0.49012266491210715  0.5173045541602904  0.8784208210658235  1.0000
  C   C2        1.0  0.9901241290695283  0.017289896303836403  0.6215745995257864  1.0000
  C   C3        1.0  0.509873133842973  0.4826935868025757  0.12157354675200342  1.0000
  C   C4        1.0  0.009880762364424764  0.9827049301536307  0.3784264891356131  1.0000
  C   C5        1.0  0.4340987631890414  0.6837184805559319  0.9352263960106415  1.0000
  C   C6        1.0  0.9340930729586461  0.183710198155282  0.5647723421579657  1.0000
  C   C7        1.0  0.565895609968443  0.31628307397302546  0.06476693783678661  1.0000
  C   C8        1.0  0.06590606808095603  0.8162845541521693  0.43523236543194344  1.0000
  C   C9        1.0  0.8135447303884717  0.3918598528969711  0.8001703790496465  1.0000
  C   C10       1.0  0.31354940414738763  0.8918576532638129  0.699828331365879  1.0000
  C   C11       1.0  0.18646473140330497  0.6081401804863589  0.19982864166128425  1.0000
  C   C12       1.0  0.6864535705012001  0.1081371484547162  0.30017275729718323  1.0000
  C   C13       1.0  0.8578871119648213  0.1645077982398675  0.8331222739561785  1.0000
  C   C14       1.0  0.3578841267504204  0.6645128545109742  0.6668796288511702  1.0000
  C   C15       1.0  0.142115173829545  0.8354955745690731  0.16687984870194583  1.0000
  C   C16       1.0  0.6421166854751875  0.3354802033924358  0.33312611271217923  1.0000
  N   N1        1.0  0.7615031705175496  0.5626322480868496  0.8532086593427767  1.0000
  N   N2        1.0  0.2615059517060915  0.0626249165674153  0.64678889177695  1.0000
  N   N3        1.0  0.2384895314211164  0.43737100090339  0.14678674246566464  1.0000
  N   N4        1.0  0.7384986941394445  0.9373681907280017  0.3532121968814011  1.0000
  O   O1        1.0  0.6197106606105152  0.7670118130909812  0.9733920736068032  1.0000
  O   O2        1.0  0.1197167208377579  0.2670052030587939  0.5266070242442213  1.0000
  O   O3        1.0  0.380256925484865  0.233003123631299  0.02660022631177841  1.0000
  O   O4        1.0  0.8802860561443779  0.7330016080551757  0.47339406444184823  1.0000
  O   O5        1.0  0.20107427708605738  0.7197996390482403  0.9401721896215421  1.0000
  O   O6        1.0  0.7010866313598783  0.21978282572341362  0.5598291687022299  1.0000
  O   O7        1.0  0.7988930155044186  0.2801998499449568  0.05981959327885282  1.0000
  O   O8        1.0  0.2989149176036321  0.7802153897138594  0.4401791578156492  1.0000
  O   O9        1.0  0.8169479030679695  0.987353025420376  0.7945854413195763  1.0000
  O   O10       1.0  0.316924478000189  0.4873338076240898  0.7054162111109221  1.0000
  O   O11       1.0  0.18306327778802262  0.012659042192730402  0.20541874930346185  1.0000
  O   O12       1.0  0.683073237496501  0.5126643581540337  0.29458229261783947  1.0000
  O   O13       1.0  0.9391022702536918  0.1728140732808043  0.8945596481802558  1.0000
  O   O14       1.0  0.4391045679168499  0.6727911734776981  0.6054467944113002  1.0000
  O   O15       1.0  0.06091230087987039  0.8272083341103453  0.10544816138294523  1.0000
  O   O16       1.0  0.560900569094578  0.32720537216090423  0.3945553282313058  1.0000
