data_image0
_chemical_formula_structural       Ag8H28C48N8Cl4O16
_chemical_formula_sum              "Ag8 H28 C48 N8 Cl4 O16"
_cell_length_a       7.009859561
_cell_length_b       12.563563695806643
_cell_length_c       15.517
_cell_angle_alpha    113.15334201056454
_cell_angle_beta     90.0
_cell_angle_gamma    90.0

_space_group_name_H-M_alt    "P 1"
_space_group_IT_number       1

loop_
  _space_group_symop_operation_xyz
  'x, y, z'

loop_
  _atom_site_type_symbol
  _atom_site_label
  _atom_site_symmetry_multiplicity
  _atom_site_fract_x
  _atom_site_fract_y
  _atom_site_fract_z
  _atom_site_occupancy
  Ag  Ag1       1.0  0.7192098438104466  0.48390956218550935  0.4943564607479728  1.0000
  Ag  Ag2       1.0  0.21920695937320292  0.0160972787034552  0.505649229357651  1.0000
  Ag  Ag3       1.0  0.2807802328809004  0.5160928657810188  0.5056384476707761  1.0000
  Ag  Ag4       1.0  0.7807688516971113  0.983913806041073  0.4943658352572412  1.0000
  Ag  Ag5       1.0  0.4486109846616344  0.2841457529029086  0.4516230045805826  1.0000
  Ag  Ag6       1.0  0.9486095894125697  0.2158541625636516  0.5483759696033843  1.0000
  Ag  Ag7       1.0  0.5513876514023367  0.7158523466746158  0.5483756815111815  1.0000
  Ag  Ag8       1.0  0.051376207592468914  0.7841491310806745  0.45162243668026036  1.0000
  H   H1        1.0  0.6750720123307161  0.5695605894615952  0.8237866521831947  1.0000
  H   H2        1.0  0.1750762607039889  0.9304538734606991  0.17622204444115394  1.0000
  H   H3        1.0  0.32493660966797944  0.4304504952829333  0.176211656615493  1.0000
  H   H4        1.0  0.8249323612947066  0.0695433604390203  0.82379118851086  1.0000
  H   H5        1.0  0.7056104272785717  0.5251547809984274  0.9670829947185168  1.0000
  H   H6        1.0  0.2056004100308115  0.9748588162460692  0.03292349294988392  1.0000
  H   H7        1.0  0.29440104784433174  0.4748606321351048  0.0329166920429174  1.0000
  H   H8        1.0  0.7943896666605426  0.0251237011310437  0.9670798992930683  1.0000
  H   H9        1.0  0.6288485470557887  0.32941810484454237  0.9576770935673479  1.0000
  H   H10       1.0  0.1288256907490961  0.1705939301112238  0.04232767227568959  1.0000
  H   H11       1.0  0.3711600749429067  0.6706007710001954  0.04232820674555873  1.0000
  H   H12       1.0  0.87114726719701  0.8293833931990804  0.9576656885038799  1.0000
  H   H13       1.0  0.5254969757874122  0.1758295494496807  0.805991620402942  1.0000
  H   H14       1.0  0.0254783991670351  0.3241833511838905  0.19401535439605058  1.0000
  H   H15       1.0  0.47450308683865944  0.8241858636838586  0.1940170887210613  1.0000
  H   H16       1.0  0.9745073978380105  0.6758052259378218  0.8059764334508797  1.0000
  H   H17       1.0  0.4653488378210327  0.31624941414075636  0.2663448686704014  1.0000
  H   H18       1.0  0.9653331769509352  0.18374097886999857  0.7336497850865981  1.0000
  H   H19       1.0  0.5346640638639784  0.6837408943365659  0.7336513370884317  1.0000
  H   H20       1.0  0.0346626059888351  0.8162597177409268  0.2663490833283433  1.0000
  H   H21       1.0  0.5793126045767281  0.032541694204987  0.33418850345288575  1.0000
  H   H22       1.0  0.0793068670152763  0.4674461017723671  0.6658053235264701  1.0000
  H   H23       1.0  0.4206988705461754  0.9674451515611294  0.6658053110268226  1.0000
  H   H24       1.0  0.9206775034276617  0.5325519978051573  0.3341875624750728  1.0000
  H   H25       1.0  0.7120470754891957  0.9247031758308495  0.17237865184090856  1.0000
  H   H26       1.0  0.2120427644898442  0.5752827197240293  0.8276183724114999  1.0000
  H   H27       1.0  0.287972959006332  0.0752862669686678  0.8276198561432577  1.0000
  H   H28       1.0  0.7879558715741269  0.4247136484978995  0.1723739624049472  1.0000
  C   C1        1.0  0.5780800549193759  0.3988757631813016  0.7359798912432252  1.0000
  C   C2        1.0  0.07807431735792392  0.10113540609667379  0.26402524346172374  1.0000
  C   C3        1.0  0.42192143426880346  0.601133590207631  0.2640217330971807  1.0000
  C   C4        1.0  0.9219271718302553  0.8988661561920565  0.7359784117270464  1.0000
  C   C5        1.0  0.6408359484108106  0.48366544104572273  0.8209862257659777  1.0000
  C   C6        1.0  0.1408316374114591  0.0163474595878483  0.1790226823964147  1.0000
  C   C7        1.0  0.3591726735878922  0.5163404496320112  0.1790123628408367  1.0000
  C   C8        1.0  0.8591655720904116  0.9836506399896692  0.8209856705123925  1.0000
  C   C9        1.0  0.6572485454106243  0.4595329409964463  0.9008475163385227  1.0000
  C   C10       1.0  0.157244234411273  0.0404834223483306  0.09915669410384  1.0000
  C   C11       1.0  0.3427572234638703  0.5404833378148908  0.09915115710651887  1.0000
  C   C12       1.0  0.8427529750905975  0.9595068861289845  0.9008459561996883  1.0000
  C   C13       1.0  0.6136542340922945  0.3487097346324788  0.895501344106371  1.0000
  C   C14       1.0  0.1136442168445342  0.1513040316788974  0.1045071951941026  1.0000
  C   C15       1.0  0.3863515347821931  0.6513065441788655  0.10450441833782519  1.0000
  C   C16       1.0  0.8863444332847197  0.8486758886648147  0.8954902146354512  1.0000
  C   C17       1.0  0.5549554832229832  0.2630275429555624  0.8108488835918095  1.0000
  C   C18       1.0  0.05494261285101491  0.2369844920002109  0.18915910452356843  1.0000
  C   C19       1.0  0.445048859089404  0.7369870045001718  0.189156972121765  1.0000
  C   C20       1.0  0.9450474638403392  0.7630110105439128  0.8108400436994925  1.0000
  C   C21       1.0  0.5362190165567  0.28641902280746473  0.7301323650536699  1.0000
  C   C22       1.0  0.0362032930605238  0.2135912807927056  0.26987378296767156  1.0000
  C   C23       1.0  0.4637896054419955  0.7135911962592658  0.26987275715163145  1.0000
  C   C24       1.0  0.9637967695655549  0.7864042217514182  0.7301260097098561  1.0000
  C   C25       1.0  0.47954598387423897  0.1888207762043308  0.6396389412746543  1.0000
  C   C26       1.0  0.9795231901936248  0.3111895273958396  0.3603646289288135  1.0000
  C   C27       1.0  0.5204569318760406  0.8111894428623998  0.3603655364761876  1.0000
  C   C28       1.0  0.0204768724324538  0.6888111692150857  0.6396342394861205  1.0000
  C   C29       1.0  0.5580168854969187  0.42896152946578775  0.6522253605762598  1.0000
  C   C30       1.0  0.05800544168705101  0.07104790845658468  0.34777857848913374  1.0000
  C   C31       1.0  0.4419774708807438  0.5710443612119462  0.3477732280305544  1.0000
  C   C32       1.0  0.94199319437692  0.9289571165433443  0.6522281124332351  1.0000
  C   C33       1.0  0.5842998656902765  0.1630244434221666  0.15435044888065613  1.0000
  C   C34       1.0  0.08428699531830833  0.3369642182329855  0.8456455870546548  1.0000
  C   C35       1.0  0.4157144625568351  0.8369658650551486  0.8456470457871176  1.0000
  C   C36       1.0  0.9157102141835622  0.663034747022337  0.15434950790284316  1.0000
  C   C37       1.0  0.5178192185468262  0.22806714497550468  0.24483733595855026  1.0000
  C   C38       1.0  0.0178106278611665  0.2719232480352503  0.7551598956163301  1.0000
  C   C39       1.0  0.4821936831381849  0.7719222978240124  0.7551611720256161  1.0000
  C   C40       1.0  0.9821851550786037  0.7280722545088736  0.24483989706120463  1.0000
  C   C41       1.0  0.5820444710047711  0.0712946266297791  0.2827710876935042  1.0000
  C   C42       1.0  0.0820415865675272  0.4286914379919722  0.7172221881007629  1.0000
  C   C43       1.0  0.4179670041181325  0.9286922191363374  0.7172240156951444  1.0000
  C   C44       1.0  0.9179541963722359  0.5713057959077474  0.28277428903504637  1.0000
  C   C45       1.0  0.6524624295536585  0.0113273940217695  0.19260142396562685  1.0000
  C   C46       1.0  0.1524566919922066  0.4886595362777868  0.8073927718756477  1.0000
  C   C47       1.0  0.3475547518176612  0.9886629144555528  0.8073941373387399  1.0000
  C   C48       1.0  0.8475419440717646  0.5113368319441349  0.19259634066845158  1.0000
  N   N1        1.0  0.6525979529534851  0.0568092399911677  0.12763243384130618  1.0000
  N   N2        1.0  0.15258365601940943  0.44317595895278566  0.8723644330872273  1.0000
  N   N3        1.0  0.3474220815420423  0.9431767400971508  0.8723669051360827  1.0000
  N   N4        1.0  0.8474149800445616  0.5568204092691359  0.1276317684560339  1.0000
  N   N5        1.0  0.5169689875331898  0.18028519308973048  0.3084019106728561  1.0000
  N   N6        1.0  0.0169618234096305  0.3197060655988295  0.6915955964945721  1.0000
  N   N7        1.0  0.4830410610276132  0.8197068467431946  0.6915961351800134  1.0000
  N   N8        1.0  0.9830311064059245  0.6802963623676987  0.3083993119241768  1.0000
  Cl  Cl1       1.0  0.5797676778877234  0.224781897721968  0.0719876341814683  1.0000
  Cl  Cl2       1.0  0.07974482158102353  0.2752050325775883  0.9280091394776873  1.0000
  Cl  Cl3       1.0  0.4202452237972878  0.7752066793997513  0.9280105982101501  1.0000
  Cl  Cl4       1.0  0.9202523879208402  0.7247956640333371  0.07198908448278013  1.0000
  O   O1        1.0  0.5763310897805881  0.1687915889302332  0.5656947276716335  1.0000
  O   O2        1.0  0.07631108659810341  0.3312256400923416  0.4343104028177435  1.0000
  O   O3        1.0  0.4236646931591822  0.8312203614921002  0.4343090123553566  1.0000
  O   O4        1.0  0.9236889760279752  0.6687767878741866  0.5656896612367601  1.0000
  O   O5        1.0  0.3342805914453635  0.1302715238338195  0.6455377632938306  1.0000
  O   O6        1.0  0.8342549446405414  0.3697361827329502  0.35446369122305293  1.0000
  O   O7        1.0  0.6657208977428155  0.8697421579441168  0.354469105736129  1.0000
  O   O8        1.0  0.16574511798553715  0.630267976589181  0.6455349906531322  1.0000
  O   O9        1.0  0.6842205550999338  0.4946673402144341  0.6405504701895592  1.0000
  O   O10       1.0  0.1842076847279657  0.0053386349967326  0.3594530109601095  1.0000
  O   O11       1.0  0.3157723747156282  0.5053394161410977  0.35944646064639574  1.0000
  O   O12       1.0  0.8157909513360053  0.9946681213587992  0.6405568089652289  1.0000
  O   O13       1.0  0.41340200538719785  0.3864766600423053  0.5992833364202425  1.0000
  O   O14       1.0  0.9133906242034087  0.11353364355786508  0.4007221671466325  1.0000
  O   O15       1.0  0.586589497866264  0.6135300963132266  0.40071810559699367  1.0000
  O   O16       1.0  0.08659945248794543  0.8864696500864611  0.5992794614093526  1.0000
