data_image0
_chemical_formula_structural       Cu4H48C44S4N16O12
_chemical_formula_sum              "Cu4 H48 C44 S4 N16 O12"
_cell_length_a       10.358543171232405
_cell_length_b       11.122168762405067
_cell_length_c       11.629131516984796
_cell_angle_alpha    89.99703463454233
_cell_angle_beta     104.22996204077917
_cell_angle_gamma    89.99957923178358

_space_group_name_H-M_alt    "P 1"
_space_group_IT_number       1

loop_
  _space_group_symop_operation_xyz
  'x, y, z'

loop_
  _atom_site_type_symbol
  _atom_site_label
  _atom_site_symmetry_multiplicity
  _atom_site_fract_x
  _atom_site_fract_y
  _atom_site_fract_z
  _atom_site_occupancy
  Cu  Cu1       1.0  0.3656446761442069  0.757346301369381  0.17088934001643002  1.0000
  Cu  Cu2       1.0  0.6343765786623334  0.2573980705122096  0.32907937999234355  1.0000
  Cu  Cu3       1.0  0.6344305979052365  0.2426430655360434  0.8290725472687941  1.0000
  Cu  Cu4       1.0  0.3656182055342327  0.7426173694017068  0.6709338343337593  1.0000
  H   H1        1.0  0.26959935561576737  0.3747553082425839  0.25837821065410793  1.0000
  H   H2        1.0  0.7303692877131455  0.8747948877619225  0.2415941303824526  1.0000
  H   H3        1.0  0.7304224589254743  0.6252772147193612  0.7416291190407094  1.0000
  H   H4        1.0  0.2695157461411384  0.12522055279508487  0.7584112914853594  1.0000
  H   H5        1.0  0.14194140395668597  0.22238007206251356  0.11864098296628363  1.0000
  H   H6        1.0  0.857978498563511  0.7223905366424435  0.38135199289936145  1.0000
  H   H7        1.0  0.8580651189653564  0.7776281744125131  0.8813929636225101  1.0000
  H   H8        1.0  0.14190071167880086  0.2776006284744312  0.6186392041637206  1.0000
  H   H9        1.0  0.0717078123675918  0.4813827262015736  0.8361122196832796  1.0000
  H   H10       1.0  0.9282179377138391  0.9813727121553131  0.66388166659943  1.0000
  H   H11       1.0  0.9282870732627798  0.5185922542046909  0.1638924192202041  1.0000
  H   H12       1.0  0.07174898197828128  0.018612158505952405  0.3361234834895016  1.0000
  H   H13       1.0  0.12658176717774688  0.6792630684783207  0.8666351065631944  1.0000
  H   H14       1.0  0.873282598382346  0.17925050388372912  0.6333823369775262  1.0000
  H   H15       1.0  0.8732678044290195  0.3207523710640459  0.1334138373248734  1.0000
  H   H16       1.0  0.1266418978728225  0.8207370631711514  0.3666638899599946  1.0000
  H   H17       1.0  0.12657907279358227  0.9170597988846727  0.9839167396612823  1.0000
  H   H18       1.0  0.8733776959009202  0.4171011142376599  0.5161097985990395  1.0000
  H   H19       1.0  0.8734226934781402  0.0828900063009357  0.016097206265890052  1.0000
  H   H20       1.0  0.1266430726331222  0.5828963435169499  0.48390159355580675  1.0000
  H   H21       1.0  0.1959633837639316  0.8730703662577782  0.8648088538942748  1.0000
  H   H22       1.0  0.8039588070792049  0.37306994492731593  0.6351853627681622  1.0000
  H   H23       1.0  0.8040336447793804  0.12693788136270004  0.13518337283699822  1.0000
  H   H24       1.0  0.1960429786839341  0.6269445958797207  0.3648268660641919  1.0000
  H   H25       1.0  0.4194097116849562  0.9261856969024294  0.9746999350607626  1.0000
  H   H26       1.0  0.5805394969724702  0.42618209840455296  0.5252728271701345  1.0000
  H   H27       1.0  0.5805949406881794  0.0738180543392275  0.025323266249579028  1.0000
  H   H28       1.0  0.41947542750573763  0.5738135614950011  0.4747260548674107  1.0000
  H   H29       1.0  0.31598465198585046  0.05178257592427831  0.9870453986559725  1.0000
  H   H30       1.0  0.6839438531192811  0.5518022990321969  0.5129414559824925  1.0000
  H   H31       1.0  0.6839953959293864  0.948219378015644  0.012947261299366589  1.0000
  H   H32       1.0  0.31606608167106737  0.4482041501571814  0.48705714952312473  1.0000
  H   H33       1.0  0.30326120339240953  0.10493367185549125  0.19162294410406136  1.0000
  H   H34       1.0  0.6967004776472404  0.6049681757435793  0.3083536260700371  1.0000
  H   H35       1.0  0.6967300010872532  0.8950916591650541  0.8083550566808386  1.0000
  H   H36       1.0  0.3033035727690461  0.39502928265805076  0.6916359001326101  1.0000
  H   H37       1.0  0.3324018968533267  0.9895377953442903  0.30122447770975214  1.0000
  H   H38       1.0  0.6676266882110582  0.48954676964928  0.19878068635043894  1.0000
  H   H39       1.0  0.6675560792728845  0.0105127101334404  0.6987769142610605  1.0000
  H   H40       1.0  0.3323822911506297  0.5104533859044622  0.8012142619355206  1.0000
  H   H41       1.0  0.19212794774427516  0.9791426258547984  0.1760335239759812  1.0000
  H   H42       1.0  0.807868450071723  0.4791815986598352  0.3240112695697093  1.0000
  H   H43       1.0  0.8078341534651585  0.020897090638598605  0.8239567682478823  1.0000
  H   H44       1.0  0.1921445633724304  0.5208176578624234  0.675980297581795  1.0000
  H   H45       1.0  0.4763814579568191  0.9659310151287527  0.17332180470159395  1.0000
  H   H46       1.0  0.5235802549491666  0.4659622155183314  0.3266409385424965  1.0000
  H   H47       1.0  0.52358350961714  0.03412038942980189  0.8266794593797898  1.0000
  H   H48       1.0  0.47644055361834586  0.5340685092204112  0.6733670220782956  1.0000
  C   C1        1.0  0.18859711665970016  0.545973575615136  0.004801874125867299  1.0000
  C   C2        1.0  0.8113738900035653  0.04600972312241682  0.49517376164497756  1.0000
  C   C3        1.0  0.8114090872891352  0.4540094974466911  0.9951743835659886  1.0000
  C   C4        1.0  0.18859889374640199  0.9539949275437966  0.5048421827570024  1.0000
  C   C5        1.0  0.2519558008408609  0.514693821725011  0.12637185403131923  1.0000
  C   C6        1.0  0.7480798683532937  0.014755809639872601  0.3735994379541054  1.0000
  C   C7        1.0  0.748100399711852  0.4852973432394876  0.8735985892388316  1.0000
  C   C8        1.0  0.2519409704136208  0.9852839062192873  0.6264059494566682  1.0000
  C   C9        1.0  0.2282251153477759  0.39657023878351094  0.16522168105924356  1.0000
  C   C10       1.0  0.7717568223151686  0.896611734897057  0.33476721059525977  1.0000
  C   C11       1.0  0.7718026646163806  0.6034478984122701  0.834787867352276  1.0000
  C   C12       1.0  0.22817506911986377  0.1033983106732492  0.6652445816994402  1.0000
  C   C13       1.0  0.1589929498001368  0.31201261000493474  0.08827650834312813  1.0000
  C   C14       1.0  0.8409550232063053  0.8120314880162385  0.4117054574829312  1.0000
  C   C15       1.0  0.8410297297483282  0.6879830493374187  0.9117421986481278  1.0000
  C   C16       1.0  0.15897008899171539  0.18796597058272374  0.5882884522910176  1.0000
  C   C17       1.0  0.10740598641235269  0.3418954975899169  0.9678999618845765  1.0000
  C   C18       1.0  0.8925550623084246  0.8419215373084517  0.5320762900815694  1.0000
  C   C19       1.0  0.8926257069250594  0.6580776841457379  0.03211649845591326  1.0000
  C   C20       1.0  0.10741010774037109  0.15808491244366255  0.46790782216185534  1.0000
  C   C21       1.0  0.11861631632859118  0.45842144874732327  0.927979236831881  1.0000
  C   C22       1.0  0.8813368948905944  0.9584310715068227  0.572016035945552  1.0000
  C   C23       1.0  0.88140156577019  0.5415526325287773  0.0720228990959697  1.0000
  C   C24       1.0  0.11863197604579767  0.041567285621880515  0.42799299794210555  1.0000
  C   C25       1.0  0.18510014867690927  0.6663393571015848  0.9584444721028833  1.0000
  C   C26       1.0  0.8148457823838342  0.16635011565900734  0.541539736366822  1.0000
  C   C27       1.0  0.8148629488980105  0.33365720233118884  0.04154604808987017  1.0000
  C   C28       1.0  0.1851219411410128  0.8336509384543621  0.4584819354779271  1.0000
  C   C29       1.0  0.2156559957584463  0.8791735357006019  0.9618222492487408  1.0000
  C   C30       1.0  0.7843098608479337  0.379180220332515  0.5381833238037717  1.0000
  C   C31       1.0  0.7843549351224509  0.12081493137436888  0.03817658353085558  1.0000
  C   C32       1.0  0.2157039565565952  0.6208235312739631  0.4618247654261865  1.0000
  C   C33       1.0  0.33717964241025555  0.9567227399062331  0.011268819102298296  1.0000
  C   C34       1.0  0.6627699474053301  0.45673703476272476  0.4887234448325162  1.0000
  C   C35       1.0  0.66280420740415  0.0432693234271539  0.9887401860074763  1.0000
  C   C36       1.0  0.3372479949744118  0.543265818016863  0.5112735443774882  1.0000
  C   C37       1.0  0.2963903908551302  0.007712163462024101  0.20627524186050292  1.0000
  C   C38       1.0  0.7036011169978308  0.5077401971355187  0.29372848332561574  1.0000
  C   C39       1.0  0.7035736921121724  0.992321259252137  0.7937163617462489  1.0000
  C   C40       1.0  0.2964108500954551  0.4922554628621754  0.7062671454172647  1.0000
  C   C41       1.0  0.5139462581981107  0.7206976503874004  0.9359348846959679  1.0000
  C   C42       1.0  0.48608195924290937  0.22067745854418058  0.5640808107703493  1.0000
  C   C43       1.0  0.48604656451752953  0.279316890509449  0.06407530313789779  1.0000
  C   C44       1.0  0.5139520694027339  0.7792822373660686  0.4359069432635466  1.0000
  S   S1        1.0  0.5793428583918824  0.7136586166588188  0.0772788846343317  1.0000
  S   S2        1.0  0.42074287738216737  0.21356325539841958  0.4227247757933271  1.0000
  S   S3        1.0  0.4208089059643285  0.2864826978287809  0.9227167557575414  1.0000
  S   S4        1.0  0.5792293136657066  0.7865124254995736  0.5772566337126365  1.0000
  N   N1        1.0  0.23920011294529075  0.7597461039235471  0.017085661429646792  1.0000
  N   N2        1.0  0.7608098116139317  0.25978150712023057  0.48290787691790654  1.0000
  N   N3        1.0  0.7608619924449869  0.2402297760331821  0.9828921465056838  1.0000
  N   N4        1.0  0.23919496189062522  0.7402276390255411  0.517105032396195  1.0000
  N   N5        1.0  0.3787835722165126  0.9411385252469415  0.1413910061095862  1.0000
  N   N6        1.0  0.6211854313154602  0.4411663545337135  0.35859356177186197  1.0000
  N   N7        1.0  0.6211823614155206  0.058870621288022604  0.8586130588777012  1.0000
  N   N8        1.0  0.3788374803868279  0.5588409936993558  0.6414054188560459  1.0000
  N   N9        1.0  0.043631012112200586  0.25190109514133513  0.8857840623396033  1.0000
  N   N10       1.0  0.9563800174016135  0.7519132761459131  0.6141900329054694  1.0000
  N   N11       1.0  0.9564226616796248  0.7480639945869073  0.11423138375408129  1.0000
  N   N12       1.0  0.04363019017499431  0.24808328349978842  0.3857854162166703  1.0000
  N   N13       1.0  0.4653701887662577  0.7269862286245259  0.8327172719539251  1.0000
  N   N14       1.0  0.5345960139796375  0.2270222081013955  0.6672951640789437  1.0000
  N   N15       1.0  0.5344435118856765  0.2728979418692532  0.16732522687152604  1.0000
  N   N16       1.0  0.46551020540788085  0.7727909340303326  0.332667754599008  1.0000
  O   O1        1.0  0.32639157576510053  0.5869103542273991  0.20170999440292556  1.0000
  O   O2        1.0  0.6737359619689726  0.08701020242363461  0.2982080723874462  1.0000
  O   O3        1.0  0.6737109715300988  0.4130484436948549  0.798225425871749  1.0000
  O   O4        1.0  0.32637899550499566  0.9130573858959322  0.7017757486521675  1.0000
  O   O5        1.0  0.04439956929557809  0.1449758865127038  0.9202592897492254  1.0000
  O   O6        1.0  0.9556379597927176  0.64497911528548  0.5797038524027799  1.0000
  O   O7        1.0  0.9556649784207066  0.8549999921865638  0.07976551183190854  1.0000
  O   O8        1.0  0.0443593414484837  0.35502733473832376  0.4202652177216423  1.0000
  O   O9        1.0  0.990452102631373  0.2828626005187473  0.7810123242301615  1.0000
  O   O10       1.0  0.009559337422778895  0.7828740466918661  0.7189525696413668  1.0000
  O   O11       1.0  0.009587679305006697  0.7170872046740868  0.21899565912916336  1.0000
  O   O12       1.0  0.9904978588277229  0.21713510036709496  0.28101809991002114  1.0000
