data_image0
_chemical_formula_structural       Zn4H16C18O18
_chemical_formula_sum              "Zn4 H16 C18 O18"
_cell_length_a       6.62951791942898
_cell_length_b       8.838408627097097
_cell_length_c       11.006777675745932
_cell_angle_alpha    109.81299415335056
_cell_angle_beta     92.87119903963575
_cell_angle_gamma    95.95052466604642

_space_group_name_H-M_alt    "P 1"
_space_group_IT_number       1

loop_
  _space_group_symop_operation_xyz
  'x, y, z'

loop_
  _atom_site_type_symbol
  _atom_site_label
  _atom_site_symmetry_multiplicity
  _atom_site_fract_x
  _atom_site_fract_y
  _atom_site_fract_z
  _atom_site_occupancy
  Zn  Zn1       1.0  0.26330208175240694  0.6798550110346966  0.9260778456942161  1.0000
  Zn  Zn2       1.0  0.7366977839811284  0.3201408951301303  0.07392211941149178  1.0000
  Zn  Zn3       1.0  0.41222142700985387  0.0334822958842267  0.873324285956727  1.0000
  Zn  Zn4       1.0  0.5877765015202739  0.9665209124901537  0.12667591181946844  1.0000
  H   H1        1.0  0.9977477645123255  0.4079958154588539  0.865562766905988  1.0000
  H   H2        1.0  0.00224904340961268  0.5920001903328894  0.1344326039704455  1.0000
  H   H3        1.0  0.11417547244612077  0.43795677991192855  0.7520430354177634  1.0000
  H   H4        1.0  0.8858201971975177  0.5620416168195277  0.24795390239782478  1.0000
  H   H5        1.0  0.4092193998321462  0.8241454071114944  0.46437030123044554  1.0000
  H   H6        1.0  0.5907751588795022  0.1758552849842872  0.5356318116638403  1.0000
  H   H7        1.0  0.15971555631673337  0.2336922429316175  0.30719523899339407  1.0000
  H   H8        1.0  0.840294100028778  0.7663086200573445  0.6928045880705297  1.0000
  H   H9        1.0  0.19039389204965565  0.39408040616193324  0.5426521940983803  1.0000
  H   H10       1.0  0.8096178916855903  0.6059143431009841  0.4573486557957904  1.0000
  H   H11       1.0  0.08789662476389278  0.1525504678896112  0.9152451701422631  1.0000
  H   H12       1.0  0.9121009233935875  0.847450363517737  0.08475251663246296  1.0000
  H   H13       1.0  0.14093818177084216  0.14482587630540417  0.7770259041375027  1.0000
  H   H14       1.0  0.8590576712225371  0.8551737328034221  0.22297138714394285  1.0000
  H   H15       1.0  0.20369051939568544  0.9698044966326336  0.05784538666863168  1.0000
  H   H16       1.0  0.7963064650394145  0.030192745430319703  0.9421494356387681  1.0000
  C   C1        1.0  0.3023527412242685  0.6188986297536443  0.5187946851595696  1.0000
  C   C2        1.0  0.6976473215321732  0.3810984410008515  0.48120743748175693  1.0000
  C   C3        1.0  0.3341775653034417  0.6061144522600157  0.29684462098540365  1.0000
  C   C4        1.0  0.6658194219712853  0.39389231164375355  0.7031593012655647  1.0000
  C   C5        1.0  0.26611186992941066  0.4385557925762455  0.25264207905430414  1.0000
  C   C6        1.0  0.7338902205077247  0.561445044700747  0.7473566358375903  1.0000
  C   C7        1.0  0.36768247195232817  0.6919016362835108  0.20168739337010058  1.0000
  C   C8        1.0  0.6322732539884227  0.3080722508988814  0.7983023685050269  1.0000
  C   C9        1.0  0.35482703055389914  0.6947886805988404  0.42993975888313674  1.0000
  C   C10       1.0  0.6451705312767401  0.3052121030208141  0.5700597319613507  1.0000
  C   C11       1.0  0.21346033895802205  0.36312494900401043  0.34171173213674416  1.0000
  C   C12       1.0  0.7865493515703715  0.6368757945157029  0.6582926051016  1.0000
  C   C13       1.0  0.230356112510499  0.4530385690741808  0.47342764948452026  1.0000
  C   C14       1.0  0.7696563772774069  0.5469611252735901  0.5265710061335226  1.0000
  C   C15       1.0  0.2501544328334332  0.3326608615395158  0.11235264710508364  1.0000
  C   C16       1.0  0.7498540852337783  0.667342392389159  0.8876487468980016  1.0000
  C   C17       1.0  0.3242587471917061  0.7118889931762311  0.6615414126883008  1.0000
  C   C18       1.0  0.675759855824232  0.2881314270044653  0.33845972776455807  1.0000
  O   O1        1.0  0.3187544420182248  0.9287641746761465  0.011053941087467888  1.0000
  O   O2        1.0  0.6812444482770272  0.07123540648731111  0.9889452383185924  1.0000
  O   O3        1.0  0.2418367856384478  0.6397102316358173  0.7326431581914788  1.0000
  O   O4        1.0  0.758161439623606  0.36028426107969114  0.26736362770001415  1.0000
  O   O5        1.0  0.4102495883547802  0.3024173957446337  0.05468954019251268  1.0000
  O   O6        1.0  0.5897513911503721  0.6975857368966771  0.9453143497780799  1.0000
  O   O7        1.0  0.13624268264919687  0.42305144121024096  0.835733852067463  1.0000
  O   O8        1.0  0.8637495966662456  0.5769445109241572  0.16426229476156343  1.0000
  O   O9        1.0  0.42273494872049605  0.8532293596547261  0.7015552397471791  1.0000
  O   O10       1.0  0.577257966680051  0.1467603971509206  0.2984445939893163  1.0000
  O   O11       1.0  0.5046856301696038  0.8108393734288413  0.22988204179381452  1.0000
  O   O12       1.0  0.4953282500565592  0.18918935034565723  0.7701268170195944  1.0000
  O   O13       1.0  0.243080208174561  0.6366591202629407  0.09781482525922051  1.0000
  O   O14       1.0  0.7569253409565488  0.36334392267262666  0.9021937009680697  1.0000
  O   O15       1.0  0.1118350259389089  0.0731832723922494  0.826868858920079  1.0000
  O   O16       1.0  0.8881564954708664  0.9268174476489007  0.17313136584957786  1.0000
  O   O17       1.0  0.07235839363877969  0.2660597394996813  0.05886737521939269  1.0000
  O   O18       1.0  0.9276452222858678  0.7339410599107766  0.9411331857697005  1.0000
