data_image0
_chemical_formula_structural       Mo2H12C12N8O6
_chemical_formula_sum              "Mo2 H12 C12 N8 O6"
_cell_length_a       3.864978496992897
_cell_length_b       8.948193350905127
_cell_length_c       14.488808255834135
_cell_angle_alpha    90.00118346467562
_cell_angle_beta     89.99950767918463
_cell_angle_gamma    101.59506244293975

_space_group_name_H-M_alt    "P 1"
_space_group_IT_number       1

loop_
  _space_group_symop_operation_xyz
  'x, y, z'

loop_
  _atom_site_type_symbol
  _atom_site_label
  _atom_site_symmetry_multiplicity
  _atom_site_fract_x
  _atom_site_fract_y
  _atom_site_fract_z
  _atom_site_occupancy
  Mo  Mo1       1.0  0.34120939839326786  0.0016356948318047996  0.3059054017941846  1.0000
  Mo  Mo2       1.0  0.6587874814868754  0.9983649545755213  0.8059082860258542  1.0000
  H   H1        1.0  0.4989547433438517  0.38793258419947557  0.40063594978418127  1.0000
  H   H2        1.0  0.5010577653278999  0.6120642144635224  0.9006350040226676  1.0000
  H   H3        1.0  0.8995649342689448  0.38725279960036113  0.8939148604329643  1.0000
  H   H4        1.0  0.10043642460051669  0.6127472427105475  0.3939064019916429  1.0000
  H   H5        1.0  0.2812988824322602  0.42924226086436323  0.5815084683321317  1.0000
  H   H6        1.0  0.718734015003001  0.5707636240308174  0.08150502242186518  1.0000
  H   H7        1.0  0.16759130356712854  0.4329249648504144  0.07323009775411289  1.0000
  H   H8        1.0  0.832436422516629  0.5670749566299377  0.5732230247322505  1.0000
  H   H9        1.0  0.034136934042656664  0.16641585020865077  0.6439097323695646  1.0000
  H   H10       1.0  0.9658669362649945  0.8335932719640481  0.14391319536031935  1.0000
  H   H11       1.0  0.1379732869070835  0.1706446842214504  0.1413341484501984  1.0000
  H   H12       1.0  0.8620273421784503  0.8293575099702366  0.6413303149487816  1.0000
  C   C1        1.0  0.19161576517807785  0.0808731040617019  0.5132191824765542  1.0000
  C   C2        1.0  0.8083748629983916  0.9191261373623192  0.013221308959167295  1.0000
  C   C3        1.0  0.8914739869633125  0.0829966612883837  0.0119729216806022  1.0000
  C   C4        1.0  0.10851423768366422  0.9170082590086536  0.511963568128152  1.0000
  C   C5        1.0  0.388406135759972  0.30516024051942736  0.45274128471140057  1.0000
  C   C6        1.0  0.6115889675126025  0.694841714357288  0.9527404484897415  1.0000
  C   C7        1.0  0.9255351907149818  0.30581630797343723  0.9475584823998131  1.0000
  C   C8        1.0  0.07446149590101922  0.6941831904235016  0.44755110717125746  1.0000
  C   C9        1.0  0.2811628739174878  0.3268836805216466  0.5417702558661331  1.0000
  C   C10       1.0  0.7188503227713811  0.6731107013112805  0.041764648349278795  1.0000
  C   C11       1.0  0.05979793802673328  0.3294550055948733  0.035808267278724784  1.0000
  C   C12       1.0  0.9402123941432733  0.6705437623266447  0.5357974294744776  1.0000
  N   N1        1.0  0.33203039439642623  0.15150667129302778  0.435923260607879  1.0000
  N   N2        1.0  0.6679602435675348  0.8484901856691565  0.9359256166800805  1.0000
  N   N3        1.0  0.8199863911736145  0.15196976488491737  0.9337573224431562  1.0000
  N   N4        1.0  0.17998674898927183  0.8480282162421346  0.43374958285433246  1.0000
  N   N5        1.0  0.15748104145318814  0.18461504039438373  0.5786745323324566  1.0000
  N   N6        1.0  0.8425218428523491  0.8153874146788309  0.0786766569823314  1.0000
  N   N7        1.0  0.03690333496225407  0.18803820797090506  0.07529719188497097  1.0000
  N   N8        1.0  0.9630845005883941  0.8119596130296429  0.575294297221255  1.0000
  O   O1        1.0  0.7929745376747093  0.0019614628045517006  0.3278004274903878  1.0000
  O   O2        1.0  0.20701457714857674  0.9980353447889951  0.8278036113789964  1.0000
  O   O3        1.0  0.35818470013990844  0.1614041188651711  0.23497647035276253  1.0000
  O   O4        1.0  0.6418129435460924  0.8385931021607932  0.7349746181319785  1.0000
  O   O5        1.0  0.7895058505630387  0.1579376907435588  0.7347782954109403  1.0000
  O   O6        1.0  0.21048866492110813  0.8420583906866596  0.23477455465745575  1.0000
