data_image0
_chemical_formula_structural       Mn2H22C32N10O10
_chemical_formula_sum              "Mn2 H22 C32 N10 O10"
_cell_length_a       9.164207895520166
_cell_length_b       9.441114313336342
_cell_length_c       10.299479300321432
_cell_angle_alpha    85.07541541217962
_cell_angle_beta     80.85085079517646
_cell_angle_gamma    76.69416173765514

_space_group_name_H-M_alt    "P 1"
_space_group_IT_number       1

loop_
  _space_group_symop_operation_xyz
  'x, y, z'

loop_
  _atom_site_type_symbol
  _atom_site_label
  _atom_site_symmetry_multiplicity
  _atom_site_fract_x
  _atom_site_fract_y
  _atom_site_fract_z
  _atom_site_occupancy
  Mn  Mn1       1.0  0.5674725034999496  0.7947077716190165  0.6124669354987019  1.0000
  Mn  Mn2       1.0  0.4325108625931973  0.20528329359274267  0.3875475699276335  1.0000
  H   H1        1.0  0.08506357099817308  0.6639467486612034  0.5051291466378485  1.0000
  H   H2        1.0  0.9149110595249326  0.3360640230947496  0.49480691982876107  1.0000
  H   H3        1.0  0.8142865039480753  0.7150527825775085  0.4298430400259432  1.0000
  H   H4        1.0  0.18571499469310743  0.2849363125835893  0.5701865533326893  1.0000
  H   H5        1.0  0.728112896900704  0.5907690048822688  0.42654823616404497  1.0000
  H   H6        1.0  0.27187859558784305  0.4092306206896694  0.5734642424541148  1.0000
  H   H7        1.0  0.2869455225859809  0.04615152320941009  0.7376643517647207  1.0000
  H   H8        1.0  0.713043300003086  0.9538294172839347  0.26234068389020837  1.0000
  H   H9        1.0  0.14491330864554897  0.10892774612042896  0.9593422335856158  1.0000
  H   H10       1.0  0.8550854535297318  0.8910584156573407  0.0406589108175552  1.0000
  H   H11       1.0  0.2311865513967745  0.9634725499818801  0.1586720043654281  1.0000
  H   H12       1.0  0.7688251790249864  0.03654622570403629  0.841332732093292  1.0000
  H   H13       1.0  0.41828378789633536  0.7494123657744468  0.2512137675923966  1.0000
  H   H14       1.0  0.5817380632316186  0.2506108642885465  0.7487987838164825  1.0000
  H   H15       1.0  0.6385138739847702  0.5441684164229913  0.2129764722672077  1.0000
  H   H16       1.0  0.3615072222395668  0.45585845800184893  0.7870494160440484  1.0000
  H   H17       1.0  0.8497821331202001  0.40212167212323646  0.05461841342265223  1.0000
  H   H18       1.0  0.15023103089718848  0.5979009016592018  0.9454061299832756  1.0000
  H   H19       1.0  0.9759114705008755  0.3668428433533323  0.8196536996887713  1.0000
  H   H20       1.0  0.024087198595182678  0.633143909625943  0.18036876513797742  1.0000
  H   H21       1.0  0.8673474460066115  0.5340633931216132  0.641544830248925  1.0000
  H   H22       1.0  0.1326459089956913  0.4659015388170857  0.3584738001744724  1.0000
  C   C1        1.0  0.2750338482418754  0.8119604321769316  0.50296549334152  1.0000
  C   C2        1.0  0.7249487852295856  0.18804946476323886  0.4970209916815306  1.0000
  C   C3        1.0  0.16797370025448535  0.8842769809432555  0.42217782413676  1.0000
  C   C4        1.0  0.8320194081331137  0.11573039443850061  0.5778006191066323  1.0000
  C   C5        1.0  0.30360679237403326  0.6673486412368844  0.5732685461356793  1.0000
  C   C6        1.0  0.696367752779892  0.3326524534879526  0.4267112437040834  1.0000
  C   C7        1.0  0.04061914500601915  0.8383883035927938  0.3793796190743705  1.0000
  C   C8        1.0  0.9593764652854373  0.1616329472901583  0.6205504462458648  1.0000
  C   C9        1.0  0.3232426531686556  0.9837263053465436  0.8252423964009448  1.0000
  C   C10       1.0  0.6767593561689151  0.016265422695511202  0.17476451992087755  1.0000
  C   C11       1.0  0.24356734026166996  0.01863535879773789  0.9507605270908567  1.0000
  C   C12       1.0  0.7564372921157908  0.981359639570272  0.04924762622191289  1.0000
  C   C13       1.0  0.29086101713404133  0.9371301397294757  0.06041878349759596  1.0000
  C   C14       1.0  0.709152551487918  0.06288002840040718  0.9395904444415205  1.0000
  C   C15       1.0  0.4184378753834536  0.8192590021590008  0.04419427508769045  1.0000
  C   C16       1.0  0.5815769710993948  0.18075556973798262  0.9558172389357221  1.0000
  C   C17       1.0  0.4754317741771458  0.7277053035443544  0.15143951840352793  1.0000
  C   C18       1.0  0.524592750385338  0.2723157671275231  0.8485748112592899  1.0000
  C   C19       1.0  0.5989204105102174  0.6148852787486804  0.13043817285809917  1.0000
  C   C20       1.0  0.4011021362891184  0.3851346831716072  0.8695746091906853  1.0000
  C   C21       1.0  0.6765461474861211  0.5860567340231952  0.0002283336270280947  1.0000
  C   C22       1.0  0.3234627611005577  0.413949431248284  0.9997916772493834  1.0000
  C   C23       1.0  0.8063225206735964  0.47255622183443785  0.9732508082201075  1.0000
  C   C24       1.0  0.19367609379695952  0.5274359877346909  0.02677208445380328  1.0000
  C   C25       1.0  0.876098920018258  0.4532154652774381  0.8447444503530473  1.0000
  C   C26       1.0  0.12388476606199106  0.5467637317376841  0.15527412180973943  1.0000
  C   C27       1.0  0.8149656186589879  0.5467093391966102  0.7435913777733202  1.0000
  C   C28       1.0  0.18502589391224683  0.45326422717092646  0.25642373027984877  1.0000
  C   C29       1.0  0.6229952389519157  0.6743784144871938  0.8913873425539617  1.0000
  C   C30       1.0  0.3770148502414443  0.32562216951579614  0.10862820717147054  1.0000
  C   C31       1.0  0.49157007467864827  0.7917412568391883  0.9137970586248368  1.0000
  C   C32       1.0  0.5084461504543468  0.20826685939076836  0.08621782400886957  1.0000
  N   N1        1.0  0.37140385180707364  0.8997203827856811  0.5062266562344815  1.0000
  N   N2        1.0  0.6285745600247951  0.1002834937710588  0.49377658014677894  1.0000
  N   N3        1.0  0.32489696934704426  0.02039180385698809  0.4315923947659923  1.0000
  N   N4        1.0  0.6750881052926302  0.9796119158294587  0.5684079622159783  1.0000
  N   N5        1.0  0.20339543416533698  0.013747044648177095  0.37899030554505925  1.0000
  N   N6        1.0  0.7965994493352111  0.9862572335129941  0.6209949952462208  1.0000
  N   N7        1.0  0.4433125061501785  0.873313323296024  0.8071644603447578  1.0000
  N   N8        1.0  0.5566952257407252  0.12668268601774457  0.192842176388396  1.0000
  N   N9        1.0  0.6917919087472484  0.6532424131400489  0.7653507696738725  1.0000
  N   N10       1.0  0.3082145029740317  0.34674946113457844  0.23466327207661655  1.0000
  O   O1        1.0  0.4250315820527533  0.6267223830544496  0.622503187933489  1.0000
  O   O2        1.0  0.5749316402580787  0.37327486568226936  0.3774902642428657  1.0000
  O   O3        1.0  0.2029909835938923  0.5904511179958902  0.5794538553080029  1.0000
  O   O4        1.0  0.7969879055191099  0.4095501105577953  0.4204932495637832  1.0000
  O   O5        1.0  0.0071831547403320255  0.7154908340754175  0.4398207720792583  1.0000
  O   O6        1.0  0.9928074159765501  0.2845229480114995  0.560112710800041  1.0000
  O   O7        1.0  0.9690453472410637  0.9049620260378434  0.29346964843733037  1.0000
  O   O8        1.0  0.031007153064926688  0.0950413190994652  0.7064667159627971  1.0000
  O   O9        1.0  0.7108668263032172  0.6973098707250146  0.4396523751010546  1.0000
  O   O10       1.0  0.2891361693966914  0.3026826194406667  0.5603824885523351  1.0000
