data_image0
_chemical_formula_structural       Cd2H34C44N10O12
_chemical_formula_sum              "Cd2 H34 C44 N10 O12"
_cell_length_a       8.368825573694128
_cell_length_b       10.54273085757469
_cell_length_c       13.595129649032266
_cell_angle_alpha    76.31683814782492
_cell_angle_beta     72.74996382067546
_cell_angle_gamma    74.00341621832598

_space_group_name_H-M_alt    "P 1"
_space_group_IT_number       1

loop_
  _space_group_symop_operation_xyz
  'x, y, z'

loop_
  _atom_site_type_symbol
  _atom_site_label
  _atom_site_symmetry_multiplicity
  _atom_site_fract_x
  _atom_site_fract_y
  _atom_site_fract_z
  _atom_site_occupancy
  Cd  Cd1       1.0  0.31460314923366894  0.17914044316250247  0.5660872420082939  1.0000
  Cd  Cd2       1.0  0.6853977388733843  0.8208603932032542  0.43391387408235715  1.0000
  H   H1        1.0  0.20197705148665088  0.8324682408824912  0.8218036053552494  1.0000
  H   H2        1.0  0.7980238281029699  0.16753259818220556  0.1781967762543744  1.0000
  H   H3        1.0  0.359870719673502  0.3009054263056541  0.9966405630622502  1.0000
  H   H4        1.0  0.6401306931868479  0.6990934187389184  0.0033578764332630705  1.0000
  H   H5        1.0  0.36815912207190143  0.6401693541458043  0.5507410259593398  1.0000
  H   H6        1.0  0.631838000903052  0.359831495997966  0.44926005305863015  1.0000
  H   H7        1.0  0.6038659399473404  0.23912886621931048  0.6905256250449483  1.0000
  H   H8        1.0  0.3961332479147544  0.7608689851528466  0.3094734100539612  1.0000
  H   H9        1.0  0.8906635858527637  0.09687726286313136  0.9153155833812008  1.0000
  H   H10       1.0  0.10933909624734654  0.903121573090537  0.08468409260692063  1.0000
  H   H11       1.0  0.21025410539246533  0.4115943350107185  0.8557566670268101  1.0000
  H   H12       1.0  0.7897452340633039  0.5884075115043998  0.14424308190673674  1.0000
  H   H13       1.0  0.9099819818441405  0.17167805331887107  0.5405649764252941  1.0000
  H   H14       1.0  0.09001929645740606  0.8283167911848677  0.4594342181976358  1.0000
  H   H15       1.0  0.5360065613883549  0.38186438974064174  0.8383636130853844  1.0000
  H   H16       1.0  0.46399486850686594  0.6181344499060585  0.1616362953721904  1.0000
  H   H17       1.0  0.7115013236049208  0.3975733079646702  0.8780286989311675  1.0000
  H   H18       1.0  0.28849882853309333  0.6024255434718597  0.12196923855276515  1.0000
  H   H19       1.0  0.5456724510152854  0.9317599833483712  0.1877428623143302  1.0000
  H   H20       1.0  0.45432716785200716  0.06824086210828278  0.8122570172837129  1.0000
  H   H21       1.0  0.8346948977911669  0.9189623076899947  0.06953430026702273  1.0000
  H   H22       1.0  0.16530319797715265  0.0810395398192156  0.9304664156170048  1.0000
  H   H23       1.0  0.016104154493668  0.3017067605517525  0.7802296882828085  1.0000
  H   H24       1.0  0.9838960146792249  0.6982920854869121  0.21976971816318516  1.0000
  H   H25       1.0  0.1563890883043086  0.18176274285814029  0.12833083273540072  1.0000
  H   H26       1.0  0.8436105475978625  0.8182380972006484  0.8716705158247036  1.0000
  H   H27       1.0  0.22904992473068123  0.0268478172943531  0.20508968410528886  1.0000
  H   H28       1.0  0.7709534763035892  0.973153008986415  0.7949117015274894  1.0000
  H   H29       1.0  0.1525524626468453  0.402127395090467  0.19127632712780945  1.0000
  H   H30       1.0  0.8474474526668416  0.59787244390985  0.8087251520967838  1.0000
  H   H31       1.0  0.3141121747547829  0.02626859077671639  0.37187160612687353  1.0000
  H   H32       1.0  0.6858862004250526  0.9737322556740293  0.6281292404216501  1.0000
  H   H33       1.0  0.18504900180631992  0.43970355751060447  0.38111925870947516  1.0000
  H   H34       1.0  0.8149524451237867  0.5602952767382234  0.6188821187101609  1.0000
  C   C1        1.0  0.22590633621618392  0.7438789322702632  0.7870093601360536  1.0000
  C   C2        1.0  0.7740930117570173  0.2561229115459156  0.21299112327852748  1.0000
  C   C3        1.0  0.4648160230199635  0.21767195694685162  0.013115582217913918  1.0000
  C   C4        1.0  0.5351838837762913  0.782327884752405  0.9868851625256525  1.0000
  C   C5        1.0  0.32056207103348566  0.635377040151539  0.6349191058148946  1.0000
  C   C6        1.0  0.6794363041463499  0.3646238062992069  0.36508174073362903  1.0000
  C   C7        1.0  0.6289420221519394  0.2122768097263189  0.9468900024571809  1.0000
  C   C8        1.0  0.37105689481606413  0.78772204000537  0.053109636458266656  1.0000
  C   C9        1.0  0.4326953438766595  0.11748755306788886  0.09974104914419256  1.0000
  C   C10       1.0  0.5673038525028745  0.8825102956053354  0.9002587204357438  1.0000
  C   C11       1.0  0.7353592612361766  0.2399054546816899  0.68595634472657  1.0000
  C   C12       1.0  0.2646433953116158  0.7600933893687907  0.3140411278184629  1.0000
  C   C13       1.0  0.19816142034036233  0.6219244364077028  0.8481997844175807  1.0000
  C   C14       1.0  0.8018379276328389  0.37807740740848317  0.1518006989970004  1.0000
  C   C15       1.0  0.7623995187972098  0.10380098240541  0.9674016380941665  1.0000
  C   C16       1.0  0.23760134375752545  0.8961998620571516  0.03259727455339605  1.0000
  C   C17       1.0  0.29179769574271563  0.7491548267650784  0.6791372735909391  1.0000
  C   C18       1.0  0.7082016522304855  0.25084701705110035  0.320863209823642  1.0000
  C   C19       1.0  0.2336261719926967  0.5054946514347661  0.8061405086832849  1.0000
  C   C20       1.0  0.7663731759805117  0.49450719238141966  0.19385997473129626  1.0000
  C   C21       1.0  0.2919306676033385  0.5137602840842918  0.6978510704929163  1.0000
  C   C22       1.0  0.7080689512639466  0.48624056137236216  0.3021488091051197  1.0000
  C   C23       1.0  0.8876889635591781  0.2073669329097355  0.6131076316849543  1.0000
  C   C24       1.0  0.11231023282035582  0.7926309157634818  0.38689213789497506  1.0000
  C   C25       1.0  0.3189187796720603  0.39354079463609537  0.648653631463631  1.0000
  C   C26       1.0  0.6810795955077823  0.6064600518146505  0.35134721508489253  1.0000
  C   C27       1.0  0.6581527837761598  0.32630314074681616  0.8568760433041261  1.0000
  C   C28       1.0  0.3418473768792938  0.673695707990781  0.14312262866083353  1.0000
  C   C29       1.0  0.5672424355355049  0.010849043236937897  0.12051261596342033  1.0000
  C   C30       1.0  0.43275967922411956  0.9891517975325997  0.8794860642146886  1.0000
  C   C31       1.0  0.33086585363318494  0.8778919396254135  0.6111848231290578  1.0000
  C   C32       1.0  0.6691337652341075  0.12210890583124005  0.3888150564689851  1.0000
  C   C33       1.0  0.7313559384612136  0.003948691924009  0.054024827802457764  1.0000
  C   C34       1.0  0.2686424196837437  0.9960521599246092  0.9459745497840047  1.0000
  C   C35       1.0  0.9482611914293458  0.27559433112228493  0.7338397385348401  1.0000
  C   C36       1.0  0.05173771702121845  0.7244045213083368  0.2661591658995661  1.0000
  C   C37       1.0  0.2543161292817829  0.12687142835644488  0.17094146902435628  1.0000
  C   C38       1.0  0.7456834981029488  0.8731294144012761  0.8290591450547141  1.0000
  C   C39       1.0  0.19070824329126182  0.3317530147482585  0.2568320440894354  1.0000
  C   C40       1.0  0.8092913840934699  0.6682478280094556  0.7431685699896349  1.0000
  C   C41       1.0  0.2741932911596976  0.13367060495396288  0.3492085658783067  1.0000
  C   C42       1.0  0.7258075884299232  0.8663302341107337  0.65079181573131  1.0000
  C   C43       1.0  0.20763858892890139  0.3486920457552714  0.350204463314057  1.0000
  C   C44       1.0  0.7923625785896818  0.6513077895520141  0.6497967834410829  1.0000
  N   N1        1.0  0.12857025438562175  0.6155278650744761  0.9606313433951499  1.0000
  N   N2        1.0  0.8714309046155222  0.38447197293174895  0.03936916887896298  1.0000
  N   N3        1.0  0.01884677438741991  0.22991563474006674  0.6440138092778795  1.0000
  N   N4        1.0  0.9811543505439674  0.7700842140618959  0.35598376507211066  1.0000
  N   N5        1.0  0.7761398963810251  0.28404368518862805  0.7616286706850559  1.0000
  N   N6        1.0  0.22385901206953926  0.7159551672419936  0.2383702337493503  1.0000
  N   N7        1.0  0.23237164986723266  0.19500059251252105  0.2579414221540048  1.0000
  N   N8        1.0  0.7676292297223811  0.8050002465521756  0.742058959455619  1.0000
  N   N9        1.0  0.2600775895895993  0.22419124787325018  0.4066385348119468  1.0000
  N   N10       1.0  0.7399235779289768  0.7758085874340421  0.5933627119432003  1.0000
  O   O1        1.0  0.33154873840764754  0.2784871531118682  0.7075934582993141  1.0000
  O   O2        1.0  0.6684506266004393  0.7215146853064381  0.29240849407732833  1.0000
  O   O3        1.0  0.03470528001430049  0.7181535136010024  0.9938209551836366  1.0000
  O   O4        1.0  0.9652946182645085  0.2818463307971868  0.0061790550788955465  1.0000
  O   O5        1.0  0.3809848068498667  0.8827640522789721  0.5127048732204358  1.0000
  O   O6        1.0  0.6190148205348649  0.11723679047874917  0.4872957408586345  1.0000
  O   O7        1.0  0.3244304206127424  0.41182011773550903  0.5523057983108259  1.0000
  O   O8        1.0  0.6755676836730091  0.5881817270747618  0.4476956520542358  1.0000
  O   O9        1.0  0.16683760362746372  0.5065975941344689  0.01852995306486351  1.0000
  O   O10       1.0  0.8331660512660193  0.4934022391846398  0.9814693597893225  1.0000
  O   O11       1.0  0.30915779224803686  0.9731529758438952  0.6598362101154719  1.0000
  O   O12       1.0  0.6908427908951823  0.02684886967713139  0.34016257186760157  1.0000
