data_image0
_chemical_formula_structural       Cd2H40C38N4O14
_chemical_formula_sum              "Cd2 H40 C38 N4 O14"
_cell_length_a       5.66618984683908
_cell_length_b       12.844529075717041
_cell_length_c       13.892730703568713
_cell_angle_alpha    114.61039871038687
_cell_angle_beta     95.03291409991027
_cell_angle_gamma    93.46559829335747

_space_group_name_H-M_alt    "P 1"
_space_group_IT_number       1

loop_
  _space_group_symop_operation_xyz
  'x, y, z'

loop_
  _atom_site_type_symbol
  _atom_site_label
  _atom_site_symmetry_multiplicity
  _atom_site_fract_x
  _atom_site_fract_y
  _atom_site_fract_z
  _atom_site_occupancy
  Cd  Cd1       1.0  0.8300515697335983  0.2699274220727972  0.2766826199064241  1.0000
  Cd  Cd2       1.0  0.16993515260706002  0.7300841113915058  0.7233193721815071  1.0000
  H   H1        1.0  0.24934544598643527  0.7581658192815935  0.35722310066776697  1.0000
  H   H2        1.0  0.7506501825134749  0.24183528109952593  0.6427812229146213  1.0000
  H   H3        1.0  0.37026291266595723  0.8726335298041333  0.25871724748561314  1.0000
  H   H4        1.0  0.629741947223742  0.1273649173649076  0.7412930519706009  1.0000
  H   H5        1.0  0.6650924723956138  0.7976907926358763  0.08953172499540317  1.0000
  H   H6        1.0  0.33491310612092917  0.20230153303277382  0.910469840937381  1.0000
  H   H7        1.0  0.5465649322891508  0.6832138644921172  0.18935230509628545  1.0000
  H   H8        1.0  0.453412881924649  0.316760665369813  0.8106389964536549  1.0000
  H   H9        1.0  0.0678397259649515  0.8597201232300761  0.021222660411666355  1.0000
  H   H10       1.0  0.9321851197007903  0.14028492728466802  0.9787868302427827  1.0000
  H   H11       1.0  0.29192373507873987  0.9425285205482368  0.12889196334628372  1.0000
  H   H12       1.0  0.7080972425440633  0.0574791043176148  0.8711110823655447  1.0000
  H   H13       1.0  0.2540861479765937  0.4229486297630842  0.23894390805257607  1.0000
  H   H14       1.0  0.7459096767909158  0.577049784710212  0.7610500566290526  1.0000
  H   H15       1.0  0.3359757036319452  0.5225939472360892  0.12875622899728967  1.0000
  H   H16       1.0  0.6640233941025288  0.47740516170330227  0.8712251987921816  1.0000
  H   H17       1.0  0.6144166962548638  0.40010320260598314  0.9678367430494107  1.0000
  H   H18       1.0  0.38557605095215314  0.5999003610492792  0.032151059724931486  1.0000
  H   H19       1.0  0.5676201753870344  0.3014074786812344  0.08621986214272681  1.0000
  H   H20       1.0  0.4323560017792261  0.6985945997136439  0.9137686793446491  1.0000
  H   H21       1.0  0.9867885387031166  0.06576695303247958  0.3333374250344719  1.0000
  H   H22       1.0  0.013227315572940832  0.934241611615974  0.6666664239928154  1.0000
  H   H23       1.0  0.8508981334398982  0.9413737975830119  0.4170902361017781  1.0000
  H   H24       1.0  0.14911707174855587  0.058627911588523283  0.5829160604301862  1.0000
  H   H25       1.0  0.2630689916330978  0.1501221096311411  0.5079277270042297  1.0000
  H   H26       1.0  0.7369594664660823  0.8498811082831706  0.49207550461008503  1.0000
  H   H27       1.0  0.4174203518105912  0.2585670046697572  0.4141531362522173  1.0000
  H   H28       1.0  0.5825685866953946  0.7414410774937465  0.5858512844630113  1.0000
  H   H29       1.0  0.12139978431893891  0.36946766303945827  0.4801087011022106  1.0000
  H   H30       1.0  0.8785842565226718  0.6305310281668143  0.5198969972871126  1.0000
  H   H31       1.0  0.29847634109728455  0.397903754407693  0.4031775328586207  1.0000
  H   H32       1.0  0.7015023783259622  0.6020941230016277  0.5968254215341275  1.0000
  H   H33       1.0  0.6114871009635012  0.4886914233046298  0.35101897701473916  1.0000
  H   H34       1.0  0.3885084285006073  0.5113088002867131  0.6489835729116393  1.0000
  H   H35       1.0  0.7068476334725845  0.4611939464727116  0.44861887632706043  1.0000
  H   H36       1.0  0.29313599785096767  0.5388030149562156  0.5513854338642474  1.0000
  H   H37       1.0  0.3373928632681568  0.15415423892590496  0.1710032605366152  1.0000
  H   H38       1.0  0.6626055314488825  0.8458493888415504  0.8289992705123694  1.0000
  H   H39       1.0  0.566541882322177  0.102480945386759  0.1165743391895688  1.0000
  H   H40       1.0  0.4334516999609122  0.8975202103729389  0.8834327796662151  1.0000
  C   C1        1.0  0.8156168948987101  0.6463990148523634  0.3413940131234554  1.0000
  C   C2        1.0  0.184373511218638  0.3536021485215814  0.6586093401183817  1.0000
  C   C3        1.0  0.8898004229333338  0.7131218766244274  0.2795918462802831  1.0000
  C   C4        1.0  0.11018542412499953  0.28687589828162885  0.720410722588966  1.0000
  C   C5        1.0  0.12182521631337562  0.7676151918706468  0.2988125570999358  1.0000
  C   C6        1.0  0.8781688040414366  0.2323885783902426  0.7011984433145457  1.0000
  C   C7        1.0  0.1884204292015212  0.831452476674272  0.24320097902126742  1.0000
  C   C8        1.0  0.8115840359184147  0.1685511676009597  0.7568119620743302  1.0000
  C   C9        1.0  0.026276915281336227  0.8430645737610264  0.16684831018671537  1.0000
  C   C10       1.0  0.9737215084199207  0.1569356739523471  0.8331608841723154  1.0000
  C   C11       1.0  0.7938682813386034  0.7879587445141638  0.1475774765601797  1.0000
  C   C12       1.0  0.2061396119485224  0.21203527142139225  0.8524241217065623  1.0000
  C   C13       1.0  0.7280392168650209  0.7238726037751773  0.20277092820381867  1.0000
  C   C14       1.0  0.2719548997786704  0.2761146347448786  0.7972223733398138  1.0000
  C   C15       1.0  0.10093914389028678  0.91311224996349  0.10773636323514786  1.0000
  C   C16       1.0  0.8990752574408987  0.0868886617589695  0.8922753566875414  1.0000
  C   C17       1.0  0.955474495869801  0.016238572522404095  0.1303363326549771  1.0000
  C   C18       1.0  0.04453469645364546  0.9837606248111186  0.8696687105011094  1.0000
  C   C19       1.0  0.11718011449239904  0.418451082340802  0.1769466090727008  1.0000
  C   C20       1.0  0.8828259002918417  0.58153941834167  0.8230449322059954  1.0000
  C   C21       1.0  0.1607787390215449  0.4753845326968005  0.11355293469507191  1.0000
  C   C22       1.0  0.8392243685812844  0.5246034564674744  0.8864418385263731  1.0000
  C   C23       1.0  0.9813266805300033  0.4707719276844174  0.03505896654821331  1.0000
  C   C24       1.0  0.01865340523421824  0.5292179794361261  0.9649230705529918  1.0000
  C   C25       1.0  0.7632005105517479  0.4078103951586414  0.02620208993543114  1.0000
  C   C26       1.0  0.23678762178060006  0.5921752162472417  0.9737924515930062  1.0000
  C   C27       1.0  0.7334161254411669  0.3525654696911077  0.09203856748796821  1.0000
  C   C28       1.0  0.2665864754118132  0.6474243523934077  0.9079669500922377  1.0000
  C   C29       1.0  0.8262635707034818  0.08053415515378498  0.3726354900985244  1.0000
  C   C30       1.0  0.17374577647142087  0.9194804827510057  0.6273638035868956  1.0000
  C   C31       1.0  0.7492867468025538  0.011990676795889499  0.42130401548367064  1.0000
  C   C32       1.0  0.25074042614747327  0.9880228161598622  0.5786914611799787  1.0000
  C   C33       1.0  0.5435217912549675  0.0345121739357594  0.47278938057451814  1.0000
  C   C34       1.0  0.45649317393338873  0.9654886743141446  0.5272165817107819  1.0000
  C   C35       1.0  0.42375964014297546  0.12589431301442738  0.47031861890994975  1.0000
  C   C36       1.0  0.5762507646946844  0.8741159411013866  0.5296740491547139  1.0000
  C   C37       1.0  0.510498405821778  0.1887460984701121  0.4181484674709921  1.0000
  C   C38       1.0  0.4895163314496145  0.8112649058101838  0.5818389442935371  1.0000
  N   N1        1.0  0.7090809126529223  0.16737845681211638  0.3703599357755322  1.0000
  N   N2        1.0  0.2909266844696887  0.8326258977973424  0.6296419078372466  1.0000
  N   N3        1.0  0.9081068317305706  0.357230902696493  0.16633955779460044  1.0000
  N   N4        1.0  0.09189456739967027  0.6427716738915662  0.8336476087548662  1.0000
  O   O1        1.0  0.9392433464465243  0.6702373301158957  0.43037705676491106  1.0000
  O   O2        1.0  0.06075390494677183  0.32976802726899734  0.5696246198227684  1.0000
  O   O3        1.0  0.6322049332347248  0.5722379258822201  0.3010395081735594  1.0000
  O   O4        1.0  0.36779309432329643  0.4277588146720461  0.6989625915614113  1.0000
  O   O5        1.0  0.0627090299554709  0.11723884860112581  0.19279931001990044  1.0000
  O   O6        1.0  0.9372920738713688  0.8827655371049732  0.8071964417743088  1.0000
  O   O7        1.0  0.7417811492868083  0.9963386554541956  0.08966644727895805  1.0000
  O   O8        1.0  0.25822299060259  0.003657208949931598  0.9103428494372638  1.0000
  O   O9        1.0  0.1306637586498525  0.3916370121415865  0.4175812859360732  1.0000
  O   O10       1.0  0.8693158217379846  0.6083634321645093  0.5824212317873219  1.0000
  O   O11       1.0  0.5996100154738359  0.4260008987258246  0.3811184123643869  1.0000
  O   O12       1.0  0.4003885340128761  0.5739966710138021  0.6188811427985571  1.0000
  O   O13       1.0  0.49249115601311644  0.17621395271371654  0.1519324452195789  1.0000
  O   O14       1.0  0.5075075206325081  0.8237896433174541  0.8480672070107147  1.0000
