data_image0
_chemical_formula_structural       Ca2H16C24N4O12
_chemical_formula_sum              "Ca2 H16 C24 N4 O12"
_cell_length_a       7.044966203037518
_cell_length_b       8.077266582507622
_cell_length_c       10.860650161000429
_cell_angle_alpha    90.00002999819597
_cell_angle_beta     89.99997976465713
_cell_angle_gamma    107.67668977099129

_space_group_name_H-M_alt    "P 1"
_space_group_IT_number       1

loop_
  _space_group_symop_operation_xyz
  'x, y, z'

loop_
  _atom_site_type_symbol
  _atom_site_label
  _atom_site_symmetry_multiplicity
  _atom_site_fract_x
  _atom_site_fract_y
  _atom_site_fract_z
  _atom_site_occupancy
  Ca  Ca1       1.0  0.0  0.0  0.0  1.0000
  Ca  Ca2       1.0  0.9999998238924448  0.49999899538282483  0.49999951586674735  1.0000
  H   H1        1.0  0.5626835608207799  0.48947995041163483  0.6625395565565456  1.0000
  H   H2        1.0  0.43731478956678427  0.0105191451452811  0.1625390243444542  1.0000
  H   H3        1.0  0.4373169124364011  0.510522133247285  0.3374614306775214  1.0000
  H   H4        1.0  0.5626819393647295  0.9894803406425509  0.8374619628895345  1.0000
  H   H5        1.0  0.8962766446183537  0.579317182888225  0.0027917407053693  1.0000
  H   H6        1.0  0.10372379878411661  0.9206811865900023  0.5027923506793002  1.0000
  H   H7        1.0  0.10372388932566423  0.4206810021330086  0.9972083257727391  1.0000
  H   H8        1.0  0.8962762216040331  0.07931959767567781  0.49720863655456066  1.0000
  H   H9        1.0  0.3017610452015873  0.2503436366165559  0.7719749769222589  1.0000
  H   H10       1.0  0.698238687980272  0.24965552562022003  0.2719744786280742  1.0000
  H   H11       1.0  0.6982389751867117  0.7496571476488469  0.228025089556418  1.0000
  H   H12       1.0  0.30176087953913827  0.7503439592516588  0.7280246670952125  1.0000
  H   H13       1.0  0.6427550866578855  0.3130804819036896  0.0877267800904065  1.0000
  H   H14       1.0  0.3572461272689296  0.186918566841527  0.587728161717699  1.0000
  H   H15       1.0  0.35724641371119514  0.6869164032660466  0.9122714448769571  1.0000
  H   H16       1.0  0.6427543459884076  0.8130835168171089  0.4122719047611767  1.0000
  C   C1        1.0  0.5849093383272218  0.45895053333182295  0.7580872348583441  1.0000
  C   C2        1.0  0.41508994661751336  0.0410473209917228  0.25808671963722674  1.0000
  C   C3        1.0  0.41509022919188265  0.5410489515406242  0.24191375237531793  1.0000
  C   C4        1.0  0.5849082016079449  0.958952164338136  0.7419133468414074  1.0000
  C   C5        1.0  0.9166752926614521  0.6987099080781151  0.7645417377439188  1.0000
  C   C6        1.0  0.083326029865482  0.8012873221302  0.2645423205592152  1.0000
  C   C7        1.0  0.08332569415160412  0.3012895763363517  0.2354583287343956  1.0000
  C   C8        1.0  0.9166735376536295  0.1987121627422468  0.7354586666744469  1.0000
  C   C9        1.0  0.7544357842754295  0.553547827689222  0.8233761430043245  1.0000
  C   C10       1.0  0.24556455220396606  0.946450738464357  0.32337674553083673  1.0000
  C   C11       1.0  0.24556423611287667  0.4464529565761737  0.1766239234743523  1.0000
  C   C12       1.0  0.7544350153151386  0.05354874640809021  0.6766242417028323  1.0000
  C   C13       1.0  0.7726126315466787  0.5054018704825368  0.9455198319837452  1.0000
  C   C14       1.0  0.2273881170635618  0.9945980699985097  0.4455213782146643  1.0000
  C   C15       1.0  0.22738880813557222  0.4945989133248858  0.05447931373958431  1.0000
  C   C16       1.0  0.7726119033245809  0.005402714267170001  0.5544796090192037  1.0000
  C   C17       1.0  0.44282962981255036  0.32228223719343424  0.8135792981406524  1.0000
  C   C18       1.0  0.5571700894930558  0.17771695056746487  0.31357972466424405  1.0000
  C   C19       1.0  0.5571703905757489  0.6777185470719613  0.18642076833802435  1.0000
  C   C20       1.0  0.4428299308952504  0.8222838336979378  0.6864203418144329  1.0000
  C   C21       1.0  0.6338602230153043  0.3623803517762951  0.9958234381516959  1.0000
  C   C22       1.0  0.366138469082621  0.13762024764023548  0.4958229718097585  1.0000
  C   C23       1.0  0.36613837807919947  0.6376204329467967  0.0041766283271443  1.0000
  C   C24       1.0  0.6338625177304353  0.8623792367742311  0.504177094668556  1.0000
  N   N1        1.0  0.4708367721407569  0.2709856240670164  0.9301358428927103  1.0000
  N   N2        1.0  0.5291643275840556  0.22901363474247924  0.430136295836853  1.0000
  N   N3        1.0  0.5291642146724557  0.7290138603471663  0.069863302830413  1.0000
  N   N4        1.0  0.4708356928042434  0.7709871495229168  0.5698637706418239  1.0000
  O   O1        1.0  0.020747867360043405  0.8180834296181275  0.8342761782352498  1.0000
  O   O2        1.0  0.9792510461901573  0.6819151436801293  0.3342765101730265  1.0000
  O   O3        1.0  0.9792517001592101  0.1819160552540353  0.16572388824322812  1.0000
  O   O4        1.0  0.020748521328947306  0.3180843411923178  0.6657244770606355  1.0000
  O   O5        1.0  0.3428516804555883  0.13509770268458246  0.9799818338971208  1.0000
  O   O6        1.0  0.6571475304816302  0.3649002877691245  0.47998138998382706  1.0000
  O   O7        1.0  0.6571474341949396  0.8649004827937857  0.0200163910707687  1.0000
  O   O8        1.0  0.3428524899068179  0.635100496495994  0.5200177557396587  1.0000
  O   O9        1.0  0.942039989395788  0.689066908888151  0.6492051756334477  1.0000
  O   O10       1.0  0.05795943874930744  0.8109328502641874  0.149205767998474  1.0000
  O   O11       1.0  0.05795957812347301  0.31093257598401186  0.35079489084503024  1.0000
  O   O12       1.0  0.9420401287697971  0.1890666346082597  0.8507952192351881  1.0000
