data_image0
_chemical_formula_structural       Cd2H60C44I4N8
_chemical_formula_sum              "Cd2 H60 C44 I4 N8"
_cell_length_a       6.0194523164059
_cell_length_b       12.093077290864432
_cell_length_c       17.10961588134846
_cell_angle_alpha    93.46216572586619
_cell_angle_beta     90.0058715016954
_cell_angle_gamma    104.40774592376326

_space_group_name_H-M_alt    "P 1"
_space_group_IT_number       1

loop_
  _space_group_symop_operation_xyz
  'x, y, z'

loop_
  _atom_site_type_symbol
  _atom_site_label
  _atom_site_symmetry_multiplicity
  _atom_site_fract_x
  _atom_site_fract_y
  _atom_site_fract_z
  _atom_site_occupancy
  Cd  Cd1       1.0  0.9073376403710824  1.9390465524802723e-05  0.7499954585290853  1.0000
  Cd  Cd2       1.0  0.09265726660763837  0.9999687986669344  0.2500025049011613  1.0000
  H   H1        1.0  0.7321206633884786  0.05763233029578879  0.9107602675053672  1.0000
  H   H2        1.0  0.6747329003681415  0.9422544741270045  0.5892582800815663  1.0000
  H   H3        1.0  0.26787229023545933  0.9423652395289323  0.08923455266938163  1.0000
  H   H4        1.0  0.3252369538003562  0.0577500623910154  0.410751420730506  1.0000
  H   H5        1.0  0.7890685854300089  0.3673066068425612  0.715275261302786  1.0000
  H   H6        1.0  0.4222171406777733  0.6324966949324419  0.7846476438147578  1.0000
  H   H7        1.0  0.2109579615954687  0.6326883754868149  0.28471712265981364  1.0000
  H   H8        1.0  0.5777914666950751  0.36748899552771525  0.21535840622345157  1.0000
  H   H9        1.0  0.556240533357375  0.25944618324072627  0.673746942694166  1.0000
  H   H10       1.0  0.29687993886083325  0.7402545696674565  0.826115403937081  1.0000
  H   H11       1.0  0.44376366871647127  0.7405539474846136  0.32624739297421723  1.0000
  H   H12       1.0  0.7031436974629628  0.25973460039996615  0.17389779563320937  1.0000
  H   H13       1.0  0.8354325639686877  0.23494553274355212  0.6771248419808488  1.0000
  H   H14       1.0  0.6006631230728061  0.764921858569295  0.8228923714696281  1.0000
  H   H15       1.0  0.16456525269072145  0.7650451493687528  0.32286445114225876  1.0000
  H   H16       1.0  0.3993562979924334  0.23506552272727532  0.17711140687247007  1.0000
  H   H17       1.0  0.5164255333301924  0.27065464547483487  0.023583516111280307  1.0000
  H   H18       1.0  0.24600804347867478  0.729523661718865  0.4763461027522171  1.0000
  H   H19       1.0  0.4835896483421962  0.7293574755670136  0.9764130385473071  1.0000
  H   H20       1.0  0.7539510445450546  0.27048260085449266  0.5236654177662603  1.0000
  H   H21       1.0  0.554323723720259  0.12960902529611934  0.02519443337027381  1.0000
  H   H22       1.0  0.4250240066209017  0.870514312484701  0.4748623942138722  1.0000
  H   H23       1.0  0.4457018079500515  0.870400538670033  0.9748031917164971  1.0000
  H   H24       1.0  0.5749218147452098  0.1294919995430632  0.5251549721869397  1.0000
  H   H25       1.0  0.28815254864063894  0.15163583304740771  0.9943078647874589  1.0000
  H   H26       1.0  0.13689486020010838  0.8485515298520809  0.5056890795725197  1.0000
  H   H27       1.0  0.7118699816010693  0.8483677283179747  0.005687773950860717  1.0000
  H   H28       1.0  0.8630534280892095  0.15145307116776513  0.4943282206353248  1.0000
  H   H29       1.0  0.2455312099220492  0.32759100092014387  0.8372533785840094  1.0000
  H   H30       1.0  0.9181750679285869  0.6724706968937894  0.6627117559922769  1.0000
  H   H31       1.0  0.7545062492383678  0.6724158301917454  0.16272426906806464  1.0000
  H   H32       1.0  0.08180233663134834  0.3275389719172068  0.33729814426842364  1.0000
  H   H33       1.0  0.49676671357357083  0.4142249098254637  0.8025196914966133  1.0000
  H   H34       1.0  0.08264507350289564  0.5857628189307035  0.6975249581847794  1.0000
  H   H35       1.0  0.5032910769834446  0.5857793930064545  0.19746253515671705  1.0000
  H   H36       1.0  0.917324651980756  0.41423149619492944  0.3024896065896528  1.0000
  H   H37       1.0  0.07763186165133372  0.6323831334673286  0.03089902235608832  1.0000
  H   H38       1.0  0.44506898020357977  0.3674065776965634  0.46900522081946877  1.0000
  H   H39       1.0  0.9224065154427024  0.367602277343785  0.9690737034856699  1.0000
  H   H40       1.0  0.5548924749954551  0.6325911303244  0.531005968154368  1.0000
  H   H41       1.0  0.9357821746056416  0.7287343277785823  0.07833158015883872  1.0000
  H   H42       1.0  0.20654514453979544  0.2710594167334932  0.4217245955975174  1.0000
  H   H43       1.0  0.06428212292166083  0.2712597338142402  0.9216531721812378  1.0000
  H   H44       1.0  0.7934138669993516  0.7289400511002169  0.5782925062247062  1.0000
  H   H45       1.0  0.9668467659764062  0.7252921591461289  0.9758051706375925  1.0000
  H   H46       1.0  0.24145412865635046  0.27470485171743764  0.5242554040863114  1.0000
  H   H47       1.0  0.03319136552958923  0.2747027298857033  0.024176105356161808  1.0000
  H   H48       1.0  0.7585057720294514  0.7252997145706528  0.47575780413919233  1.0000
  H   H49       1.0  0.8335275471131708  0.4722548412306509  0.8352469753113714  1.0000
  H   H50       1.0  0.3611846562196277  0.5275872065087696  0.6648143729696658  1.0000
  H   H51       1.0  0.1664870129585695  0.5277460663425444  0.16473803948128565  1.0000
  H   H52       1.0  0.6387927483403075  0.4724224623022265  0.33519552729103463  1.0000
  H   H53       1.0  0.028303036591509557  0.5455965869000392  0.9091712943065107  1.0000
  H   H54       1.0  0.4827610441905534  0.4543460589665003  0.5909078308102098  1.0000
  H   H55       1.0  0.9717184825133387  0.4543983029437584  0.09080998072087713  1.0000
  H   H56       1.0  0.5172205407329713  0.5456653254081018  0.4091027206955432  1.0000
  H   H57       1.0  0.8696204776078318  0.6214070751659762  0.8564647520638647  1.0000
  H   H58       1.0  0.2482306565079355  0.37845768219656856  0.6435063574828492  1.0000
  H   H59       1.0  0.13040897211934782  0.3785903855017948  0.14351720759496805  1.0000
  H   H60       1.0  0.7517604750567556  0.6215528609095455  0.3565059154062312  1.0000
  C   C1        1.0  0.7141868642032704  0.27435601905870743  0.7093072472632047  1.0000
  C   C2        1.0  0.4401371679921623  0.7254545344009029  0.7906353120993617  1.0000
  C   C3        1.0  0.2858176635748678  0.7256381186644276  0.2906862715810804  1.0000
  C   C4        1.0  0.5598810741380831  0.27453713393283147  0.2093698013461492  1.0000
  C   C5        1.0  0.6662596421740545  0.22622581523161503  0.7874284492694774  1.0000
  C   C6        1.0  0.4404022755259619  0.7736180248462218  0.7125318255314002  1.0000
  C   C7        1.0  0.3337585986508459  0.7737691675037437  0.21256393420993905  1.0000
  C   C8        1.0  0.5595889799209104  0.22637283328824506  0.28747851516468625  1.0000
  C   C9        1.0  0.5443364706425841  0.26338012876990996  0.8505157684039022  1.0000
  C   C10       1.0  0.28120471174074885  0.7365358609959216  0.6494590572277803  1.0000
  C   C11       1.0  0.4556831057181442  0.7366208468864526  0.14947743199624605  1.0000
  C   C12       1.0  0.7187726047029556  0.2634669886730093  0.3505535010089532  1.0000
  C   C13       1.0  0.5579513401935614  0.191826212795064  0.9109901363254383  1.0000
  C   C14       1.0  0.36633183388687485  0.8081305528142124  0.5890237631241392  1.0000
  C   C15       1.0  0.442059993798523  0.8081782143224243  0.08900670426062621  1.0000
  C   C16       1.0  0.6336371520719553  0.19186892917375792  0.4109950932745365  1.0000
  C   C17       1.0  0.47485360280801797  0.1857779736413505  0.9927012086038335  1.0000
  C   C18       1.0  0.28938027885583767  0.8143285890804463  0.5073053784732338  1.0000
  C   C19       1.0  0.5251619045686629  0.8142281543982934  0.007294529230655711  1.0000
  C   C20       1.0  0.7105708948298712  0.18567513683231604  0.4927095500725971  1.0000
  C   C21       1.0  0.4291946816767692  0.3608640044435418  0.8511657516817197  1.0000
  C   C22       1.0  0.06846585912219895  0.6390812820893571  0.6488431180522769  1.0000
  C   C23       1.0  0.5708370113435349  0.6391445866434892  0.1488178086254664  1.0000
  C   C24       1.0  0.9314997195874849  0.36091470508153367  0.3511668354941478  1.0000
  C   C25       1.0  0.4627567499162169  0.43401935585024626  0.9278001914261085  1.0000
  C   C26       1.0  0.028749448352975555  0.5659306648865581  0.5722271954347705  1.0000
  C   C27       1.0  0.5372694980156041  0.5659849924487474  0.07218729538100632  1.0000
  C   C28       1.0  0.9712224925078202  0.4340747220925393  0.4277819540015174  1.0000
  C   C29       1.0  0.6717200924576403  0.5165051703176147  0.9427449205146208  1.0000
  C   C30       1.0  0.15519152403307154  0.4834305106398915  0.5572406870185777  1.0000
  C   C31       1.0  0.32830233905716727  0.48349486678539233  0.05723830757146692  1.0000
  C   C32       1.0  0.8447770990001615  0.5165748862625676  0.4427696315555212  1.0000
  C   C33       1.0  0.7086087497985858  0.582522109538111  0.014693340136503304  1.0000
  C   C34       1.0  0.12612280623618946  0.41747158319471106  0.4852661940058028  1.0000
  C   C35       1.0  0.29142650096368067  0.41747366436177186  0.9852914768503498  1.0000
  C   C36       1.0  0.8738530009155595  0.5825415367526147  0.514747346827349  1.0000
  C   C37       1.0  0.9319823868762712  0.6715382923494175  0.02617545369600551  1.0000
  C   C38       1.0  0.26032595841617484  0.32833794352693957  0.47381386317903224  1.0000
  C   C39       1.0  0.06805650974418143  0.3284514835053827  0.9738079619944746  1.0000
  C   C40       1.0  0.7396322218502435  0.6716631815481832  0.5261968736118237  1.0000
  C   C41       1.0  0.8589396563111509  0.5391805736611274  0.8826692377576966  1.0000
  C   C42       1.0  0.31973394840213143  0.46071674772189647  0.6173623130344696  1.0000
  C   C43       1.0  0.1410794666814185  0.4608194928871682  0.11731749812837224  1.0000
  C   C44       1.0  0.6802492525402286  0.5392912245602304  0.3826492752231659  1.0000
  I   I1        1.0  0.0686620783705863  0.926308768172255  0.8813975327368981  1.0000
  I   I2        1.0  0.14128345916729756  0.07363087922931301  0.618385762766785  1.0000
  I   I3        1.0  0.9313812805518181  0.0736999004341214  0.11859538289542124  1.0000
  I   I4        1.0  0.8586704709455972  0.9263683838677179  0.3816067828127459  1.0000
  N   N1        1.0  0.7466336085571115  0.1370806625678966  0.8078801618353996  1.0000
  N   N2        1.0  0.6099002078168498  0.8627605159111907  0.6921119685353079  1.0000
  N   N3        1.0  0.25337457438454447  0.8629074966320898  0.19211429437468305  1.0000
  N   N4        1.0  0.3900939898793538  0.1372329035298776  0.3078978871712225  1.0000
  N   N5        1.0  0.6774131854433206  0.11791889149245087  0.8821464672383287  1.0000
  N   N6        1.0  0.5596713969475574  0.8820422409698381  0.6178840525452574  1.0000
  N   N7        1.0  0.32259932515742684  0.8820812437073898  0.11784845357878744  1.0000
  N   N8        1.0  0.4403067657478488  0.1179623000226755  0.3821262334155407  1.0000
