data_image0
_chemical_formula_structural       La4H24C40N20O28
_chemical_formula_sum              "La4 H24 C40 N20 O28"
_cell_length_a       7.9915409929780985
_cell_length_b       7.991560547972349
_cell_length_c       20.080390909016256
_cell_angle_alpha    90.00003598721797
_cell_angle_beta     90.00014143273033
_cell_angle_gamma    90.00254567583292

_space_group_name_H-M_alt    "P 1"
_space_group_IT_number       1

loop_
  _space_group_symop_operation_xyz
  'x, y, z'

loop_
  _atom_site_type_symbol
  _atom_site_label
  _atom_site_symmetry_multiplicity
  _atom_site_fract_x
  _atom_site_fract_y
  _atom_site_fract_z
  _atom_site_occupancy
  La  La1       1.0  0.7781190799834334  0.7781147690844675  0.5000007063632523  1.0000
  La  La2       1.0  0.7219265426674683  0.27807206454702543  0.25000000490609153  1.0000
  La  La3       1.0  0.22188263303414862  0.22188603498953086  0.999999593606951  1.0000
  La  La4       1.0  0.27806986694979224  0.7219295971266959  0.7500005666947729  1.0000
  H   H1        1.0  0.6920345307523945  0.21655424804887963  0.5602329868429621  1.0000
  H   H2        1.0  0.28341615297354406  0.19219803929607343  0.3102162357994303  1.0000
  H   H3        1.0  0.3079644566042533  0.7834433609503578  0.06023314070636591  1.0000
  H   H4        1.0  0.716583132441599  0.8078012146056963  0.8102157562345056  1.0000
  H   H5        1.0  0.19219915160109483  0.2834175438535738  0.6897835143273171  1.0000
  H   H6        1.0  0.21655569960145732  0.6920364528270184  0.4397695203646209  1.0000
  H   H7        1.0  0.8078031414476926  0.7165852744654585  0.18978414284979556  1.0000
  H   H8        1.0  0.7834456401965897  0.30796801037028126  0.9397684832809432  1.0000
  H   H9        1.0  0.5698990078488607  0.3656451475399365  0.6609276983491342  1.0000
  H   H10       1.0  0.13438867519587216  0.07001591748775839  0.41091936606733975  1.0000
  H   H11       1.0  0.4301018549793909  0.6343551226767798  0.16092893092656624  1.0000
  H   H12       1.0  0.8656112343908904  0.9299847462965687  0.9109195616352181  1.0000
  H   H13       1.0  0.07001633950901721  0.1343900393508122  0.5890797187596066  1.0000
  H   H14       1.0  0.36564532130405786  0.5699008374822585  0.33907382948923737  1.0000
  H   H15       1.0  0.9299840780419474  0.8656113690570847  0.08908000675172903  1.0000
  H   H16       1.0  0.6343541430177524  0.43010096449638263  0.8390721784351385  1.0000
  H   H17       1.0  0.4459829943826821  0.184649029925275  0.7510438882997903  1.0000
  H   H18       1.0  0.31543983168813844  0.9459565637680497  0.5009740865763989  1.0000
  H   H19       1.0  0.5540146729714338  0.8153501307796489  0.25104429206307805  1.0000
  H   H20       1.0  0.6845637936860314  0.05404095203689959  0.0009749259058225  1.0000
  H   H21       1.0  0.9459587791288444  0.31543915179591403  0.4990246542816479  1.0000
  H   H22       1.0  0.18464715938548446  0.44598853090158735  0.2489569534484843  1.0000
  H   H23       1.0  0.0540404251697524  0.6845603993667169  0.9990249864506282  1.0000
  H   H24       1.0  0.8153504949990804  0.5540093751954558  0.7489550133942731  1.0000
  C   C1        1.0  0.6024589466800807  0.896483363257289  0.6546500146335603  1.0000
  C   C2        1.0  0.60359550198271  0.1023867240618372  0.404565142805815  1.0000
  C   C3        1.0  0.3975431285858875  0.1035181484214576  0.1546495881814778  1.0000
  C   C4        1.0  0.39640812219104765  0.897613929800876  0.9045653669620607  1.0000
  C   C5        1.0  0.10238724984501604  0.6035957427128126  0.5954342514294666  1.0000
  C   C6        1.0  0.896478603816263  0.6024644750197369  0.3453513627482607  1.0000
  C   C7        1.0  0.8976107044729533  0.3964069269653406  0.09543488801386961  1.0000
  C   C8        1.0  0.10351839671074711  0.3975348341474501  0.8453496796429223  1.0000
  C   C9        1.0  0.6480816710240375  0.14806480522501175  0.6038003355956079  1.0000
  C   C10       1.0  0.351956533927023  0.1481819105619238  0.3537552570156777  1.0000
  C   C11       1.0  0.35192008900396843  0.8519328724291669  0.10380104783379099  1.0000
  C   C12       1.0  0.6480442726897664  0.8518186632427459  0.8537557170929873  1.0000
  C   C13       1.0  0.14818149461294894  0.3519575878490215  0.6462435122420161  1.0000
  C   C14       1.0  0.1480609145357406  0.6480810285651657  0.3962006082518741  1.0000
  C   C15       1.0  0.8518192772033047  0.6480426592462719  0.14624416686366712  1.0000
  C   C16       1.0  0.8519364012060607  0.3519208633077041  0.8962001475196006  1.0000
  C   C17       1.0  0.576263959369939  0.22958174886428398  0.6579690766880192  1.0000
  C   C18       1.0  0.2704564310037938  0.0763368528894688  0.407927958118961  1.0000
  C   C19       1.0  0.4237356337642596  0.7704172653445339  0.15796834511038335  1.0000
  C   C20       1.0  0.7295459626607226  0.9236625549201776  0.9079280183291588  1.0000
  C   C21       1.0  0.07633730193403211  0.27045622251397816  0.5920712145431751  1.0000
  C   C22       1.0  0.22958160118198384  0.5762657848848179  0.3420323711430555  1.0000
  C   C23       1.0  0.9236618828329456  0.7295451905759478  0.0920709642247814  1.0000
  C   C24       1.0  0.7704166301289633  0.4237347704052254  0.8420318482605326  1.0000
  C   C25       1.0  0.509414964135992  0.12970869564257007  0.7082474349843437  1.0000
  C   C26       1.0  0.370358234961536  0.0094022479752596  0.45818050660251686  1.0000
  C   C27       1.0  0.49058619197116843  0.8702916490810749  0.20824828815239027  1.0000
  C   C28       1.0  0.6296432187827322  0.9905947362918751  0.958180983365267  1.0000
  C   C29       1.0  0.009403589264238104  0.37035883805349107  0.5418191843949246  1.0000
  C   C30       1.0  0.1297106109019381  0.5094192605008273  0.291752914005599  1.0000
  C   C31       1.0  0.9905940326964501  0.6296412445639561  0.04181847684821351  1.0000
  C   C32       1.0  0.8702910626976392  0.4905787130647494  0.7917520080654088  1.0000
  C   C33       1.0  0.6280068030245972  0.7090774801749974  0.6551320660395065  1.0000
  C   C34       1.0  0.7910117392611157  0.12790280130104037  0.4050756863619966  1.0000
  C   C35       1.0  0.3719952752630888  0.2909252835844073  0.1551336534258994  1.0000
  C   C36       1.0  0.20899313937164274  0.8720966020731353  0.9050757198666234  1.0000
  C   C37       1.0  0.12790463871390054  0.7910077654817229  0.5949218472319657  1.0000
  C   C38       1.0  0.7090772654803035  0.6280085130687069  0.344867219505538  1.0000
  C   C39       1.0  0.8720908097370171  0.20899240069659433  0.09492589775126702  1.0000
  C   C40       1.0  0.2909209834284213  0.3719932980050089  0.8448667102398063  1.0000
  N   N1        1.0  0.5179136667229899  0.9621745770263104  0.7058217938777603  1.0000
  N   N2        1.0  0.5378855536707121  0.017824849062037608  0.45572894451044027  1.0000
  N   N3        1.0  0.48208997696666245  0.037824512613013915  0.205821932083218  1.0000
  N   N4        1.0  0.4621171362311146  0.9821733826931123  0.9557297524574014  1.0000
  N   N5        1.0  0.0178249690848915  0.5378845050122578  0.5442703570262282  1.0000
  N   N6        1.0  0.9621735334823853  0.517920454500107  0.2941775798824295  1.0000
  N   N7        1.0  0.9821701654491691  0.46211683272910153  0.0442695992182749  1.0000
  N   N8        1.0  0.03782440117606001  0.48207752279996896  0.7941768493721995  1.0000
  N   N9        1.0  0.6655248383647817  0.9806635262922682  0.6027128202629088  1.0000
  N   N10       1.0  0.5193877031395219  0.1655276738963494  0.3526443073461181  1.0000
  N   N11       1.0  0.33447941756697475  0.0193341497045907  0.1027128087116367  1.0000
  N   N12       1.0  0.48061184534999063  0.8344766520909275  0.8526441004686305  1.0000
  N   N13       1.0  0.1655273046847725  0.5193896030071485  0.647354077896864  1.0000
  N   N14       1.0  0.980664179808038  0.6655241577587745  0.39728814995425676  1.0000
  N   N15       1.0  0.8344747253684092  0.4806118971853763  0.14735566950508883  1.0000
  N   N16       1.0  0.019336896586928304  0.33447523326950807  0.8972873642782844  1.0000
  N   N17       1.0  0.5060666310555036  0.5060679909458656  0.4999995425462913  1.0000
  N   N18       1.0  0.9940119513095669  0.0059885731191187  0.25000060256343204  1.0000
  N   N19       1.0  0.49393132796183187  0.49393156172389036  0.9999997614253573  1.0000
  N   N20       1.0  0.0059844583061519005  0.9940130885542189  0.7499994710391604  1.0000
  O   O1        1.0  0.7312069628089547  0.6489625708514879  0.6139277321044788  1.0000
  O   O2        1.0  0.8512475925308537  0.23104416274125583  0.3638698577674262  1.0000
  O   O3        1.0  0.2687785926174868  0.35102761446648156  0.11392773908966093  1.0000
  O   O4        1.0  0.14875703047519553  0.7689439138745015  0.8638732921911725  1.0000
  O   O5        1.0  0.23105517194727562  0.8512448830377934  0.636129270608599  1.0000
  O   O6        1.0  0.6489686259261802  0.7312148371797845  0.3860770580034441  1.0000
  O   O7        1.0  0.7689567990328431  0.14875284574165448  0.13612922064228886  1.0000
  O   O8        1.0  0.3510361346488083  0.26877202307209547  0.886067618003068  1.0000
  O   O9        1.0  0.5453264073975036  0.6255638276581122  0.6977576791373965  1.0000
  O   O10       1.0  0.8744257391040763  0.04533633399733359  0.4477666190000704  1.0000
  O   O11       1.0  0.4546696784476651  0.3744390030749543  0.1977548867513903  1.0000
  O   O12       1.0  0.125574399099321  0.9546756496835584  0.9477645991930859  1.0000
  O   O13       1.0  0.045341557586304815  0.8744289032899176  0.5522334051106342  1.0000
  O   O14       1.0  0.6255544840599755  0.5453431697280351  0.30224349587793853  1.0000
  O   O15       1.0  0.9546623856139009  0.12557494982308978  0.0522310419240313  1.0000
  O   O16       1.0  0.3744422499532832  0.45468485193075747  0.8022490654246327  1.0000
  O   O17       1.0  0.4714634922021902  0.6596530052565511  0.5133663164337535  1.0000
  O   O18       1.0  0.8404147551459289  0.9713360506830214  0.263314631850406  1.0000
  O   O19       1.0  0.5285377073274378  0.34034453000412407  0.013366078116646904  1.0000
  O   O20       1.0  0.15958549084895424  0.028660626757769602  0.7633144054236851  1.0000
  O   O21       1.0  0.9713367489370698  0.8404137142053755  0.7366859424990438  1.0000
  O   O22       1.0  0.659650717751724  0.471457376916284  0.4866308500607559  1.0000
  O   O23       1.0  0.0286620807837963  0.15958667524115808  0.2366876574256978  1.0000
  O   O24       1.0  0.3403434042488486  0.5285333953810749  0.9866324206089062  1.0000
  O   O25       1.0  0.39654589609420304  0.39655127781830407  0.5000004709832382  1.0000
  O   O26       1.0  0.10353264096232101  0.89646945827144  0.2499997784026107  1.0000
  O   O27       1.0  0.6034464614458558  0.6034512414829507  3.7224889840000013e-07  1.0000
  O   O28       1.0  0.896470025211855  0.10352970090038133  0.7499997972044598  1.0000
