data_image0
_chemical_formula_structural       FeH20C22S2N6O2
_chemical_formula_sum              "Fe1 H20 C22 S2 N6 O2"
_cell_length_a       7.209411564222829
_cell_length_b       8.697942061564122
_cell_length_c       10.053743154417848
_cell_angle_alpha    108.33191651089929
_cell_angle_beta     104.16721956091853
_cell_angle_gamma    96.4438234681543

_space_group_name_H-M_alt    "P 1"
_space_group_IT_number       1

loop_
  _space_group_symop_operation_xyz
  'x, y, z'

loop_
  _atom_site_type_symbol
  _atom_site_label
  _atom_site_symmetry_multiplicity
  _atom_site_fract_x
  _atom_site_fract_y
  _atom_site_fract_z
  _atom_site_occupancy
  Fe  Fe1       1.0  5.9648395605900004e-05  5.6833045562099994e-05  4.949900485899996e-06  1.0000
  H   H1        1.0  0.09876425555001588  0.7750278419666187  0.1276121901049691  1.0000
  H   H2        1.0  0.9012190874987669  0.22525296299935596  0.8726237903671219  1.0000
  H   H3        1.0  0.3439703191762291  0.2705946337364439  0.5433794961882937  1.0000
  H   H4        1.0  0.6559722867224025  0.7301141743989064  0.4569419671016703  1.0000
  H   H5        1.0  0.48348041223579946  0.5461385431109987  0.27506073624429916  1.0000
  H   H6        1.0  0.5170446373631991  0.4539832358144693  0.7250689478959416  1.0000
  H   H7        1.0  0.12700811512608112  0.058845875001551896  0.317331674961089  1.0000
  H   H8        1.0  0.8729698934157853  0.9415613443621281  0.6829720226269841  1.0000
  H   H9        1.0  0.264418447109783  0.3182026873644901  0.06084567421368799  1.0000
  H   H10       1.0  0.735608891143109  0.6819093429199654  0.9392644151911539  1.0000
  H   H11       1.0  0.2851954224585143  0.8535559908777302  0.09596038158226604  1.0000
  H   H12       1.0  0.7148814497767833  0.14637496747389628  0.9040344403214248  1.0000
  H   H13       1.0  0.2083405645734331  0.768102816882859  0.6085650431678147  1.0000
  H   H14       1.0  0.7913313507058604  0.23173705045172716  0.391237807793182  1.0000
  H   H15       1.0  0.8229502590595318  0.34161092248262986  0.24883189389453259  1.0000
  H   H16       1.0  0.176811802403158  0.658019467504282  0.7510771240531965  1.0000
  H   H17       1.0  0.8667641284751895  0.48887749163678507  0.08428039122084392  1.0000
  H   H18       1.0  0.13311401772924822  0.510510018296955  0.9155136277092025  1.0000
  H   H19       1.0  0.24037193903733817  0.8938392064484971  0.4281263658097457  1.0000
  H   H20       1.0  0.7593717304431211  0.1057514336974066  0.5715280227509822  1.0000
  C   C1        1.0  0.43731553786949473  0.4329331203747628  0.43358705447024454  1.0000
  C   C2        1.0  0.5630192628586457  0.567354454352234  0.5665670871997932  1.0000
  C   C3        1.0  0.3340949162326652  0.28954384360637414  0.4399737615081846  1.0000
  C   C4        1.0  0.6660445198674624  0.7108541650570501  0.5602457976043098  1.0000
  C   C5        1.0  0.4106803540936569  0.44047644735810093  0.2923397441322138  1.0000
  C   C6        1.0  0.5896850627776828  0.5597009267730684  0.7077754163662745  1.0000
  C   C7        1.0  0.21201944717403626  0.1677064971172868  0.3131560549553498  1.0000
  C   C8        1.0  0.7881343374822267  0.8326101681628444  0.6870999766108382  1.0000
  C   C9        1.0  0.2864079673248483  0.31333967203264723  0.17025374105923416  1.0000
  C   C10       1.0  0.7138640584845817  0.6868256668416564  0.8299092090302623  1.0000
  C   C11       1.0  0.2807290007971305  0.0642358125727327  0.828099892050794  1.0000
  C   C12       1.0  0.7192786225636567  0.9358346138891348  0.1716474114655425  1.0000
  C   C13       1.0  0.1274876337021595  0.6996171956514914  0.49401509353295125  1.0000
  C   C14       1.0  0.8722384288242397  0.30011029933977806  0.5058031118204838  1.0000
  C   C15       1.0  0.9134077151403306  0.46569455695438927  0.2962918429664755  1.0000
  C   C16       1.0  0.08637664853005586  0.5339379545725506  0.7035580542923582  1.0000
  C   C17       1.0  0.9382114758055383  0.5485317305342363  0.20193074394109803  1.0000
  C   C18       1.0  0.06158542171912979  0.45101034698716086  0.7978782679385787  1.0000
  C   C19       1.0  0.145439463085502  0.7723081075500248  0.39192045628588085  1.0000
  C   C20       1.0  0.8542708857254129  0.22733007347440545  0.6078342310334222  1.0000
  C   C21       1.0  0.009583980859716196  0.5413273018769759  0.4473017522301248  1.0000
  C   C22       1.0  0.9901378554371905  0.4583954921059784  0.5525582074208231  1.0000
  S   S1        1.0  0.42630733067483123  0.11276113302979947  0.7401525861431679  1.0000
  S   S2        1.0  0.573961616020938  0.8873885738738281  0.25986935965422475  1.0000
  N   N1        1.0  0.18515043778577933  0.17701257428328887  0.1780863885605868  1.0000
  N   N2        1.0  0.8151304423341375  0.8231900973232839  0.8221239434546986  1.0000
  N   N3        1.0  0.17279595124002617  0.029347546030606998  0.8909176804334962  1.0000
  N   N4        1.0  0.8272502660487222  0.9707824681660496  0.10888229089457006  1.0000
  N   N5        1.0  0.05239958172980859  0.6992192870748467  0.2476711975735241  1.0000
  N   N6        1.0  0.9473324766412292  0.300343530555395  0.7520860711467066  1.0000
  O   O1        1.0  0.1426786289482607  0.8103014440200909  0.04948776431626098  1.0000
  O   O2        1.0  0.8573258925569079  0.18989512999466737  0.950712520146176  1.0000
