data_image0
_chemical_formula_structural       Zn4H48C48N4O16
_chemical_formula_sum              "Zn4 H48 C48 N4 O16"
_cell_length_a       14.337880304277165
_cell_length_b       14.358788543337939
_cell_length_c       14.336847448388532
_cell_angle_alpha    95.548239290287
_cell_angle_beta     116.75707011114235
_cell_angle_gamma    116.89087477938531

_space_group_name_H-M_alt    "P 1"
_space_group_IT_number       1

loop_
  _space_group_symop_operation_xyz
  'x, y, z'

loop_
  _atom_site_type_symbol
  _atom_site_label
  _atom_site_symmetry_multiplicity
  _atom_site_fract_x
  _atom_site_fract_y
  _atom_site_fract_z
  _atom_site_occupancy
  Zn  Zn1       1.0  0.9739887112243792  0.5541436091138792  0.566551493646628  1.0000
  Zn  Zn2       1.0  0.9695692896062765  0.9014506342350044  0.9179791213248052  1.0000
  Zn  Zn3       1.0  0.9832420643832762  0.4014287393445953  0.4317416946077302  1.0000
  Zn  Zn4       1.0  0.9873433628239782  0.05399053333325525  0.08001150236496826  1.0000
  H   H1        1.0  0.92487088437948  0.37629946532351966  0.7730045136340492  1.0000
  H   H2        1.0  0.9926797916997642  0.880748517783047  0.4637378738773207  1.0000
  H   H3        1.0  0.13293358563822721  0.007334878128617086  0.5921586086333974  1.0000
  H   H4        1.0  0.15406722553060334  0.8537406526833704  0.49205627799432955  1.0000
  H   H5        1.0  0.041038256193686944  0.6107506616036743  0.8019199036247925  1.0000
  H   H6        1.0  0.8747007627731307  0.5331454561297021  0.7179874143278226  1.0000
  H   H7        1.0  0.3667969526389713  0.763007550097697  0.8366347647657051  1.0000
  H   H8        1.0  0.7685803978909219  0.578768756242617  0.5626995952532922  1.0000
  H   H9        1.0  0.8587287175312142  0.6973496542768202  0.541200834435216  1.0000
  H   H10       1.0  0.5982469624365193  0.47089964064731044  0.3186994634055935  1.0000
  H   H11       1.0  0.08329409030037035  0.8025002081150774  0.6544651320303956  1.0000
  H   H12       1.0  0.16101122700253964  0.7692938032085264  0.7688267482708397  1.0000
  H   H13       1.0  0.3593850723804763  0.07675793378104599  0.05477192893984307  1.0000
  H   H14       1.0  0.8494179517031667  0.8115197911806574  0.662770965576634  1.0000
  H   H15       1.0  0.7683159501089631  0.695093933449591  0.69231755946317  1.0000
  H   H16       1.0  0.5900095943768662  0.5978157718299784  0.7915604006054762  1.0000
  H   H17       1.0  0.16112233209302224  0.8971933439615398  0.8871336782986532  1.0000
  H   H18       1.0  0.0749669098488184  0.9226400688529921  0.7704080942353145  1.0000
  H   H19       1.0  0.02153276000615274  0.6942033571349879  0.09787349101603843  1.0000
  H   H20       1.0  0.9936699052483959  0.034760036069414246  0.6322162666511061  1.0000
  H   H21       1.0  0.8538724257890916  0.9083313356763367  0.503864056387016  1.0000
  H   H22       1.0  0.8033256975650996  0.983867629282315  0.6297940701099094  1.0000
  H   H23       1.0  0.882866064335843  0.6574701585084808  0.8479204443097217  1.0000
  H   H24       1.0  0.049260485131000654  0.7388451956038438  0.9278134339299912  1.0000
  H   H25       1.0  0.021634773529939335  0.5766356883069079  0.2170088916696784  1.0000
  H   H26       1.0  0.14799278820827055  0.31078796152237226  0.46220609978979604  1.0000
  H   H27       1.0  0.001748755014844482  0.19448274690032008  0.42641330602599226  1.0000
  H   H28       1.0  0.8067447565035054  0.09828554773638824  0.5080127656844199  1.0000
  H   H29       1.0  0.01058996747113382  0.39731051271660073  0.23644345225647365  1.0000
  H   H30       1.0  0.15242094724425928  0.42227075239342327  0.3481514696305084  1.0000
  H   H31       1.0  0.5960934845682642  0.19431212086200125  0.1724394833925729  1.0000
  H   H32       1.0  0.3985639049816783  0.5326910906392398  0.5392763253546916  1.0000
  H   H33       1.0  0.4021116656839324  0.40719136904230874  0.5536539028444949  1.0000
  H   H34       1.0  0.3538679543563532  0.48345468241118533  0.6807609176454363  1.0000
  H   H35       1.0  0.8090275141784246  0.15744405201967737  0.2741194997970027  1.0000
  H   H36       1.0  0.8110832351943527  0.23904489394127637  0.18931737056733758  1.0000
  H   H37       1.0  0.6032447570225443  0.8762544953518728  0.950858551664524  1.0000
  H   H38       1.0  0.42163595017813543  0.3829944418760645  0.39116743502845  1.0000
  H   H39       1.0  0.41818218150314107  0.5086847356512151  0.3764045974517032  1.0000
  H   H40       1.0  0.36153555425583034  0.3535533865637389  0.2003124832374894  1.0000
  H   H41       1.0  0.8088783392421705  0.11091433699500175  0.06954070894627055  1.0000
  H   H42       1.0  0.8146392775586192  0.03306004498642071  0.15808273241361795  1.0000
  H   H43       1.0  0.9257985438982032  0.2629640640748077  0.896134550937802  1.0000
  H   H44       1.0  0.015152996896674223  0.07816876485647842  0.30995295307575793  1.0000
  H   H45       1.0  0.1555759732832698  0.1967523926275945  0.33883705296447897  1.0000
  H   H46       1.0  0.15285693119734814  0.9710599037803146  0.37269836488940195  1.0000
  H   H47       1.0  0.14821697815969506  0.3021723571252295  0.21973026956602126  1.0000
  H   H48       1.0  0.0009436346215707825  0.2693337750113116  0.10862778565049783  1.0000
  C   C1        1.0  0.897496755079011  0.2898604916935241  0.7421936845978294  1.0000
  C   C2        1.0  0.030525594198777945  0.9501913767586669  0.5370960668618563  1.0000
  C   C3        1.0  0.12592321625956526  0.8200093768138216  0.40577467504223824  1.0000
  C   C4        1.0  0.9606080911976346  0.6182448232462787  0.759552126149316  1.0000
  C   C5        1.0  0.41661866018802846  0.7269019818822997  0.828851384763098  1.0000
  C   C6        1.0  0.8526633662468297  0.665183803049281  0.6060193078727494  1.0000
  C   C7        1.0  0.5448872092626756  0.3848089549245087  0.25976560681485944  1.0000
  C   C8        1.0  0.08028065814875172  0.7756342778250557  0.7226813763545935  1.0000
  C   C9        1.0  0.41264555555455473  0.16373681324255773  0.11163769004404864  1.0000
  C   C10       1.0  0.8504423307210299  0.7419687565639843  0.6877391998288686  1.0000
  C   C11       1.0  0.5403190183382591  0.6327208859327484  0.802154188575841  1.0000
  C   C12       1.0  0.07828775631639222  0.8560349463666839  0.80031890479939  1.0000
  C   C13       1.0  0.05185021744762964  0.7286879468954979  0.18486906907708803  1.0000
  C   C14       1.0  0.9562962352435492  0.9652832427656575  0.5591402382377665  1.0000
  C   C15       1.0  0.8295974309076897  0.06989992303269317  0.6601334199044827  1.0000
  C   C16       1.0  0.9647707244330306  0.6999026972742968  0.8422816350202851  1.0000
  C   C17       1.0  0.051979709196892356  0.6636748841175545  0.25082536032640224  1.0000
  C   C18       1.0  0.05350163264736102  0.2414210186655268  0.3914232043366184  1.0000
  C   C19       1.0  0.830856776992128  0.1330709189439361  0.5925577409545751  1.0000
  C   C20       1.0  0.05588700280557651  0.3558929030398232  0.27804773134099753  1.0000
  C   C21       1.0  0.5436117857765198  0.22874178924235616  0.17675674241858996  1.0000
  C   C22       1.0  0.40458031470169675  0.46446800686693007  0.5085452288106822  1.0000
  C   C23       1.0  0.409581245090436  0.5695813860565052  0.7403106533866719  1.0000
  C   C24       1.0  0.8573668768068642  0.19989201276388952  0.23485533651323454  1.0000
  C   C25       1.0  0.5475713200933684  0.789744499550487  0.8919291174070595  1.0000
  C   C26       1.0  0.4152470232256605  0.45118583731219536  0.4212821158102357  1.0000
  C   C27       1.0  0.41408244053470616  0.31991494410436166  0.1945237076248888  1.0000
  C   C28       1.0  0.8584509183868647  0.11821047115753193  0.15741178186245014  1.0000
  C   C29       1.0  0.8977664110599761  0.22699045627074796  0.8102881698521214  1.0000
  C   C30       1.0  0.05854144946003709  0.16465330295238803  0.31248800340243577  1.0000
  C   C31       1.0  0.1255508816563092  0.8849322024252828  0.3398850508226873  1.0000
  C   C32       1.0  0.05314160062388139  0.2754803549697584  0.1956814289630771  1.0000
  C   C33       1.0  0.8683562537091802  0.24477739658556164  0.6343239647411565  1.0000
  C   C34       1.0  0.88889210843589  0.3190969855313384  0.5692969244319742  1.0000
  C   C35       1.0  0.08566783353092686  0.707923734687796  0.3607244812458248  1.0000
  C   C36       1.0  0.0669911466416763  0.6326392109025177  0.4250973366156429  1.0000
  C   C37       1.0  0.34652641770207987  0.6174892319961314  0.7498791641742244  1.0000
  C   C38       1.0  0.20690613710338104  0.5571103481225919  0.6682795899126717  1.0000
  C   C39       1.0  0.6105824581200564  0.3386437705167251  0.25342526464870463  1.0000
  C   C40       1.0  0.7503393472252922  0.4018735711422392  0.33481185070038316  1.0000
  C   C41       1.0  0.34705160750894487  0.20792350941989912  0.12240760084635126  1.0000
  C   C42       1.0  0.20738720941550778  0.13265134128058514  0.06563169368102  1.0000
  C   C43       1.0  0.6103026259932419  0.7445295123099526  0.8761301152035373  1.0000
  C   C44       1.0  0.7496400048768879  0.8188510049545316  0.9298831716313674  1.0000
  C   C45       1.0  0.08533101876307106  0.8386638833145809  0.2278996476284547  1.0000
  C   C46       1.0  0.06700889508702082  0.9018688512980616  0.15136742453526614  1.0000
  C   C47       1.0  0.8675844921026012  0.11766672068251431  0.7709997694723685  1.0000
  C   C48       1.0  0.8887216627852653  0.05724258258659638  0.8502195494251552  1.0000
  N   N1        1.0  0.9645568679550035  0.6597695386676177  0.669306771610607  1.0000
  N   N2        1.0  0.9649095393444327  0.7927294841219137  0.8038989549261544  1.0000
  N   N3        1.0  0.9885528821040026  0.29251945993257766  0.3277785688934216  1.0000
  N   N4        1.0  0.9902306955781697  0.1595140426721073  0.1952322140028144  1.0000
  O   O1        1.0  0.8983555076199252  0.4110017497899106  0.5997941881467811  1.0000
  O   O2        1.0  0.057408483573951084  0.6645489201084016  0.5046658134357854  1.0000
  O   O3        1.0  0.151773246295825  0.5965387766983737  0.6893512657124107  1.0000
  O   O4        1.0  0.8015239730058851  0.48727013386100254  0.4201223613596312  1.0000
  O   O5        1.0  0.1480479989321282  0.04111878028362526  0.9837182744394467  1.0000
  O   O6        1.0  0.795072131647686  0.7864363339950061  0.8858921282243845  1.0000
  O   O7        1.0  0.047994428112296775  0.8631062888906769  0.0563725646139659  1.0000
  O   O8        1.0  0.8921741614141039  0.9733781136162917  0.8182107991783523  1.0000
  O   O9        1.0  0.05728650453942662  0.5410815730286203  0.39295024421839747  1.0000
  O   O10       1.0  0.9002881087729903  0.2866204586209306  0.4913494794427393  1.0000
  O   O11       1.0  0.806538065384956  0.3631644000990234  0.31498553139806523  1.0000
  O   O12       1.0  0.15501654837201775  0.4732133685610549  0.5809973277391548  1.0000
  O   O13       1.0  0.8110722478354685  0.9106910224882084  0.012386320227783233  1.0000
  O   O14       1.0  0.1596109671432586  0.1644796569429516  0.10699105687292838  1.0000
  O   O15       1.0  0.9069142086764046  0.09655390650950556  0.9447211252555193  1.0000
  O   O16       1.0  0.06707786312238555  0.9872129559984586  0.18560842110413503  1.0000
