data_image0
_chemical_formula_structural       K4Ti2H24C12N2O23
_chemical_formula_sum              "K4 Ti2 H24 C12 N2 O23"
_cell_length_a       7.712404495628153
_cell_length_b       9.81394424619977
_cell_length_c       10.70913016276639
_cell_angle_alpha    65.94797532046545
_cell_angle_beta     77.57423482351946
_cell_angle_gamma    66.64827356323498

_space_group_name_H-M_alt    "P 1"
_space_group_IT_number       1

loop_
  _space_group_symop_operation_xyz
  'x, y, z'

loop_
  _atom_site_type_symbol
  _atom_site_label
  _atom_site_symmetry_multiplicity
  _atom_site_fract_x
  _atom_site_fract_y
  _atom_site_fract_z
  _atom_site_occupancy
  K   K1        1.0  0.2726126390021406  0.025890560304844705  0.7015055431873449  1.0000
  K   K2        1.0  0.7273864448808213  0.9741124695036874  0.29849574444837396  1.0000
  K   K3        1.0  0.7831820629428848  0.055289221643604926  0.634960657922356  1.0000
  K   K4        1.0  0.2168176385268409  0.9447090536256229  0.3650423117965218  1.0000
  Ti  Ti1       1.0  0.04830525903690121  0.41555181496809734  0.8659197527329069  1.0000
  Ti  Ti2       1.0  0.951693953971066  0.5844476483083839  0.13408004726007752  1.0000
  H   H1        1.0  0.4393478090092343  0.6306065661239301  0.768810149046459  1.0000
  H   H2        1.0  0.560650917377444  0.3693940865092247  0.23118928177868273  1.0000
  H   H3        1.0  0.260478373618639  0.626284834168935  0.9065379435911749  1.0000
  H   H4        1.0  0.7395226561359891  0.37371343776311516  0.09346388719655602  1.0000
  H   H5        1.0  0.3667352557088178  0.3884275040959366  0.04954587765866585  1.0000
  H   H6        1.0  0.6332647995762459  0.6115731456498422  0.9504533477546815  1.0000
  H   H7        1.0  0.5805040081936353  0.2879939300482164  0.9716073085193315  1.0000
  H   H8        1.0  0.4194956908221242  0.7120043434217893  0.028391927122143494  1.0000
  H   H9        1.0  0.5900960215659835  0.2767231421080823  0.7695307675662946  1.0000
  H   H10       1.0  0.4099088633048494  0.7232786858946626  0.23046820055139244  1.0000
  H   H11       1.0  0.5132680652707647  0.47270105182293076  0.6529253840275332  1.0000
  H   H12       1.0  0.4867328329048988  0.5273007848419412  0.3470742003255296  1.0000
  H   H13       1.0  0.9051806297002684  0.13452841764684823  0.8788802530158577  1.0000
  H   H14       1.0  0.09481809668640995  0.8654722349862994  0.1211191778092839  1.0000
  H   H15       1.0  0.8796169886919215  0.9664326242264281  0.9232551942807916  1.0000
  H   H16       1.0  0.12038222431604587  0.033566839050053005  0.07674460571219302  1.0000
  H   H17       1.0  0.9333419101810491  0.36002638046620933  0.6149882888454171  1.0000
  H   H18       1.0  0.06665137148706872  0.6399778502484994  0.38501345126963554  1.0000
  H   H19       1.0  0.9463158367789787  0.34782589814124515  0.47129611780270864  1.0000
  H   H20       1.0  0.05368204917106564  0.6521735693720316  0.5287066881601206  1.0000
  H   H21       1.0  0.6229566057000965  0.7726591541553565  0.553070273050629  1.0000
  H   H22       1.0  0.3770426066943812  0.22734030867132302  0.446928593423003  1.0000
  H   H23       1.0  0.7585934773637888  0.7505003113318197  0.6546049448443299  1.0000
  H   H24       1.0  0.2414052490228897  0.24950034130132784  0.34539448598081174  1.0000
  C   C1        1.0  0.1526843046996404  0.7044015727984033  0.7149384184188036  1.0000
  C   C2        1.0  0.8473145538794924  0.29559551555172453  0.285064192360359  1.0000
  C   C3        1.0  0.31095680507834794  0.5996708468428481  0.8117279207911707  1.0000
  C   C4        1.0  0.6890424085431092  0.4003286168834351  0.18827281272115928  1.0000
  C   C5        1.0  0.36371269428127556  0.17947742575083944  0.03931148226197928  1.0000
  C   C6        1.0  0.6362860321054028  0.8205232268823155  0.9606879485631622  1.0000
  C   C7        1.0  0.42540656897088525  0.3242617066963405  0.9775966831258032  1.0000
  C   C8        1.0  0.5745921574157862  0.6757389459368144  0.022402747699338435  1.0000
  C   C9        1.0  0.35793052456876495  0.33232690359471223  0.657445760772049  1.0000
  C   C10       1.0  0.6420735167979855  0.6676737370391308  0.3425519148865703  1.0000
  C   C11       1.0  0.46233719318093575  0.3789132168704584  0.7297915632833424  1.0000
  C   C12       1.0  0.5376668487993045  0.6210874242131867  0.2702070458946223  1.0000
  N   N1        1.0  0.346448552724702  0.4304086577623211  0.8429437270708887  1.0000
  N   N2        1.0  0.6535533180800427  0.5695907997394088  0.1570556620985072  1.0000
  O   O1        1.0  0.030959401775618154  0.642435293352172  0.7162048812074246  1.0000
  O   O2        1.0  0.9690389695687357  0.35756298390482044  0.2837964268845425  1.0000
  O   O3        1.0  0.14147613642941767  0.8441257144128972  0.6417768276756703  1.0000
  O   O4        1.0  0.858521750134116  0.15587375355018207  0.35822691180651134  1.0000
  O   O5        1.0  0.2147318055943614  0.19294293836979654  0.9904564769851091  1.0000
  O   O6        1.0  0.7852669201788272  0.807057713813542  0.009542020320679854  1.0000
  O   O7        1.0  0.448466719275892  0.060740647081090116  0.1353922829348093  1.0000
  O   O8        1.0  0.5515301922045949  0.9392611982459159  0.8646079176536361  1.0000
  O   O9        1.0  0.1870821789083336  0.3393316838404418  0.7020456410470574  1.0000
  O   O10       1.0  0.8129246518341585  0.660665386285821  0.29795387022264197  1.0000
  O   O11       1.0  0.4445848599755493  0.2858031733640942  0.5603412232842757  1.0000
  O   O12       1.0  0.5554196680124903  0.7141962779130752  0.4396568215421863  1.0000
  O   O13       1.0  0.8707087944017856  0.3088115373856369  0.9100023567059522  1.0000
  O   O14       1.0  0.12929210254689136  0.6911902983796312  0.0899953606084125  1.0000
  O   O15       1.0  0.8086172218612118  0.4676183604703611  0.802631484745632  1.0000
  O   O16       1.0  0.1913868176650623  0.5323822788140619  0.197363390354937  1.0000
  O   O17       1.0  0.9999999969379229  0.49999990187254895  2.0035092517767806e-07  1.0000
  O   O18       1.0  0.9355066749979669  0.04230129935196912  0.85147971963184  1.0000
  O   O19       1.0  0.06449338028709659  0.9576993503938026  0.14851950578150758  1.0000
  O   O20       1.0  0.9137141482753464  0.2998399754765585  0.5690144648434767  1.0000
  O   O21       1.0  0.08627829111566135  0.7001630687688589  0.43098784985120625  1.0000
  O   O22       1.0  0.6463995468666609  0.827617759936409  0.6042927092243886  1.0000
  O   O23       1.0  0.35359833846989364  0.17238170712705886  0.3957091632190881  1.0000
