data_image0
_chemical_formula_structural       Zn4H44C56N12O20
_chemical_formula_sum              "Zn4 H44 C56 N12 O20"
_cell_length_a       9.139191016473536
_cell_length_b       10.758495157901958
_cell_length_c       18.50958486382549
_cell_angle_alpha    76.98770700621135
_cell_angle_beta     75.72110408193988
_cell_angle_gamma    64.8769609893995

_space_group_name_H-M_alt    "P 1"
_space_group_IT_number       1

loop_
  _space_group_symop_operation_xyz
  'x, y, z'

loop_
  _atom_site_type_symbol
  _atom_site_label
  _atom_site_symmetry_multiplicity
  _atom_site_fract_x
  _atom_site_fract_y
  _atom_site_fract_z
  _atom_site_occupancy
  Zn  Zn1       1.0  0.4910698387182323  0.9736666696003194  0.7999862513265514  1.0000
  Zn  Zn2       1.0  0.2647530824574813  0.5262983596698021  0.7000572787092879  1.0000
  Zn  Zn3       1.0  0.5089300972605884  0.026333904240189603  0.20001359628702897  1.0000
  Zn  Zn4       1.0  0.7352473321026026  0.47370117774701725  0.29994264798564546  1.0000
  H   H1        1.0  0.6381728936476279  0.12024754669288738  0.9251818629330872  1.0000
  H   H2        1.0  0.6834540964155523  0.3797667298916706  0.5748621169394356  1.0000
  H   H3        1.0  0.361826977916941  0.8797519939880304  0.07481860353394865  1.0000
  H   H4        1.0  0.31654322025266163  0.6202338528148913  0.4251392116127947  1.0000
  H   H5        1.0  0.13115135590124524  0.202092149693101  0.8526105207727143  1.0000
  H   H6        1.0  0.18565349670564046  0.29797024265037214  0.6472834125688892  1.0000
  H   H7        1.0  0.8688486757445376  0.797908416693012  0.14738810891898185  1.0000
  H   H8        1.0  0.8143448415393524  0.7020293003684228  0.35271745529259163  1.0000
  H   H9        1.0  0.038867792354402186  0.8300744004957253  0.7821143948829957  1.0000
  H   H10       1.0  0.6511878477130112  0.6699511305020351  0.7179912489432357  1.0000
  H   H11       1.0  0.9611331652011972  0.16992513365701  0.21788499203982803  1.0000
  H   H12       1.0  0.3488135571711411  0.33004840784099804  0.28200881612935563  1.0000
  H   H13       1.0  0.31798902087088987  0.817750092896496  0.7793209047348172  1.0000
  H   H14       1.0  0.9152767470916318  0.6821329149681503  0.7207989803410302  1.0000
  H   H15       1.0  0.6820096062838132  0.18225254214667788  0.2206768886444054  1.0000
  H   H16       1.0  0.0847231557256478  0.31786558509877955  0.2792008870575914  1.0000
  H   H17       1.0  0.5400984339084758  0.7945373998892079  0.5986341929594874  1.0000
  H   H18       1.0  0.9331068710560116  0.7055570791260025  0.901421136981867  1.0000
  H   H19       1.0  0.4599049184622715  0.20546006653267312  0.40136616865347474  1.0000
  H   H20       1.0  0.06689060569341625  0.29444452928576226  0.09857835479503055  1.0000
  H   H21       1.0  0.45276647131976216  0.22634527908285662  0.5338232944691087  1.0000
  H   H22       1.0  0.21300845057945134  0.2737698464754316  0.9661066225651286  1.0000
  H   H23       1.0  0.5472363380554695  0.7736521906031157  0.46617760691596305  1.0000
  H   H24       1.0  0.7869919639806326  0.7262296909413948  0.03389330412979779  1.0000
  H   H25       1.0  0.5089349799029818  0.580501097831082  0.8626819702151781  1.0000
  H   H26       1.0  0.9522848073408381  0.919678306751422  0.6373420007753696  1.0000
  H   H27       1.0  0.4910700346158449  0.4194984325721053  0.13731675229642806  1.0000
  H   H28       1.0  0.047710593093491134  0.08032330726231149  0.36265843216807536  1.0000
  H   H29       1.0  0.4882660961488059  0.6534012970964014  0.08538963146497751  1.0000
  H   H30       1.0  0.2269801378554629  0.846545600607108  0.41467369009659905  1.0000
  H   H31       1.0  0.5117363303121251  0.3465972015588577  0.9146099729168713  1.0000
  H   H32       1.0  0.7730157411601297  0.1534549769829425  0.5853268219281917  1.0000
  H   H33       1.0  0.3882821717409184  0.20282926224601994  0.8639871860569388  1.0000
  H   H34       1.0  0.4550335340961311  0.2972017493230227  0.6359983815352666  1.0000
  H   H35       1.0  0.6117177642379091  0.7971713115944823  0.13601266155663452  1.0000
  H   H36       1.0  0.5449673922067576  0.7027988254436933  0.3640016044559787  1.0000
  H   H37       1.0  0.4365120610709066  0.04752345904285699  0.9250880599576523  1.0000
  H   H38       1.0  0.4090594329876115  0.45255971039978243  0.574919050858732  1.0000
  H   H39       1.0  0.5634888964846925  0.9524760751098783  0.07491132696517169  1.0000
  H   H40       1.0  0.5909408859055104  0.547439834471426  0.4250820937580786  1.0000
  H   H41       1.0  0.8423121310394067  0.2263172782167189  0.8645765832986503  1.0000
  H   H42       1.0  0.9329039987528915  0.2737855484724605  0.6354278479098454  1.0000
  H   H43       1.0  0.15768726194389884  0.7736832988878746  0.13542380408703286  1.0000
  H   H44       1.0  0.06709641580719244  0.7262139889443588  0.36457207878508774  1.0000
  C   C1        1.0  0.49211097020817374  0.7748822473491687  0.9374370563274825  1.0000
  C   C2        1.0  0.20460085423311383  0.7252035369181158  0.5626006014631599  1.0000
  C   C3        1.0  0.5078915850812535  0.22511831762527384  0.06256131034744075  1.0000
  C   C4        1.0  0.7953955677779946  0.2747970374078506  0.43739937078952834  1.0000
  C   C5        1.0  0.4968302611814293  0.6329935742214448  0.9705111180098956  1.0000
  C   C6        1.0  0.10037799301285598  0.8670770227101626  0.5295181239854473  1.0000
  C   C7        1.0  0.5031712393696851  0.3670059566671995  0.029487729140825578  1.0000
  C   C8        1.0  0.8996178860027371  0.13292355487989482  0.4704823880393507  1.0000
  C   C9        1.0  0.7526638143350294  0.03502439164392971  0.8225467919764856  1.0000
  C   C10       1.0  0.6101515948002285  0.4650687516636721  0.6774823347925081  1.0000
  C   C11       1.0  0.24733653581080267  0.9649741126132978  0.1774537535719035  1.0000
  C   C12       1.0  0.38984307321349837  0.5349359949104909  0.32252165305017416  1.0000
  C   C13       1.0  0.1048907298642945  0.12004278196265257  0.8399223584480141  1.0000
  C   C14       1.0  0.06473402021144618  0.3799815634226533  0.6600638058074753  1.0000
  C   C15       1.0  0.8951098135242931  0.8799588217733497  0.16007633054000098  1.0000
  C   C16       1.0  0.9352668416771908  0.6200179781844708  0.3399367990372257  1.0000
  C   C17       1.0  0.05352135654365493  0.913775307377655  0.7993013986716665  1.0000
  C   C18       1.0  0.7666374604019737  0.5862520163817919  0.7007697697965157  1.0000
  C   C19       1.0  0.9464771105298342  0.08622630196032328  0.20069823148289614  1.0000
  C   C20       1.0  0.23336148525278597  0.4137485565325035  0.2992299394393997  1.0000
  C   C21       1.0  0.49143730216511  0.0220718466091157  0.6537889307132406  1.0000
  C   C22       1.0  0.16728756367582073  0.47811168197760157  0.8462263001967117  1.0000
  C   C23       1.0  0.5085650286288511  0.9779266595005328  0.3462118915904783  1.0000
  C   C24       1.0  0.8327114483020139  0.5218930384838387  0.15377336946912137  1.0000
  C   C25       1.0  0.2094761097523661  0.9066052010102792  0.7975168893439178  1.0000
  C   C26       1.0  0.9136852114643123  0.5933558827747873  0.7025522047471074  1.0000
  C   C27       1.0  0.7905239550549582  0.09339743914940611  0.20248172056274444  1.0000
  C   C28       1.0  0.08631424593324513  0.4066457274893978  0.29744756378511994  1.0000
  C   C29       1.0  0.49649133773581156  0.0111699370132001  0.57426566144504  1.0000
  C   C30       1.0  0.08192075940860369  0.4889511740595651  0.9257390411977443  1.0000
  C   C31       1.0  0.5035099364110068  0.9888244206230894  0.42573506205109635  1.0000
  C   C32       1.0  0.9180778033318477  0.511050427824017  0.07425937103493412  1.0000
  C   C33       1.0  0.5236676959249779  0.8835428542566672  0.5548787245536462  1.0000
  C   C34       1.0  0.96201785156002  0.6165130553930709  0.9451515667827838  1.0000
  C   C35       1.0  0.47633511154142355  0.11645150104174463  0.44512159754804526  1.0000
  C   C36       1.0  0.037982115671518164  0.3834864778334506  0.05484768176237514  1.0000
  C   C37       1.0  0.4725861324598028  0.12746363921225878  0.5189245582280366  1.0000
  C   C38       1.0  0.11906423680190402  0.37261791449067516  0.9810532994305208  1.0000
  C   C39       1.0  0.5274157178440718  0.872532788933519  0.4810756057109559  1.0000
  C   C40       1.0  0.8809352518483639  0.6273826551595293  0.01894587003328514  1.0000
  C   C41       1.0  0.5056119493953587  0.5446474137295921  0.922769221126224  1.0000
  C   C42       1.0  0.9731311305523532  0.9554389894860337  0.5772504252421202  1.0000
  C   C43       1.0  0.4943904770655649  0.4553510849256667  0.07723038325561765  1.0000
  C   C44       1.0  0.0268636937249197  0.0445605540182186  0.4227505672584685  1.0000
  C   C45       1.0  0.4914930051479163  0.5871098727006441  0.04786291020784728  1.0000
  C   C46       1.0  0.12639302483449194  0.9128767332035752  0.45215408269160673  1.0000
  C   C47       1.0  0.5085090715602548  0.41289172869748114  0.952135377385723  1.0000
  C   C48       1.0  0.8736003305374571  0.0871238457981462  0.5478466923499641  1.0000
  C   C49       1.0  0.9439182425787819  0.13358888633535318  0.8457454947124889  1.0000
  C   C50       1.0  0.9230734994464955  0.3664694369743343  0.654271757787079  1.0000
  C   C51       1.0  0.056081181657234115  0.8664106501552595  0.15425429360477952  1.0000
  C   C52       1.0  0.07692490321274906  0.6335311392040451  0.34572849122093885  1.0000
  C   C53       1.0  0.9178078047703836  0.028918352006044798  0.8242238696155229  1.0000
  C   C54       1.0  0.7708663122176989  0.47115819845676304  0.6758257409790718  1.0000
  C   C55       1.0  0.08219363327530976  0.9710832601105607  0.1757761756720343  1.0000
  C   C56       1.0  0.2291336237611219  0.528842375383739  0.3241741066345086  1.0000
  N   N1        1.0  0.6268689999670439  0.0991159314480612  0.8749425816891975  1.0000
  N   N2        1.0  0.6008095335190402  0.40096342087279874  0.6250894659845231  1.0000
  N   N3        1.0  0.37313039301626844  0.900884645656532  0.12505780569648564  1.0000
  N   N4        1.0  0.3991904649652014  0.5990350717397418  0.3749091834922142  1.0000
  N   N5        1.0  0.23521456110765335  0.008718204382638801  0.816385934214161  1.0000
  N   N6        1.0  0.0603134927228481  0.4912551122865381  0.683630266875099  1.0000
  N   N7        1.0  0.7647845133756025  0.9912844348508397  0.18361253731483648  1.0000
  N   N8        1.0  0.9396863788417207  0.5087444283943724  0.316370199591937  1.0000
  N   N9        1.0  0.4719225462594422  0.10095715914668088  0.8746810119824817  1.0000
  N   N10       1.0  0.44747768353386863  0.3990883120693169  0.6253275503788064  1.0000
  N   N11       1.0  0.5280774209720889  0.8990423740798408  0.12531823656267707  1.0000
  N   N12       1.0  0.5525170782379831  0.6009133126628968  0.3746746402586184  1.0000
  O   O1        1.0  0.7360797907708306  0.9816306275566831  0.7729911747031226  1.0000
  O   O2        1.0  0.490653080615978  0.5184659156013893  0.7270315352899107  1.0000
  O   O3        1.0  0.2639211355320583  0.0183699472100329  0.22700881128812264  1.0000
  O   O4        1.0  0.5093495390877013  0.4815356825326447  0.27296621253155723  1.0000
  O   O5        1.0  0.549802490881568  0.7895086141561976  0.8670011754098257  1.0000
  O   O6        1.0  0.20614945588041414  0.7104971585910391  0.6330900737554971  1.0000
  O   O7        1.0  0.4502009590649721  0.21049195919884775  0.1329985475646468  1.0000
  O   O8        1.0  0.7938505113511168  0.28950237463548234  0.36690917478966895  1.0000
  O   O9        1.0  0.43181651635215  0.8707327425001522  0.9788981947622803  1.0000
  O   O10       1.0  0.2820648408126658  0.6294950416036826  0.5210767796688318  1.0000
  O   O11       1.0  0.5681829410454071  0.1292688677640328  0.021101573769946976  1.0000
  O   O12       1.0  0.7179326359367624  0.370506566808082  0.47892271210805876  1.0000
  O   O13       1.0  0.5326964900503341  0.908771972307271  0.6996738545348367  1.0000
  O   O14       1.0  0.14125892019784897  0.5914094654018242  0.800360867020338  1.0000
  O   O15       1.0  0.46730485041956643  0.09122653287617061  0.30032682939121713  1.0000
  O   O16       1.0  0.8587415587764867  0.4085911051745867  0.19963844082113286  1.0000
  O   O17       1.0  0.444587044118606  0.13931644559610848  0.6750777623165122  1.0000
  O   O18       1.0  0.2588778064058203  0.3608571168238369  0.8249329496661987  1.0000
  O   O19       1.0  0.5554148705995202  0.8606810157092611  0.3249217827690175  1.0000
  O   O20       1.0  0.7411237273068353  0.6391444878383793  0.1750658776994741  1.0000
