data_image0
_chemical_formula_structural       Zn4H16C48N4O25F10
_chemical_formula_sum              "Zn4 H16 C48 N4 O25 F10"
_cell_length_a       17.79966464186807
_cell_length_b       19.34106506315656
_cell_length_c       19.074641941561946
_cell_angle_alpha    94.50377972710702
_cell_angle_beta     104.58284868532081
_cell_angle_gamma    99.55696053209371

_space_group_name_H-M_alt    "P 1"
_space_group_IT_number       1

loop_
  _space_group_symop_operation_xyz
  'x, y, z'

loop_
  _atom_site_type_symbol
  _atom_site_label
  _atom_site_symmetry_multiplicity
  _atom_site_fract_x
  _atom_site_fract_y
  _atom_site_fract_z
  _atom_site_occupancy
  Zn  Zn1       1.0  0.43417044061897775  0.5494552700201395  0.5445817682436882  1.0000
  Zn  Zn2       1.0  0.5732101897618307  0.4542877028314437  0.567136257757241  1.0000
  Zn  Zn3       1.0  0.5679316742273031  0.5723030720547725  0.46666549583839156  1.0000
  Zn  Zn4       1.0  0.4311746054371072  0.4266307526496221  0.42203134307871437  1.0000
  H   H1        1.0  0.9450921377280042  0.7108722712236998  0.6154064570226723  1.0000
  H   H2        1.0  0.7595244763658543  0.43977198813073676  0.5533379007629335  1.0000
  H   H3        1.0  0.554879237545066  0.4268096357066539  0.9699203927054041  1.0000
  H   H4        1.0  0.4819364613699691  0.3684349717894264  0.03340941144695357  1.0000
  H   H5        1.0  0.46136711263571334  0.6133168356189173  0.7101328636218583  1.0000
  H   H6        1.0  0.43684949989684446  0.655692317906592  0.8595899018748979  1.0000
  H   H7        1.0  0.05426797322320445  0.7096794203493885  0.6463073506995016  1.0000
  H   H8        1.0  0.8169261568680356  0.39831487532492826  0.37418700650128756  1.0000
  H   H9        1.0  0.36668710044527586  0.748888925661639  0.5243834478792166  1.0000
  H   H10       1.0  0.8005500776442035  0.6760267169280423  0.5950844027723149  1.0000
  H   H11       1.0  0.20244840781034412  0.517339830047817  0.5293864609083272  1.0000
  H   H12       1.0  0.9290539976142684  0.32798907311403264  0.3207084355651587  1.0000
  H   H13       1.0  0.37733054099632574  0.2500470223576627  0.4116416342159965  1.0000
  H   H14       1.0  0.3826604590957885  0.016220283384647895  0.45020135312947923  1.0000
  H   H15       1.0  0.5908172695581514  0.7381018715325423  0.45489149880725677  1.0000
  H   H16       1.0  0.5771780289147515  0.41998559027076254  0.7337564081712388  1.0000
  C   C1        1.0  0.5018976092417021  0.3103966676754625  0.48576153605313266  1.0000
  C   C2        1.0  0.08116346301210337  0.573971516997858  0.5605779769246055  1.0000
  C   C3        1.0  0.04238719084383994  0.6225033785913893  0.586071865433432  1.0000
  C   C4        1.0  0.48238362838760906  0.68651897944347  0.49599627138018576  1.0000
  C   C5        1.0  0.9586666302278531  0.6060043757598876  0.5738550941460119  1.0000
  C   C6        1.0  0.9186467223319144  0.5366070246906531  0.540323798795086  1.0000
  C   C7        1.0  0.9159271238680873  0.6562006635895797  0.5947912661609251  1.0000
  C   C8        1.0  0.8357047095994475  0.6372841344844388  0.5847615607302216  1.0000
  C   C9        1.0  0.8414044293060386  0.5140348190895452  0.5497559498024244  1.0000
  C   C10       1.0  0.4761633623694409  0.7612119488453147  0.49237349535614067  1.0000
  C   C11       1.0  0.5348833117026999  0.8085687628696973  0.472383344217178  1.0000
  C   C12       1.0  0.154235960091917  0.3824404219265887  0.3931294968050381  1.0000
  C   C13       1.0  0.5281425689500097  0.8800035846014754  0.47255156785292474  1.0000
  C   C14       1.0  0.46401381239647327  0.9050257546065977  0.48873268446836693  1.0000
  C   C15       1.0  0.4054032032928347  0.8551298375345553  0.5055330237533724  1.0000
  C   C16       1.0  0.5191964440104401  0.5149893497684773  0.6903397281429733  1.0000
  C   C17       1.0  0.4114263184991245  0.7855148733274787  0.5090655151703274  1.0000
  C   C18       1.0  0.4360149686758348  0.11073455431086641  0.4616794226872614  1.0000
  C   C19       1.0  0.4355985268968824  0.18306522279895177  0.45254957577687804  1.0000
  C   C20       1.0  0.5079616904899282  0.09018559746400709  0.4969033567133678  1.0000
  C   C21       1.0  0.5051633705688945  0.23437273539065026  0.4835618168736033  1.0000
  C   C22       1.0  0.5765694819987246  0.21243669596119472  0.5174185252976499  1.0000
  C   C23       1.0  0.16399789474363052  0.47666368634268264  0.4876141403843519  1.0000
  C   C24       1.0  0.578259471994926  0.1423843573694725  0.5233647856208563  1.0000
  C   C25       1.0  0.5177695400612877  0.4922204310391082  0.24292553882573736  1.0000
  C   C26       1.0  0.5363502077759392  0.5545253105922114  0.2122967651223178  1.0000
  C   C27       1.0  0.5351542768959519  0.5528882304663156  0.13905231277101388  1.0000
  C   C28       1.0  0.5141946938239315  0.49476070064069677  0.32045869073787253  1.0000
  C   C29       1.0  0.5171110439765556  0.4877717476976358  0.0938065206487195  1.0000
  C   C30       1.0  0.5000385786247322  0.4243066267874197  0.12423333985442037  1.0000
  C   C31       1.0  0.5000356814032189  0.4278021777057291  0.19758516210049495  1.0000
  C   C32       1.0  0.5397884494972159  0.466741686552872  0.8819522022311546  1.0000
  C   C33       1.0  0.5459266621221914  0.4655308732224341  0.8098184742252171  1.0000
  C   C34       1.0  0.08133041384576246  0.46664725962701675  0.47527730212550523  1.0000
  C   C35       1.0  0.5080513947073017  0.5214233541616479  0.9126999847008861  1.0000
  C   C36       1.0  0.5177049349428984  0.5176516771819591  0.7667617638115658  1.0000
  C   C37       1.0  0.48585964444721  0.5716748412161223  0.7977285594281582  1.0000
  C   C38       1.0  0.481796103692382  0.5742252628899679  0.8697785732866663  1.0000
  C   C39       1.0  0.713171495564204  0.5458965153975724  0.5572421813536934  1.0000
  C   C40       1.0  0.28878792453043195  0.4549313852253291  0.4631600668199241  1.0000
  C   C41       1.0  0.20160201722244148  0.43686246776198345  0.44799732311791723  1.0000
  C   C42       1.0  0.7979142343460313  0.565609463920538  0.5650053949093419  1.0000
  C   C43       1.0  0.0734066561257762  0.3705489428081279  0.3808514429110232  1.0000
  C   C44       1.0  0.03371861364593798  0.41065339435803594  0.4195061411461438  1.0000
  C   C45       1.0  0.04184579119727515  0.510335229679164  0.5138245346447974  1.0000
  C   C46       1.0  0.9577792524374474  0.49359988473453603  0.5014530333568032  1.0000
  C   C47       1.0  0.9136888331516532  0.44137910590023216  0.4417307979673382  1.0000
  C   C48       1.0  0.9504805878434014  0.4004863551741806  0.40289789561657585  1.0000
  N   N1        1.0  0.4526367258359869  0.9746250581346985  0.4847824729589689  1.0000
  N   N2        1.0  0.5164707386687653  0.021698715274908402  0.5059363152529811  1.0000
  N   N3        1.0  0.5181427902709715  0.4782808311637793  0.020981814017773073  1.0000
  N   N4        1.0  0.5020938981640057  0.5289440912874426  0.9832333021621054  1.0000
  O   O1        1.0  0.4999454749408372  0.49898127921443336  0.49982153909208893  1.0000
  O   O2        1.0  0.6844239927375997  0.48102719356151635  0.5640209314703171  1.0000
  O   O3        1.0  0.32072465062891803  0.42711856717525604  0.41795362667338043  1.0000
  O   O4        1.0  0.669998286897858  0.5923383307044504  0.5425434200312366  1.0000
  O   O5        1.0  0.32563749803801295  0.49855596955632814  0.520537573247573  1.0000
  O   O6        1.0  0.8991666072767045  0.3546514881681234  0.3455961534039814  1.0000
  O   O7        1.0  0.36639254465512755  0.1988349381729435  0.4168194583295701  1.0000
  O   O8        1.0  0.36862608629252247  0.0635313154822583  0.4366126217451409  1.0000
  O   O9        1.0  0.5974965186664606  0.7902347621071115  0.45378368884557563  1.0000
  O   O10       1.0  0.5771826764172161  0.41279907297776924  0.7847266715577063  1.0000
  O   O11       1.0  0.8132580947115714  0.4448357643712769  0.5451765490779509  1.0000
  O   O12       1.0  0.4863944720287776  0.5592738837080516  0.6515589889447497  1.0000
  O   O13       1.0  0.5655736750485048  0.41613772607897204  0.9211154806731302  1.0000
  O   O14       1.0  0.481880837646088  0.360194904956039  0.08348914037343041  1.0000
  O   O15       1.0  0.4578782030864375  0.6238213565767124  0.7610654757774711  1.0000
  O   O16       1.0  0.45137501940322283  0.6260887172601955  0.8983584150271753  1.0000
  O   O17       1.0  0.08717076899998223  0.6847863252950078  0.6236713921877522  1.0000
  O   O18       1.0  0.834278530506751  0.4350705016830218  0.41643658757708824  1.0000
  O   O19       1.0  0.45758519942017273  0.4520477613152495  0.3322990305535071  1.0000
  O   O20       1.0  0.5527708791262995  0.3527011567336018  0.5361334697199212  1.0000
  O   O21       1.0  0.537827357331544  0.6654373520872666  0.47191183244215296  1.0000
  O   O22       1.0  0.4455286991657631  0.32844805542028865  0.4374452502499722  1.0000
  O   O23       1.0  0.4342971755282008  0.6470258747736822  0.5221031491136544  1.0000
  O   O24       1.0  0.5530082571177601  0.4686090935317041  0.6644108656551779  1.0000
  O   O25       1.0  0.5676566242808647  0.5397595786048086  0.3670682703136663  1.0000
  F   F1        1.0  0.34273771327713126  0.8787343852066344  0.5206719324294937  1.0000
  F   F2        1.0  0.16145711876847457  0.5933567106820661  0.5788609640597571  1.0000
  F   F3        1.0  0.6454172593921967  0.2597212863376654  0.5421164894188379  1.0000
  F   F4        1.0  0.5837336251239408  0.9234125467374243  0.45188613836631925  1.0000
  F   F5        1.0  0.6471266823021936  0.12286467017933234  0.5541210548099186  1.0000
  F   F6        1.0  0.48368561825286355  0.3661422956746705  0.22446915124610453  1.0000
  F   F7        1.0  0.5547047228972204  0.6143941872078925  0.113556274806605  1.0000
  F   F8        1.0  0.553122848650638  0.6183370745213281  0.253080940408978  1.0000
  F   F9        1.0  0.029808370593094873  0.3164283300587911  0.3274384485230613  1.0000
  F   F10       1.0  0.18499396138207663  0.34042847161270373  0.3527034219742831  1.0000
