data_image0
_chemical_formula_structural       Mg6H30C30O24
_chemical_formula_sum              "Mg6 H30 C30 O24"
_cell_length_a       6.879272670261042
_cell_length_b       15.151513286490779
_cell_length_c       15.147170688236278
_cell_angle_alpha    117.80371696554664
_cell_angle_beta     98.70685969831449
_cell_angle_gamma    98.6924621676005

_space_group_name_H-M_alt    "P 1"
_space_group_IT_number       1

loop_
  _space_group_symop_operation_xyz
  'x, y, z'

loop_
  _atom_site_type_symbol
  _atom_site_label
  _atom_site_symmetry_multiplicity
  _atom_site_fract_x
  _atom_site_fract_y
  _atom_site_fract_z
  _atom_site_occupancy
  Mg  Mg1       1.0  0.6212497216774507  0.32223398298942385  0.5850751372994553  1.0000
  Mg  Mg2       1.0  0.03595767362908486  0.41476021052452694  0.73687701324112  1.0000
  Mg  Mg3       1.0  0.299018589391487  0.2630595764993586  0.6775260604936905  1.0000
  Mg  Mg4       1.0  0.37875033421540405  0.6777653297014511  0.4149265349218468  1.0000
  Mg  Mg5       1.0  0.964051944010869  0.5852406429518027  0.2631233723014788  1.0000
  Mg  Mg6       1.0  0.7009803979607412  0.7369405084438158  0.3224772221555838  1.0000
  H   H1        1.0  0.8667044984942297  0.560788529300858  0.021105286991051794  1.0000
  H   H2        1.0  0.8456981334341979  0.979031450255093  0.5399274056969434  1.0000
  H   H3        1.0  0.30528431880947693  0.45967356917783775  0.43872411319804894  1.0000
  H   H4        1.0  0.13330727446742696  0.43920769891563793  0.9788977013970525  1.0000
  H   H5        1.0  0.1542964195285563  0.0209655518978948  0.4600781034353504  1.0000
  H   H6        1.0  0.6947110996379849  0.5403195683926043  0.5612677637470399  1.0000
  H   H7        1.0  0.5049499934737015  0.2823481838246877  0.359759191974824  1.0000
  H   H8        1.0  0.1456298566628293  0.6403582376903005  0.9223348525305114  1.0000
  H   H9        1.0  0.2225676195021293  0.07801718497646701  0.7177969755649088  1.0000
  H   H10       1.0  0.4950243022914339  0.7176580812497451  0.6402585453573908  1.0000
  H   H11       1.0  0.8544029559843979  0.3596510916871694  0.07765782814199441  1.0000
  H   H12       1.0  0.7774184466021765  0.9219805861801262  0.2822043689456564  1.0000
  H   H13       1.0  0.6171060096101257  0.18253161616791397  0.2820832680354499  1.0000
  H   H14       1.0  0.3352751803079813  0.7176516407528268  0.8998457797417885  1.0000
  H   H15       1.0  0.43449722834253635  0.10046534349456951  0.8177420363545096  1.0000
  H   H16       1.0  0.3828533921462239  0.8174746394082109  0.7179182925964442  1.0000
  H   H17       1.0  0.6647595764088694  0.2823499706058641  0.10013682107399555  1.0000
  H   H18       1.0  0.5654822089179207  0.8995308863754943  0.18226012889409293  1.0000
  H   H19       1.0  0.7617403771218393  0.31555487450367553  0.3546345243001953  1.0000
  H   H20       1.0  0.4075289860149312  0.6453360185624109  0.9604792394594244  1.0000
  H   H21       1.0  0.44616174460866637  0.0395749846987314  0.684679950569965  1.0000
  H   H22       1.0  0.23822602455093295  0.6844506112476267  0.645369781566302  1.0000
  H   H23       1.0  0.5925062774129728  0.3546694521981806  0.03950915972886552  1.0000
  H   H24       1.0  0.5538262022505975  0.9604235590664771  0.3153238603138676  1.0000
  H   H25       1.0  0.8533844394986898  0.2526163157198694  0.4577704090892141  1.0000
  H   H26       1.0  0.39527440933861874  0.5418005135324009  0.7942237902183394  1.0000
  H   H27       1.0  0.600748658866287  0.2056435566903474  0.7474363051836692  1.0000
  H   H28       1.0  0.1466088090828778  0.7473783646403476  0.5422220449398552  1.0000
  H   H29       1.0  0.604739320388724  0.4581941607480218  0.20576143656809623  1.0000
  H   H30       1.0  0.39924198915841225  0.7943573049731045  0.2525747098176583  1.0000
  C   C1        1.0  0.679323336639783  0.43820422494984973  0.8252783072632042  1.0000
  C   C2        1.0  0.8539315315258448  0.17468964643994414  0.6126193153427835  1.0000
  C   C3        1.0  0.24086994968004666  0.3869958209783775  0.5615799992115029  1.0000
  C   C4        1.0  0.32069058794731126  0.5617935412321132  0.1747182803394837  1.0000
  C   C5        1.0  0.14606039218880096  0.8253081232857795  0.38738043634344876  1.0000
  C   C6        1.0  0.7591278953660989  0.6130050323587568  0.4384189453788424  1.0000
  C   C7        1.0  0.5803372535335074  0.4665179893376816  0.9123797701779496  1.0000
  C   C8        1.0  0.6678830619751607  0.0876154720140008  0.5540082055744762  1.0000
  C   C9        1.0  0.11354086958181853  0.44569481515758713  0.5332913102592372  1.0000
  C   C10       1.0  0.41967578917655873  0.5334836405694077  0.08762912772596818  1.0000
  C   C11       1.0  0.33210518034307074  0.9123838383941631  0.44598872097963493  1.0000
  C   C12       1.0  0.8864570492297903  0.5543060420378794  0.46671358281799513  1.0000
  C   C13       1.0  0.7046617725299598  0.5349699037090189  0.012092843400218142  1.0000
  C   C14       1.0  0.6925690463059127  0.9879906416280306  0.5230247307973458  1.0000
  C   C15       1.0  0.16927035282166272  0.47675176279583553  0.46474834369146123  1.0000
  C   C16       1.0  0.2953652681648081  0.46503326816107204  0.9879170431574311  1.0000
  C   C17       1.0  0.30742658154549923  0.0120086703140032  0.4769753270345093  1.0000
  C   C18       1.0  0.8307267947564229  0.523247551682239  0.5352557772994827  1.0000
  C   C19       1.0  0.3670471127291394  0.4292514211809292  0.8985109255525145  1.0000
  C   C20       1.0  0.46846132987950984  0.10138844219297032  0.5304616376913885  1.0000
  C   C21       1.0  0.9378726862651022  0.4694413194553492  0.5708112891347525  1.0000
  C   C22       1.0  0.6329759797921355  0.5707471139990759  0.1014833283853278  1.0000
  C   C23       1.0  0.5315368370622338  0.8986100974605833  0.46953690721365854  1.0000
  C   C24       1.0  0.06212924033840755  0.5305618470280962  0.4291876867013756  1.0000
  C   C25       1.0  0.6453403295227605  0.2566706759024768  0.35376248976471203  1.0000
  C   C26       1.0  0.29183439917176923  0.64612896572973  0.9024591483747032  1.0000
  C   C27       1.0  0.38861634468954526  0.09773668759588358  0.7435052862010709  1.0000
  C   C28       1.0  0.35463120770379686  0.7433332682727782  0.6462434168490887  1.0000
  C   C29       1.0  0.7081948773553394  0.35387341798983135  0.0975247703655739  1.0000
  C   C30       1.0  0.6113664274832474  0.9022603139892028  0.2564981210359819  1.0000
  O   O1        1.0  0.5644259596708352  0.3836964348232783  0.7322931544975121  1.0000
  O   O2        1.0  0.8319797761776542  0.2676369280759019  0.650976557066798  1.0000
  O   O3        1.0  0.1806654049787185  0.348720800515821  0.6161988438188005  1.0000
  O   O4        1.0  0.4355823003175488  0.6163075063037412  0.26771188493029296  1.0000
  O   O5        1.0  0.16801436473172535  0.7323623830449152  0.3490220813779247  1.0000
  O   O6        1.0  0.8193297899270959  0.6512746558826521  0.3838013641274359  1.0000
  O   O7        1.0  0.8708814027314773  0.468703900927828  0.843713212139555  1.0000
  O   O8        1.0  0.027145290813507517  0.15633104281304364  0.6246916949273144  1.0000
  O   O9        1.0  0.40190965502447557  0.37484286889514357  0.531051916912304  1.0000
  O   O10       1.0  0.12912668063760455  0.5312938675424094  0.15628629017344065  1.0000
  O   O11       1.0  0.9728526689789093  0.8436698165259457  0.37531650286486246  1.0000
  O   O12       1.0  0.5980940166954909  0.6251548996836578  0.46894729289721965  1.0000
  O   O13       1.0  0.23403383091473987  0.3653125221227427  0.8069858404219021  1.0000
  O   O14       1.0  0.4268889788571146  0.1928285196939612  0.5578347039957663  1.0000
  O   O15       1.0  0.8687637022745067  0.4419881197072187  0.6347652061568639  1.0000
  O   O16       1.0  0.7659769991004951  0.6346937300432458  0.19301582803559114  1.0000
  O   O17       1.0  0.5731066180577785  0.8071677089206162  0.4421672118795997  1.0000
  O   O18       1.0  0.13123858720540238  0.5580127352361686  0.3652366747089034  1.0000
  O   O19       1.0  0.7067368311013523  0.24417291599608865  0.4421014236035746  1.0000
  O   O20       1.0  0.26442866456922337  0.5576108175073103  0.8015654764818337  1.0000
  O   O21       1.0  0.4625250254261458  0.19849145218714875  0.7558462275208555  1.0000
  O   O22       1.0  0.29325510080945355  0.755824854158341  0.5578989890256453  1.0000
  O   O23       1.0  0.7355896616226971  0.4423900297500296  0.1984262408658779  1.0000
  O   O24       1.0  0.5374603823427863  0.801507863866547  0.24415909628978483  1.0000
