data_image0
_chemical_formula_structural       Zn2H48C62N2O14
_chemical_formula_sum              "Zn2 H48 C62 N2 O14"
_cell_length_a       16.01650708053859
_cell_length_b       18.33756811850192
_cell_length_c       19.49626451519666
_cell_angle_alpha    89.92252350550427
_cell_angle_beta     91.0139274009545
_cell_angle_gamma    89.23202090885613

_space_group_name_H-M_alt    "P 1"
_space_group_IT_number       1

loop_
  _space_group_symop_operation_xyz
  'x, y, z'

loop_
  _atom_site_type_symbol
  _atom_site_label
  _atom_site_symmetry_multiplicity
  _atom_site_fract_x
  _atom_site_fract_y
  _atom_site_fract_z
  _atom_site_occupancy
  Zn  Zn1       1.0  0.49608090579986447  0.4224461904892252  0.5019657475793267  1.0000
  Zn  Zn2       1.0  0.49731230951580574  0.5764909557327584  0.5042732808492332  1.0000
  H   H1        1.0  0.08092630149298688  0.395829469695677  0.5127028298666048  1.0000
  H   H2        1.0  0.405094585025374  0.6852681065087296  0.42934320287769623  1.0000
  H   H3        1.0  0.38935116704195133  0.18044495226619972  0.41466948588016095  1.0000
  H   H4        1.0  0.3894932732697285  0.8196356901019044  0.4177963699420033  1.0000
  H   H5        1.0  0.5879844714369824  0.15912206639715978  0.5676278013790607  1.0000
  H   H6        1.0  0.5750179593004319  0.8378679750594104  0.5816443567974687  1.0000
  H   H7        1.0  0.5024616420401884  0.06880297499090912  0.6015685491635665  1.0000
  H   H8        1.0  0.4998505338145448  0.9349471765975821  0.604777320377238  1.0000
  H   H9        1.0  0.45134335596511477  0.9303813485933503  0.3863372884576535  1.0000
  H   H10       1.0  0.453063522869698  0.0647042044695141  0.383238887043035  1.0000
  H   H11       1.0  0.9379735071536572  0.407689075147644  0.5380866281828531  1.0000
  H   H12       1.0  0.058727675573535996  0.49909560755327936  0.5924199844399425  1.0000
  H   H13       1.0  0.9160739040983401  0.5335075385953515  0.5903414624203265  1.0000
  H   H14       1.0  0.9327823538828924  0.6095006310074568  0.5370119879978148  1.0000
  H   H15       1.0  0.9205351179395648  0.3931638182108728  0.44983399606728375  1.0000
  H   H16       1.0  0.0747578642263775  0.5904130918655213  0.5665610245356092  1.0000
  H   H17       1.0  0.06317459174928788  0.41056675222121436  0.42422254866228565  1.0000
  H   H18       1.0  0.4639302531897584  0.596884139730683  0.15070960467982528  1.0000
  H   H19       1.0  0.6033157001329528  0.39575823201369803  0.1689248245375694  1.0000
  H   H20       1.0  0.5211594096302148  0.38143196711400423  0.0652455519883901  1.0000
  H   H21       1.0  0.5753272542016248  0.6106095402080458  0.0681849749892507  1.0000
  H   H22       1.0  0.6278590364793147  0.35847789745583464  0.5728249564138252  1.0000
  H   H23       1.0  0.5255775210569668  0.3819600665115459  0.9387785212948785  1.0000
  H   H24       1.0  0.5931347377126954  0.6371994503157197  0.6080829671784755  1.0000
  H   H25       1.0  0.9697393113210707  0.4495204172427306  0.3425000210804043  1.0000
  H   H26       1.0  0.834227698683101  0.6087466057555632  0.3785335406931906  1.0000
  H   H27       1.0  0.1505138502363792  0.5096838431582924  0.3622861291990702  1.0000
  H   H28       1.0  0.05293777171171852  0.6691887568591283  0.3779629116235839  1.0000
  H   H29       1.0  0.2911660804019718  0.6698269898751334  0.3687976300888494  1.0000
  H   H30       1.0  0.28301511820009745  0.7009931284293884  0.2822720778941772  1.0000
  H   H31       1.0  0.21059373458203362  0.6377896063316798  0.3138849652431261  1.0000
  H   H32       1.0  0.30887721361609977  0.567048073051126  0.2445598594273122  1.0000
  H   H33       1.0  0.3335350075160619  0.5463364864857425  0.33108185766499787  1.0000
  H   H34       1.0  0.5814140644311578  0.6111162373102347  0.9415916869214768  1.0000
  H   H35       1.0  0.4507324202188271  0.6356866493450753  0.3293779971570885  1.0000
  H   H36       1.0  0.42229024717890706  0.6603854703543419  0.24421032121957612  1.0000
  H   H37       1.0  0.6955491785462938  0.3225376527856271  0.41400478574271204  1.0000
  H   H38       1.0  0.7272129181373899  0.2799915136521278  0.3363386639272505  1.0000
  H   H39       1.0  0.7937539989838099  0.34314631645583654  0.3785382956225973  1.0000
  H   H40       1.0  0.7239528863967664  0.40579547050832343  0.2790086059789019  1.0000
  H   H41       1.0  0.6878336641520306  0.4436686751018398  0.35584458428937893  1.0000
  H   H42       1.0  0.5609983347227113  0.3634379669489149  0.3486440197701057  1.0000
  H   H43       1.0  0.5974104263960173  0.3276800910046944  0.2702030164758256  1.0000
  H   H44       1.0  0.4919452661261516  0.6062173566298625  0.8496924132288156  1.0000
  H   H45       1.0  0.5994585952333222  0.3897223021791163  0.8410772837991799  1.0000
  H   H46       1.0  0.4716462842626398  0.6050770172958408  0.7229237148775738  1.0000
  H   H47       1.0  0.5751038774717472  0.3880896232709432  0.714987781381943  1.0000
  H   H48       1.0  0.406815926707452  0.3151443098984145  0.42271985685460584  1.0000
  C   C1        1.0  0.5056972220853666  0.4950916130335586  0.6355856015345154  1.0000
  C   C2        1.0  0.5672311408571247  0.4398680935377399  0.1923052048773002  1.0000
  C   C3        1.0  0.5360461423742675  0.4967292861999155  0.1509556584999103  1.0000
  C   C4        1.0  0.5114887864843496  0.4968835501690947  0.2940106755736593  1.0000
  C   C5        1.0  0.5357580087568791  0.4316967391361217  0.03822160054618  1.0000
  C   C6        1.0  0.5635318353839691  0.560492180040079  0.039686727717445094  1.0000
  C   C7        1.0  0.6597355241640982  0.5017734503983606  0.4987534604458759  1.0000
  C   C8        1.0  0.5384793242826049  0.4320187588479029  0.9669656974023866  1.0000
  C   C9        1.0  0.5668067990099246  0.5607287317405536  0.968422844429746  1.0000
  C   C10       1.0  0.5524207910757967  0.4967898587102227  0.9304446540814908  1.0000
  C   C11       1.0  0.5463111067141853  0.4962544145180985  0.07594077563248898  1.0000
  C   C12       1.0  0.043215517827668706  0.5554252671648285  0.4217141283234795  1.0000
  C   C13       1.0  0.5118931419555538  0.5587776234539563  0.8201903915402866  1.0000
  C   C14       1.0  0.5700746373288085  0.43671462410298295  0.8156315541945958  1.0000
  C   C15       1.0  0.49965939435700335  0.558215171795368  0.7494537575562461  1.0000
  C   C16       1.0  0.5570734037219864  0.4356857792410907  0.7449602238873609  1.0000
  C   C17       1.0  0.5209131719157369  0.49621345979584675  0.7111894103158392  1.0000
  C   C18       1.0  0.5463477330427366  0.4977453743642573  0.8548483963258988  1.0000
  C   C19       1.0  0.4454094320360866  0.2779338679598382  0.45385993264693514  1.0000
  C   C20       1.0  0.4419183088391421  0.7216920996955525  0.46157961691801563  1.0000
  C   C21       1.0  0.4364398628535398  0.20264541747557271  0.44955027590480506  1.0000
  C   C22       1.0  0.4339478437960338  0.7970486953760272  0.45534624380617567  1.0000
  C   C23       1.0  0.9464151901743562  0.5446635342554771  0.41326831039992123  1.0000
  C   C24       1.0  0.48617631182743537  0.15668285592017386  0.4915450015933089  1.0000
  C   C25       1.0  0.48135533331226543  0.8423170102083901  0.4985915953482589  1.0000
  C   C26       1.0  0.5008251121511336  0.49846475536239865  0.37042572475123586  1.0000
  C   C27       1.0  0.5448144491089832  0.19034100373238522  0.5348392533866502  1.0000
  C   C28       1.0  0.5347177585039874  0.8076532441417257  0.5465270423908279  1.0000
  C   C29       1.0  0.5511438153206853  0.2658685431922834  0.535975408812746  1.0000
  C   C30       1.0  0.5390398143939023  0.7319801993195939  0.5503906457816471  1.0000
  C   C31       1.0  0.49210986301169873  0.038627038885984205  0.5540922226565854  1.0000
  C   C32       1.0  0.4907255670045176  0.9630751431738886  0.5558734594956007  1.0000
  C   C33       1.0  0.47677669693680247  0.9226123540282811  0.4956493680893885  1.0000
  C   C34       1.0  0.1693908450688113  0.5096433779985503  0.486660248502254  1.0000
  C   C35       1.0  0.47912268645811196  0.07661375702214458  0.49203916540718506  1.0000
  C   C36       1.0  0.4612128737661649  0.9605269740499197  0.43392843598227415  1.0000
  C   C37       1.0  0.46219844484556205  0.03647477763186661  0.43215432559307493  1.0000
  C   C38       1.0  0.33518966524416527  0.5027059107764345  0.4972413977914982  1.0000
  C   C39       1.0  0.9522584217260003  0.4288610436923506  0.4869037508140011  1.0000
  C   C40       1.0  0.948771518187158  0.5516054601000916  0.5444120170433138  1.0000
  C   C41       1.0  0.043630253747537  0.5397469813540924  0.5524369289360678  1.0000
  C   C42       1.0  0.04708656735945032  0.4308141829548404  0.47557134009629454  1.0000
  C   C43       1.0  0.2450059658477954  0.5051030152688866  0.49149653446921343  1.0000
  C   C44       1.0  0.9148748067677772  0.5071899257077703  0.4825462576985514  1.0000
  C   C45       1.0  0.8244084707594014  0.5056904618144812  0.48431808110729696  1.0000
  C   C46       1.0  0.07872009778141381  0.5101125715648962  0.4839776743349162  1.0000
  C   C47       1.0  0.6170047367938452  0.299755442145866  0.5810635889575337  1.0000
  C   C48       1.0  0.5944960035929654  0.6973168737924595  0.6046618938973438  1.0000
  C   C49       1.0  0.922405799289372  0.49250719195297404  0.3545113928883339  1.0000
  C   C50       1.0  0.8956868180743669  0.6149911483560475  0.4047635879999305  1.0000
  C   C51       1.0  0.08755850235912278  0.5354921036856908  0.3555693069967276  1.0000
  C   C52       1.0  0.0676240797100789  0.6388059117579629  0.4260451920756694  1.0000
  C   C53       1.0  0.42376229894234285  0.6149236956857679  0.28123247640949955  1.0000
  C   C54       1.0  0.3334560751084013  0.5905136784527514  0.2927189361733226  1.0000
  C   C55       1.0  0.2766540820013219  0.653120174334582  0.3158208479244067  1.0000
  C   C56       1.0  0.7492982951057955  0.5029699467305876  0.4908646193044532  1.0000
  C   C57       1.0  0.5969522227273742  0.37658032342143594  0.3030602522022292  1.0000
  C   C58       1.0  0.6873294383789315  0.39367641469497267  0.3247937528957152  1.0000
  C   C59       1.0  0.7282296437355382  0.3313142395868454  0.365595376994321  1.0000
  C   C60       1.0  0.4785518363390863  0.5546935531839737  0.25307358651974  1.0000
  C   C61       1.0  0.5556841623268695  0.4384251044534011  0.2632339085961917  1.0000
  C   C62       1.0  0.4915547640393143  0.5534441183561897  0.1824766795726234  1.0000
  N   N1        1.0  0.5012549165143909  0.30945438962455546  0.49640105564570547  1.0000
  N   N2        1.0  0.49343736476743055  0.6891946351923934  0.5078911841551701  1.0000
  O   O1        1.0  0.5175828042015382  0.43462202728644433  0.604431571591391  1.0000
  O   O2        1.0  0.6371796810100037  0.7344260772929871  0.6434425135130724  1.0000
  O   O3        1.0  0.8547404567172238  0.494223785039445  0.3252901390971275  1.0000
  O   O4        1.0  0.9192395537150444  0.6738032095828431  0.42655847296346383  1.0000
  O   O5        1.0  0.0593570554010299  0.552564457583827  0.2989645845925537  1.0000
  O   O6        1.0  0.1083355000684207  0.6644661754539671  0.4728871669530434  1.0000
  O   O7        1.0  0.4825273713130186  0.5545828856033099  0.6065287467821533  1.0000
  O   O8        1.0  0.6236966873382669  0.4417227056358329  0.4861260168791048  1.0000
  O   O9        1.0  0.6253686460560317  0.5611563231030703  0.517744341538311  1.0000
  O   O10       1.0  0.47501526646389886  0.44073838659311093  0.3995523347968444  1.0000
  O   O11       1.0  0.5191839686931913  0.5572774127589213  0.4017442305096992  1.0000
  O   O12       1.0  0.36891222019057307  0.44185627933549665  0.5139105058372663  1.0000
  O   O13       1.0  0.37196139986626525  0.56242246276571  0.48473432559009666  1.0000
  O   O14       1.0  0.656913210310961  0.26351790523442276  0.623372580928951  1.0000
