data_image0
_chemical_formula_structural       Cd2H32C38N4Cl4O8
_chemical_formula_sum              "Cd2 H32 C38 N4 Cl4 O8"
_cell_length_a       7.885036486145
_cell_length_b       10.674336405702356
_cell_length_c       13.031113055011604
_cell_angle_alpha    111.53046921501472
_cell_angle_beta     93.20256367620475
_cell_angle_gamma    97.85704362527166

_space_group_name_H-M_alt    "P 1"
_space_group_IT_number       1

loop_
  _space_group_symop_operation_xyz
  'x, y, z'

loop_
  _atom_site_type_symbol
  _atom_site_label
  _atom_site_symmetry_multiplicity
  _atom_site_fract_x
  _atom_site_fract_y
  _atom_site_fract_z
  _atom_site_occupancy
  Cd  Cd1       1.0  0.2641045412934843  0.9893492873100554  0.9999392337122686  1.0000
  Cd  Cd2       1.0  0.7358928570972908  0.0106465863369394  6.130054568838956e-05  1.0000
  H   H1        1.0  0.33800307631317134  0.497903406744399  0.9716152488680764  1.0000
  H   H2        1.0  0.6620035245984467  0.502093543588849  0.02838889132641497  1.0000
  H   H3        1.0  0.18425337883459741  0.8602093147976432  0.7054586937656849  1.0000
  H   H4        1.0  0.8157490939883021  0.1397927091421778  0.2945438093645548  1.0000
  H   H5        1.0  0.6488335147059415  0.837274216425513  0.7328804239944732  1.0000
  H   H6        1.0  0.35115394611574413  0.16272262979374832  0.2671209421627623  1.0000
  H   H7        1.0  0.93230068528284  0.20619850961881533  0.7536467056004666  1.0000
  H   H8        1.0  0.06770121607488015  0.7938065805687414  0.2463590103594058  1.0000
  H   H9        1.0  0.34238524812271726  0.4988389656062255  0.775472191558471  1.0000
  H   H10       1.0  0.6576043472135069  0.5011507255095822  0.22452016122099389  1.0000
  H   H11       1.0  0.6053136687460781  0.258544166325386  0.9216930804318295  1.0000
  H   H12       1.0  0.3946923506146405  0.7414629747988714  0.07830951027376193  1.0000
  H   H13       1.0  0.47572933192387273  0.278637349889614  0.8147858570442068  1.0000
  H   H14       1.0  0.5242758361975178  0.7213718284165227  0.18521732759286638  1.0000
  H   H15       1.0  0.4469903353061824  0.1208803015796391  0.8345880828283043  1.0000
  H   H16       1.0  0.5530200695947655  0.8791237926704908  0.16541138858659105  1.0000
  H   H17       1.0  0.9435094518078201  0.4653932207572638  0.1377110272059809  1.0000
  H   H18       1.0  0.05649752274638324  0.5346057683850701  0.8622922005378868  1.0000
  H   H19       1.0  0.07425152420712067  0.5930150687212077  0.10493439858025512  1.0000
  H   H20       1.0  0.9257560915269067  0.40698086141937756  0.8950679226765885  1.0000
  H   H21       1.0  0.1375330582407699  0.5581700804305214  0.22362560745062152  1.0000
  H   H22       1.0  0.8624786048660412  0.44182689331886144  0.776377888681573  1.0000
  H   H23       1.0  0.49988818548607844  0.3368624409953256  0.6388633991118553  1.0000
  H   H24       1.0  0.5001051673630456  0.6631343892067108  0.36112274732629146  1.0000
  H   H25       1.0  0.8077938878530233  0.6769265512347361  0.5969630020904546  1.0000
  H   H26       1.0  0.1921969225994715  0.32308151730769197  0.4030341455489149  1.0000
  H   H27       1.0  0.33198142444820894  0.9029154875106401  0.5535157860334862  1.0000
  H   H28       1.0  0.6680203607184368  0.0970895906002767  0.4464860860220626  1.0000
  H   H29       1.0  0.08404908208636637  0.253768334370136  0.6048181663893359  1.0000
  H   H30       1.0  0.9159515246747957  0.746236746944227  0.39518674961002626  1.0000
  H   H31       1.0  0.07821600414813192  0.235244572490906  0.11070471549620461  1.0000
  H   H32       1.0  0.9217820354224671  0.7647482421543401  0.8892949122747211  1.0000
  C   C1        1.0  0.049976055170795106  0.03125593864960051  0.7389307861833672  1.0000
  C   C2        1.0  0.9500264641285413  0.9687460901208813  0.26107325450860236  1.0000
  C   C3        1.0  0.4870766393951982  0.6781412108079578  0.7631730094734195  1.0000
  C   C4        1.0  0.5129139356083597  0.3218525820793018  0.23682520621347433  1.0000
  C   C5        1.0  0.3456526390173381  0.28268134104220627  0.9552446513210242  1.0000
  C   C6        1.0  0.6543504749853779  0.7173176238958732  0.04475694532219167  1.0000
  C   C7        1.0  0.29409202326066014  0.41186417682970955  0.9943283750429615  1.0000
  C   C8        1.0  0.7059115108610853  0.588136831748109  0.005673846711367461  1.0000
  C   C9        1.0  0.39831639939318103  0.7750385093683646  0.8479390936865983  1.0000
  C   C10       1.0  0.6016777796259306  0.22495428107262672  0.15205890298366137  1.0000
  C   C11       1.0  0.9612783466057164  0.004551090368323698  0.8286564143336719  1.0000
  C   C12       1.0  0.03872245797802511  0.9954488858892175  0.17134620128667413  1.0000
  C   C13       1.0  0.17351070825183257  0.40731635583843223  0.06792890635423277  1.0000
  C   C14       1.0  0.8264949252293762  0.5926826196000549  0.9320719838674023  1.0000
  C   C15       1.0  0.6635141281458631  0.4986155034537205  0.611956369734159  1.0000
  C   C16       1.0  0.3364776616538947  0.5013854156040339  0.38803557725212556  1.0000
  C   C17       1.0  0.16244044005215844  0.9456355868835191  0.6826054137019213  1.0000
  C   C18       1.0  0.837562429651541  0.0543684782807219  0.3173969457585741  1.0000
  C   C19       1.0  0.6171716864162632  0.7274973842890519  0.7119124897394755  1.0000
  C   C20       1.0  0.3828213505880669  0.2725025387293201  0.288085326117816  1.0000
  C   C21       1.0  0.02176978669132269  0.1416727539487468  0.7102505625321456  1.0000
  C   C22       1.0  0.9782316713091677  0.8583302901837371  0.289753759535742  1.0000
  C   C23       1.0  0.44456908596998096  0.5369769300166566  0.7361381897497664  1.0000
  C   C24       1.0  0.5554265986207766  0.463017891199321  0.26385431296433376  1.0000
  C   C25       1.0  0.47469640573456207  0.2322839871162613  0.8772567137644032  1.0000
  C   C26       1.0  0.5253104648654913  0.7677211168261165  0.12274528300971346  1.0000
  C   C27       1.0  0.07653517041848798  0.5117206521485684  0.1371200437925282  1.0000
  C   C28       1.0  0.9234728421963468  0.4882773192164365  0.8628821337945709  1.0000
  C   C29       1.0  0.5323204086043701  0.4466159415393988  0.6606294967724579  1.0000
  C   C30       1.0  0.46766908277769653  0.5533798643764597  0.3393616250372559  1.0000
  C   C31       1.0  0.7062570978203268  0.6385188424085938  0.6364079450137722  1.0000
  C   C32       1.0  0.2937284978551773  0.36148206126711807  0.36358922754035217  1.0000
  C   C33       1.0  0.21689667333351542  0.08071473602845462  0.5720124768227919  1.0000
  C   C34       1.0  0.7831049947264859  0.9192893299238988  0.4279921578006593  1.0000
  C   C35       1.0  0.24557702206072204  0.9694164133295261  0.5984521197671739  1.0000
  C   C36       1.0  0.7544260809407035  0.030588676069911003  0.4015513210297428  1.0000
  C   C37       1.0  0.10590473826066929  0.16809782771058926  0.6274346274020104  1.0000
  C   C38       1.0  0.8940979910981712  0.831905222879769  0.3725697258455228  1.0000
  N   N1        1.0  0.15681558379055358  0.28046970760338746  0.06936229305564717  1.0000
  N   N2        1.0  0.8431895133805514  0.719527212118713  0.9306341281505439  1.0000
  N   N3        1.0  0.25946491232933516  0.20327826006469255  0.002137221915262418  1.0000
  N   N4        1.0  0.7405408724980164  0.7967156054863125  0.997859830365627  1.0000
  Cl  Cl1       1.0  0.3202927424421063  0.10911508393370893  0.4667942783382557  1.0000
  Cl  Cl2       1.0  0.6797036068867612  0.8908879319519801  0.5332091502301921  1.0000
  Cl  Cl3       1.0  0.7768161905894716  0.387690249716421  0.5198198599685213  1.0000
  Cl  Cl4       1.0  0.22318055745132875  0.6123168075575193  0.4801702119857225  1.0000
  O   O1        1.0  0.4576858293230615  0.9053443361117888  0.8787075983126584  1.0000
  O   O2        1.0  0.542311241901558  0.09464950355678071  0.1212953859576444  1.0000
  O   O3        1.0  0.011315798567096547  0.9183766460336927  0.8657489873713046  1.0000
  O   O4        1.0  0.9886840960639561  0.0816192356983834  0.1342500716842139  1.0000
  O   O5        1.0  0.2715945133175807  0.7324001837356987  0.887823418390063  1.0000
  O   O6        1.0  0.7283974269127641  0.2675946253526575  0.11217129712770199  1.0000
  O   O7        1.0  0.837758704304683  0.0686842291341918  0.8641982884477174  1.0000
  O   O8        1.0  0.1622477220225632  0.931317828671197  0.13580892090665472  1.0000
