data_image0
_chemical_formula_structural       Zn8H54C48N6O26
_chemical_formula_sum              "Zn8 H54 C48 N6 O26"
_cell_length_a       15.97634577107098
_cell_length_b       16.651657853302858
_cell_length_c       16.998965359122536
_cell_angle_alpha    90.58248619339493
_cell_angle_beta     119.40772678437882
_cell_angle_gamma    117.06723566423734

_space_group_name_H-M_alt    "P 1"
_space_group_IT_number       1

loop_
  _space_group_symop_operation_xyz
  'x, y, z'

loop_
  _atom_site_type_symbol
  _atom_site_label
  _atom_site_symmetry_multiplicity
  _atom_site_fract_x
  _atom_site_fract_y
  _atom_site_fract_z
  _atom_site_occupancy
  Zn  Zn1       1.0  0.9038662897969941  0.0391056219227153  0.9431427948947825  1.0000
  Zn  Zn2       1.0  0.11588709785300469  0.0430473078013733  0.9636244278736182  1.0000
  Zn  Zn3       1.0  0.9155240343730779  0.8527271185776613  0.9483650925001534  1.0000
  Zn  Zn4       1.0  0.08773048291362777  0.031903892789436804  0.13574189481663265  1.0000
  Zn  Zn5       1.0  0.10854867308021453  0.43932092090252445  0.5338140656534022  1.0000
  Zn  Zn6       1.0  0.9187292525146018  0.4394462745016482  0.5552926526860842  1.0000
  Zn  Zn7       1.0  0.9062996141657889  0.4463957864704399  0.3621357617369509  1.0000
  Zn  Zn8       1.0  0.09819073082746857  0.6268230558114141  0.5435501766451906  1.0000
  H   H1        1.0  0.15883377070714025  0.37652418837993196  0.976018798047029  1.0000
  H   H2        1.0  0.008876060902430455  0.3117945122703886  0.8984711326211892  1.0000
  H   H3        1.0  0.16953397401405107  0.4724930507349612  0.8711300194754936  1.0000
  H   H4        1.0  0.018923207256982277  0.40619616726257135  0.7969296897000856  1.0000
  H   H5        1.0  0.28326309064749466  0.4306573447254323  0.8517222096157722  1.0000
  H   H6        1.0  0.22551717986145545  0.32842333758007664  0.7644507119866399  1.0000
  H   H7        1.0  0.2753976712415636  0.337237709311907  0.9591856557197999  1.0000
  H   H8        1.0  0.21933316464626526  0.2371243992356256  0.8697245610459772  1.0000
  H   H9        1.0  0.022311007781318882  0.19837003547596765  0.720202639108251  1.0000
  H   H10       1.0  0.6127447888932666  0.8652028587527953  0.6039397885922992  1.0000
  H   H11       1.0  0.58595843577789  0.9101053644571168  0.6785443510927249  1.0000
  H   H12       1.0  0.4123080206677231  0.7498402355508988  0.4990992709061784  1.0000
  H   H13       1.0  0.3901944591506988  0.8004891524879482  0.5745889840431669  1.0000
  H   H14       1.0  0.43901232617077557  0.6202530714403166  0.5156216584691362  1.0000
  H   H15       1.0  0.448390835915333  0.5713743831152555  0.6095060855738266  1.0000
  H   H16       1.0  0.6401002041592176  0.7356107006979471  0.6155842529675508  1.0000
  H   H17       1.0  0.6458449026427362  0.6816731334696444  0.7062522053873789  1.0000
  H   H18       1.0  0.5184092831578511  0.6956757803746572  0.7560303460656355  1.0000
  H   H19       1.0  0.7197423863724522  0.006526789014465397  0.11599673061992612  1.0000
  H   H20       1.0  0.752695268983274  0.1026099109926761  0.06867989177628415  1.0000
  H   H21       1.0  0.7308776794177375  0.10187944236719912  0.23393347094166458  1.0000
  H   H22       1.0  0.7551811333410257  0.19245050219884519  0.17884174156668559  1.0000
  H   H23       1.0  0.8805189855476525  0.09520550564035803  0.3655100584989625  1.0000
  H   H24       1.0  0.024438579690468004  0.1740048243736538  0.4066029192160839  1.0000
  H   H25       1.0  0.8613544367006298  0.9922631074503627  0.2481484009041066  1.0000
  H   H26       1.0  0.0077900394561397  0.06999582901626408  0.29673431093164027  1.0000
  H   H27       1.0  0.045759692403706365  0.23928386060833162  0.27728909980434924  1.0000
  H   H28       1.0  0.2894192804070528  0.8631802622698429  0.9749629007639198  1.0000
  H   H29       1.0  0.2472778487045347  0.9121645699793107  0.880691694097443  1.0000
  H   H30       1.0  0.2746747880423187  0.7466709775563204  0.8739308349733859  1.0000
  H   H31       1.0  0.2378894173973692  0.8017531001474439  0.7839079796477149  1.0000
  H   H32       1.0  0.13815816327394959  0.6176193006691334  0.8873654910859654  1.0000
  H   H33       1.0  0.9915092656765764  0.5739240885274199  0.8131308260395184  1.0000
  H   H34       1.0  0.15901764503194474  0.733712491634293  0.9934203531904584  1.0000
  H   H35       1.0  0.010757640261587643  0.6847094350998901  0.9191615218031826  1.0000
  H   H36       1.0  0.9560739768493176  0.7042039460569781  0.7485738762867693  1.0000
  H   H37       1.0  0.3769411758513145  0.3777620333913064  0.17141651687862233  1.0000
  H   H38       1.0  0.4052945086813651  0.3186395632354505  0.10854772006618418  1.0000
  H   H39       1.0  0.5786368434661284  0.4849689831801953  0.28285857560094724  1.0000
  H   H40       1.0  0.6010234668543004  0.42558626162190893  0.21438858433685218  1.0000
  H   H41       1.0  0.5709420049955722  0.44256572312226433  0.4133287045959048  1.0000
  H   H42       1.0  0.5784509009664021  0.34395404783880684  0.44567258883728994  1.0000
  H   H43       1.0  0.3684397458832435  0.33949436319410614  0.30304233683638404  1.0000
  H   H44       1.0  0.3797839714646756  0.24385193679247416  0.34043591085246294  1.0000
  H   H45       1.0  0.5088371658667086  0.21807272636361577  0.30133031109907177  1.0000
  H   H46       1.0  0.1391571581171505  0.7348300070445575  0.146841579724942  1.0000
  H   H47       1.0  0.9891263316558604  0.6688853509758701  0.08408830937993622  1.0000
  H   H48       1.0  0.1452091099612076  0.6361700203040853  0.25098108179994216  1.0000
  H   H49       1.0  0.9950875132700217  0.5721841712900968  0.18465426721075304  1.0000
  H   H50       1.0  0.2619857149124983  0.7714486840239871  0.38430499247783684  1.0000
  H   H51       1.0  0.2059054738825595  0.8181015546982807  0.42582125588717173  1.0000
  H   H52       1.0  0.25756458866106857  0.8703599384071622  0.2808946929020449  1.0000
  H   H53       1.0  0.20222656768561373  0.9153911410742239  0.3249673094599854  1.0000
  H   H54       1.0  0.006704176784446044  0.778741101503073  0.2869811190694946  1.0000
  C   C1        1.0  0.0408230079130476  0.16599739222424859  0.883532021056723  1.0000
  C   C2        1.0  0.0893514891187337  0.25769941812150415  0.8604926852672957  1.0000
  C   C3        1.0  0.08751459790340026  0.33906803057922025  0.9018057704554888  1.0000
  C   C4        1.0  0.09395171276294441  0.40081450017645903  0.8347872323798525  1.0000
  C   C5        1.0  0.09665012642788186  0.3437508695172157  0.7642593709348658  1.0000
  C   C6        1.0  0.21487119187469972  0.35603327337604906  0.8155934493849695  1.0000
  C   C7        1.0  0.21049767720072762  0.29614180416735536  0.8842404141773341  1.0000
  C   C8        1.0  0.057106905740020926  0.3665809617593183  0.6706804090472145  1.0000
  C   C9        1.0  0.7179008359944846  0.8517034312363735  0.8046541815091783  1.0000
  C   C10       1.0  0.6070384167908642  0.7916415534616021  0.7088052660134279  1.0000
  C   C11       1.0  0.5686713774612714  0.845465741254948  0.6401906868975542  1.0000
  C   C12       1.0  0.43980536290288796  0.7727826037017138  0.5727778498931284  1.0000
  C   C13       1.0  0.4238218821106799  0.6894137889532743  0.6154214593159038  1.0000
  C   C14       1.0  0.47176501531045995  0.6377972840881155  0.5912972580073796  1.0000
  C   C15       1.0  0.601096620952809  0.7105648418595152  0.655488512666494  1.0000
  C   C16       1.0  0.30423937378706967  0.6275161407628217  0.5922781671066344  1.0000
  C   C17       1.0  0.9395551805730376  0.09180619728675771  0.12556815689345763  1.0000
  C   C18       1.0  0.9007957537472676  0.1095567533365198  0.18588251332903372  1.0000
  C   C19       1.0  0.7772840738061291  0.0827369951574255  0.13414350807523318  1.0000
  C   C20       1.0  0.7820312612241052  0.14382443021467847  0.20751531775927368  1.0000
  C   C21       1.0  0.9090061812234537  0.19984866805447873  0.28784000988388664  1.0000
  C   C22       1.0  0.9379483852140851  0.1329957930281864  0.34304650995326796  1.0000
  C   C23       1.0  0.9278771639143242  0.0666121973439502  0.26983120575223274  1.0000
  C   C24       1.0  0.951206393647915  0.29501252294735997  0.3478983353024885  1.0000
  C   C25       1.0  0.06846165215860367  0.856762257832372  0.8972745846080908  1.0000
  C   C26       1.0  0.1061770198617111  0.7951870680817095  0.8762480418188541  1.0000
  C   C27       1.0  0.2269624669163263  0.8461318280840686  0.8993747267666375  1.0000
  C   C28       1.0  0.2190323511989121  0.7729681553594219  0.8346632197791731  1.0000
  C   C29       1.0  0.09320768040608131  0.6925756293055016  0.7819336932370073  1.0000
  C   C30       1.0  0.07590091349725005  0.6385504831950681  0.851384768963143  1.0000
  C   C31       1.0  0.08787848222421965  0.7116904310442891  0.9197869623199463  1.0000
  C   C32       1.0  0.04764236923580263  0.6321727580335404  0.6861012131952575  1.0000
  C   C33       1.0  0.29551221390968857  0.17136591398302406  0.15722806093798156  1.0000
  C   C34       1.0  0.403197557659432  0.2664168361159085  0.22446917334954  1.0000
  C   C35       1.0  0.42676618393755916  0.34635239781704297  0.1787827718401259  1.0000
  C   C36       1.0  0.5560307580496229  0.4154582443536725  0.24896062995448884  1.0000
  C   C37       1.0  0.5872782203785221  0.3629647157346482  0.3225828786473598  1.0000
  C   C38       1.0  0.5445957503358727  0.3696024961792973  0.38528087039362174  1.0000
  C   C39       1.0  0.4145154520631777  0.3031598776490085  0.31560061107536086  1.0000
  C   C40       1.0  0.7101669592693156  0.3893778104950131  0.37441895574367823  1.0000
  C   C41       1.0  0.025710188244978904  0.840117621951805  0.1424773200540485  1.0000
  C   C42       1.0  0.07142453649687755  0.7864483954622657  0.2053938768716391  1.0000
  C   C43       1.0  0.06766561021913735  0.7065620602519119  0.1546861399399403  1.0000
  C   C44       1.0  0.07122071873734379  0.6431500776145214  0.22085828949426656  1.0000
  C   C45       1.0  0.07554281568362597  0.6961466020035373  0.2989156750903134  1.0000
  C   C46       1.0  0.19496449783347464  0.786677592737604  0.36194497012372284  1.0000
  C   C47       1.0  0.19232982180186298  0.8502869532289096  0.29583441147372697  1.0000
  C   C48       1.0  0.03320275968671651  0.6350537092147948  0.35269899131994  1.0000
  N   N1        1.0  0.019848671268185607  0.24548890572869908  0.7571411510063226  1.0000
  N   N2        1.0  0.5091627296823588  0.7422164887664023  0.7183443429136458  1.0000
  N   N3        1.0  0.9607216016353346  0.21281837305307494  0.23220515891814109  1.0000
  N   N4        1.0  0.039481580744777  0.748563085121077  0.7724461324700013  1.0000
  N   N5        1.0  0.5071090375177575  0.26264104015364614  0.26000477269917593  1.0000
  N   N6        1.0  0.0012044578932304648  0.7321823922205368  0.24193029189026288  1.0000
  O   O1        1.0  0.005394562507746192  0.9903283353340129  0.9983053744733037  1.0000
  O   O2        1.0  0.06312270442734301  0.10532005108095893  0.8676832647045314  1.0000
  O   O3        1.0  0.9819920385995285  0.1560092653067215  0.917154635497084  1.0000
  O   O4        1.0  0.9590641535562197  0.3551927521894314  0.6251958224695211  1.0000
  O   O5        1.0  0.1278913547324052  0.3986476884776807  0.6469101181356789  1.0000
  O   O6        1.0  0.7555170061803479  0.8063730387814871  0.8578317431190139  1.0000
  O   O7        1.0  0.7645518824044188  0.9410084379776367  0.824476011201369  1.0000
  O   O8        1.0  0.2592935448885498  0.6701959483426165  0.6013805104521379  1.0000
  O   O9        1.0  0.2585902284847705  0.5380373065106241  0.564783562645317  1.0000
  O   O10       1.0  0.040177818666109  0.1078902632536654  0.17123201483008896  1.0000
  O   O11       1.0  0.8710235737252245  0.0626953396630512  0.03591006205998315  1.0000
  O   O12       1.0  0.8926422273681068  0.3322089549078839  0.3105112609039719  1.0000
  O   O13       1.0  0.04229956040286714  0.329892556213359  0.4303463547555778  1.0000
  O   O14       1.0  0.9687888957533913  0.814063445643413  0.8793879046312864  1.0000
  O   O15       1.0  0.13928870587988465  0.9459473575356724  0.9310850146666776  1.0000
  O   O16       1.0  0.08417046993282201  0.6755721797061228  0.6381029448940152  1.0000
  O   O17       1.0  0.977707627056347  0.5437854923587152  0.6619390838069702  1.0000
  O   O18       1.0  0.2513910213803641  0.11441759531921042  0.19434071771928524  1.0000
  O   O19       1.0  0.2570419373907739  0.15568693961564148  0.06945789950301415  1.0000
  O   O20       1.0  0.7555974696478528  0.41240155268878453  0.3279672742305164  1.0000
  O   O21       1.0  0.7571232353063236  0.38623870928464044  0.45968637771121457  1.0000
  O   O22       1.0  0.05748929200110825  0.9224573215379551  0.18409142587662325  1.0000
  O   O23       1.0  0.9608278643444237  0.7994569753696084  0.05358959564436814  1.0000
  O   O24       1.0  0.968737550681773  0.5462387883703104  0.3120490265988848  1.0000
  O   O25       1.0  0.06625300033624643  0.6774302160109188  0.43450710255267916  1.0000
  O   O26       1.0  0.008382706581166134  0.4884911478291799  0.5005202607417656  1.0000
