data_image0
_chemical_formula_structural       Cd2H28C28N16O4
_chemical_formula_sum              "Cd2 H28 C28 N16 O4"
_cell_length_a       3.766288639197565
_cell_length_b       12.829160138838454
_cell_length_c       16.88009635103449
_cell_angle_alpha    89.99992338747978
_cell_angle_beta     90.00021980588738
_cell_angle_gamma    93.81587795645257

_space_group_name_H-M_alt    "P 1"
_space_group_IT_number       1

loop_
  _space_group_symop_operation_xyz
  'x, y, z'

loop_
  _atom_site_type_symbol
  _atom_site_label
  _atom_site_symmetry_multiplicity
  _atom_site_fract_x
  _atom_site_fract_y
  _atom_site_fract_z
  _atom_site_occupancy
  Cd  Cd1       1.0  1.4075651364162128e-06  0.5000025956287715  0.49999985074062897  1.0000
  Cd  Cd2       1.0  7.49056688759804e-07  0.9999988750794346  7.772556639999989e-08  1.0000
  H   H1        1.0  0.7845574769226928  0.5890522068049933  0.6702770067041683  1.0000
  H   H2        1.0  0.215440772207586  0.9109444845567013  0.17027412380971904  1.0000
  H   H3        1.0  0.21544100271516703  0.4109476671549076  0.3297231155694433  1.0000
  H   H4        1.0  0.7845550512812807  0.08905538476361131  0.8297248136354158  1.0000
  H   H5        1.0  0.07134347025841953  0.38071795030078454  0.8574155560562104  1.0000
  H   H6        1.0  0.9286587690436577  0.11927414004210851  0.3574165356972117  1.0000
  H   H7        1.0  0.9286520305892624  0.6192803566352297  0.1425827889759077  1.0000
  H   H8        1.0  0.07133954927616061  0.8807249527254372  0.642583586576734  1.0000
  H   H9        1.0  0.27157708423834503  0.2600438930914066  0.7527966313413756  1.0000
  H   H10       1.0  0.7284266606864451  0.23995147325819488  0.2528002803173166  1.0000
  H   H11       1.0  0.728421234066218  0.7399551996773827  0.24720171369152413  1.0000
  H   H12       1.0  0.2715690014945409  0.760047614868931  0.7471998419555066  1.0000
  H   H13       1.0  0.2194838500705245  0.3102795442508324  0.6112263016006951  1.0000
  H   H14       1.0  0.7805181100253478  0.18971914524637876  0.1112288612990611  1.0000
  H   H15       1.0  0.7805151135062334  0.6897226732873705  0.3887720434308691  1.0000
  H   H16       1.0  0.21948036961251927  0.810280728713515  0.8887712609745437  1.0000
  H   H17       1.0  0.14134605402951192  0.5570932660743324  0.9261230409403822  1.0000
  H   H18       1.0  0.8586698674684996  0.9429030899807884  0.4261212588851038  1.0000
  H   H19       1.0  0.8586630501535027  0.4429066264480569  0.0738758965103301  1.0000
  H   H20       1.0  0.14133126830311235  0.05709678861994401  0.5738782709759391  1.0000
  H   H21       1.0  0.7413746121676754  0.47836528492628366  0.934515466140198  1.0000
  H   H22       1.0  0.25863804818796865  0.021632179649394307  0.4345130203437009  1.0000
  H   H23       1.0  0.25863199719964314  0.5216353841476291  0.0654840637227423  1.0000
  H   H24       1.0  0.7413604314498985  0.9783676943105066  0.5654871019299108  1.0000
  H   H25       1.0  0.7405209739883034  0.6167731433884499  0.9513589002970377  1.0000
  H   H26       1.0  0.25948990711575703  0.8832223868296157  0.4513596374862702  1.0000
  H   H27       1.0  0.259487807573862  0.38322518674799266  0.048641814395381316  1.0000
  H   H28       1.0  0.7405057550652288  0.11677670129751049  0.548640484786553  1.0000
  C   C1        1.0  0.8923411704795897  0.516902411790376  0.6905228267112733  1.0000
  C   C2        1.0  0.10766821208303412  0.9830950509528051  0.19052392573855312  1.0000
  C   C3        1.0  0.1076602879281126  0.4830990291950599  0.30947670314910175  1.0000
  C   C4        1.0  0.8923383972995397  0.0169056181198641  0.809477381365433  1.0000
  C   C5        1.0  0.9100805682132533  0.4952084146952984  0.7716319795271717  1.0000
  C   C6        1.0  0.08991867167374322  0.0047892595595229  0.2716323711512203  1.0000
  C   C7        1.0  0.08992072887132001  0.5047922450982015  0.22836695791985312  1.0000
  C   C8        1.0  0.910077797097486  0.9952137345293722  0.7283677511199329  1.0000
  C   C9        1.0  0.04962510688250179  0.40150381171015675  0.7951392329242781  1.0000
  C   C10       1.0  0.95037188036396  0.09849382496517481  0.2951384749934789  1.0000
  C   C11       1.0  0.9503710392475426  0.5984976199944398  0.20486029693386607  1.0000
  C   C12       1.0  0.04962442708414024  0.9015083879317775  0.7048610548643313  1.0000
  C   C13       1.0  0.1596951061145901  0.3333313395286338  0.737414525337961  1.0000
  C   C14       1.0  0.8403035464044991  0.16666638267520992  0.23741301218586844  1.0000
  C   C15       1.0  0.8403036961593672  0.6666700968159704  0.2625855969349828  1.0000
  C   C16       1.0  0.15969243839224131  0.833334267838282  0.7625847404315708  1.0000
  C   C17       1.0  0.131195715631705  0.3609469234000216  0.6580986011562757  1.0000
  C   C18       1.0  0.8688042315684115  0.13905091458510552  0.1580995100708691  1.0000
  C   C19       1.0  0.8687951182105141  0.6390544990245745  0.3418997438722755  1.0000
  C   C20       1.0  0.1311942480592876  0.8609489593756195  0.8418994273753811  1.0000
  C   C21       1.0  0.7794242844250617  0.5720309892280753  0.8294224319173438  1.0000
  C   C22       1.0  0.22057637385714207  0.9279639167428899  0.3294213130646071  1.0000
  C   C23       1.0  0.22057685135163754  0.4279688893722381  0.1705776903573835  1.0000
  C   C24       1.0  0.7794167934979795  0.07203594793659111  0.6705782167930893  1.0000
  C   C25       1.0  0.853349784416011  0.5558648194692851  0.9156328797302324  1.0000
  C   C26       1.0  0.14666579570261012  0.9441307700925563  0.4156316820278931  1.0000
  C   C27       1.0  0.1466593197771715  0.4441350730522728  0.0843672425478346  1.0000
  C   C28       1.0  0.8533326839352572  0.055869103867337316  0.5843684402457185  1.0000
  N   N1        1.0  0.5280814655679366  0.6131724594870321  0.5248754651329578  1.0000
  N   N2        1.0  0.4719235466799462  0.8868306990797025  0.0248740077400669  1.0000
  N   N3        1.0  0.4719267570002117  0.38683602150875634  0.47512643438135893  1.0000
  N   N4        1.0  0.528079116024486  0.11316371581330745  0.9751278917791526  1.0000
  N   N5        1.0  0.53058744318772  0.7038428782376583  0.5440009027692341  1.0000
  N   N6        1.0  0.4694189403276781  0.7961524462448606  0.04400131384714001  1.0000
  N   N7        1.0  0.4694149831435297  0.2961632499006512  0.45600040433017613  1.0000
  N   N8        1.0  0.530585733248472  0.20383884851873552  0.9560011780882148  1.0000
  N   N9        1.0  0.5304249001037249  0.7915942773491977  0.5624580981538401  1.0000
  N   N10       1.0  0.46957165963386427  0.7084033462852517  0.06245859969257591  1.0000
  N   N11       1.0  0.46956923518511223  0.2084102744823255  0.43754439377025994  1.0000
  N   N12       1.0  0.5304275403465795  0.2915871580051572  0.9375438922408819  1.0000
  N   N13       1.0  0.0017306479827751816  0.4517062043566469  0.6349149830080449  1.0000
  N   N14       1.0  0.9982718800411304  0.0482932331398374  0.1349160943040815  1.0000
  N   N15       1.0  0.9982656594653179  0.5482960085403049  0.365084546849765  1.0000
  N   N16       1.0  0.0017241047861205553  0.9517074173711678  0.8650852127954352  1.0000
  O   O1        1.0  0.6110189203078987  0.6454992579654047  0.8060587125240986  1.0000
  O   O2        1.0  0.38896724965249524  0.854491751579886  0.3060584034346476  1.0000
  O   O3        1.0  0.38897907538598275  0.354498272416599  0.1939425945778694  1.0000
  O   O4        1.0  0.6110231002508328  0.14550732726640803  0.6939417188359516  1.0000
