data_image0
_chemical_formula_structural       Dy8H80C96N8O68
_chemical_formula_sum              "Dy8 H80 C96 N8 O68"
_cell_length_a       8.533825730053474
_cell_length_b       15.54019131011944
_cell_length_c       28.066257821042083
_cell_angle_alpha    90.0001934115379
_cell_angle_beta     89.99995492771627
_cell_angle_gamma    89.99959570698871

_space_group_name_H-M_alt    "P 1"
_space_group_IT_number       1

loop_
  _space_group_symop_operation_xyz
  'x, y, z'

loop_
  _atom_site_type_symbol
  _atom_site_label
  _atom_site_symmetry_multiplicity
  _atom_site_fract_x
  _atom_site_fract_y
  _atom_site_fract_z
  _atom_site_occupancy
  Dy  Dy1       1.0  0.051610111073408405  0.7958292000145873  0.4133362127397788  1.0000
  Dy  Dy2       1.0  0.4483941200982572  0.29583061236956354  0.586664113156509  1.0000
  Dy  Dy3       1.0  0.5515908663413216  0.704172640123403  0.0866615934147532  1.0000
  Dy  Dy4       1.0  0.9483939537469084  0.2041786167553923  0.9133409351602637  1.0000
  Dy  Dy5       1.0  0.9483978903688524  0.20417247362855306  0.5866632548421435  1.0000
  Dy  Dy6       1.0  0.5516068505001712  0.7041704178031195  0.41333820482347516  1.0000
  Dy  Dy7       1.0  0.4483913552993358  0.2958354684913261  0.9133360926776463  1.0000
  Dy  Dy8       1.0  0.051614047641003004  0.7958307788112645  0.0866620954261492  1.0000
  H   H1        1.0  0.13638893545254402  0.6286532542390403  0.5477957246146161  1.0000
  H   H2        1.0  0.36362330900852424  0.1286612533312805  0.45220108192206965  1.0000
  H   H3        1.0  0.6363865146497575  0.8713442262566532  0.952208195919674  1.0000
  H   H4        1.0  0.8636231027949606  0.3713459004507982  0.0477996335036224  1.0000
  H   H5        1.0  0.8636237532514884  0.37134391493839297  0.4522012488644407  1.0000
  H   H6        1.0  0.6363893796761461  0.8713397767894621  0.5477916159638738  1.0000
  H   H7        1.0  0.3635992224807724  0.1286529429815388  0.0477916279604358  1.0000
  H   H8        1.0  0.13638138315835854  0.6286654256008077  0.9522033970850217  1.0000
  H   H9        1.0  0.6431200138417311  0.5926390914002224  0.299230964168423  1.0000
  H   H10       1.0  0.8568955387285514  0.09263962204715881  0.7007713557978903  1.0000
  H   H11       1.0  0.1430996998908611  0.9073437338716631  0.2007653948068508  1.0000
  H   H12       1.0  0.3568878607094064  0.40735387331411493  0.7992365648628591  1.0000
  H   H13       1.0  0.35689384672681274  0.4073490688790216  0.7007667219015232  1.0000
  H   H14       1.0  0.1431112910031018  0.9073453208135333  0.2992366629619738  1.0000
  H   H15       1.0  0.8568907244844371  0.0926495744239304  0.7992419113633531  1.0000
  H   H16       1.0  0.6431131099396837  0.5926400784266901  0.20076183381350177  1.0000
  H   H17       1.0  0.10203245712346394  0.476583275796564  0.5987250695098396  1.0000
  H   H18       1.0  0.3979753038345636  0.9765823821663633  0.4012770196450504  1.0000
  H   H19       1.0  0.6020346512284362  0.023409917265738003  0.9012725796253918  1.0000
  H   H20       1.0  0.89797359072017  0.5234245545907469  0.0987231974813767  1.0000
  H   H21       1.0  0.8979708571109059  0.5234151803898542  0.4012736854701799  1.0000
  H   H22       1.0  0.6020561337728624  0.023417360941394297  0.5987185286352599  1.0000
  H   H23       1.0  0.397951085950453  0.9765808170289464  0.0987218997527961  1.0000
  H   H24       1.0  0.10204612872544062  0.47658805840602264  0.9012762701093706  1.0000
  H   H25       1.0  0.028489525218212505  0.006834573328454499  0.4527229873132654  1.0000
  H   H26       1.0  0.4714985093199432  0.5068349286313846  0.5472814299770903  1.0000
  H   H27       1.0  0.5284760324371974  0.4931648664335809  0.047266763248544015  1.0000
  H   H28       1.0  0.9714980328054214  0.9931651180146162  0.9527192034343557  1.0000
  H   H29       1.0  0.9715173044134318  0.9931677438074971  0.5472757676699445  1.0000
  H   H30       1.0  0.5284907432286092  0.49316224060977726  0.4527216006001424  1.0000
  H   H31       1.0  0.4715050174592081  0.5068323028245202  0.9527366236293987  1.0000
  H   H32       1.0  0.02849473517952821  0.006831407703152999  0.04727598854785951  1.0000
  H   H33       1.0  0.9326783761996327  0.19519074675985587  0.4129076293542937  1.0000
  H   H34       1.0  0.5673264804061801  0.6951896888380062  0.5870927446146368  1.0000
  H   H35       1.0  0.43266202034019596  0.30481549673242375  0.0870884376025742  1.0000
  H   H36       1.0  0.0673174871082622  0.8048138499193697  0.912901928708429  1.0000
  H   H37       1.0  0.06732142258908173  0.8048122138693825  0.5870868500336356  1.0000
  H   H38       1.0  0.4326756620328069  0.3048061933906396  0.41290957336038764  1.0000
  H   H39       1.0  0.567322544966402  0.695182959513005  0.91291779967397  1.0000
  H   H40       1.0  0.9326670781840036  0.19518911074037962  0.08709290698105582  1.0000
  H   H41       1.0  0.13253652004699032  0.2131998397905193  0.4283098668132936  1.0000
  H   H42       1.0  0.3674722913341669  0.7132013893006144  0.5716935112393743  1.0000
  H   H43       1.0  0.6325244518328361  0.28679533700554316  0.0716827091705383  1.0000
  H   H44       1.0  0.8674675062072058  0.7868035637272045  0.9283035841465619  1.0000
  H   H45       1.0  0.8674574196979068  0.7868037643492657  0.5716867503743117  1.0000
  H   H46       1.0  0.6325368819131897  0.28679964086273196  0.4283109445379836  1.0000
  H   H47       1.0  0.36745659807232306  0.7132005452660267  0.9283203214064741  1.0000
  H   H48       1.0  0.13253932343548774  0.21319746641679416  0.0716930330370857  1.0000
  H   H49       1.0  0.013488314406188803  0.1448805574387393  0.4643890838683263  1.0000
  H   H50       1.0  0.48650965931644663  0.644877566218831  0.5356152353038013  1.0000
  H   H51       1.0  0.5134707715816234  0.3551182968042426  0.0356020954926777  1.0000
  H   H52       1.0  0.9865109315817406  0.8551243528911954  0.9643818315091863  1.0000
  H   H53       1.0  0.9865032817036695  0.8551262641680991  0.5356071770228326  1.0000
  H   H54       1.0  0.5134913112806104  0.3551234639571064  0.4643881515753635  1.0000
  H   H55       1.0  0.4865009038644673  0.644877585485432  0.9644009350854644  1.0000
  H   H56       1.0  0.013488867245662601  0.14487281630029264  0.035611578974148  1.0000
  H   H57       1.0  0.18300276479948963  0.047386829135078294  0.3355324634805896  1.0000
  H   H58       1.0  0.3170023241793842  0.5474020087751867  0.6644745237640919  1.0000
  H   H59       1.0  0.6830199593968658  0.4526158745045095  0.1644529744001559  1.0000
  H   H60       1.0  0.816995641686674  0.952608930711264  0.8355275719368082  1.0000
  H   H61       1.0  0.8169970340449738  0.952607122601485  0.6644637973975592  1.0000
  H   H62       1.0  0.6829857565235501  0.45260095190490546  0.3355292194181488  1.0000
  H   H63       1.0  0.3169657777005028  0.547386442675446  0.8355468494847713  1.0000
  H   H64       1.0  0.18299126720425118  0.047395960430805  0.1644701141520173  1.0000
  H   H65       1.0  0.236612238263156  0.15494529735595822  0.3520641523641572  1.0000
  H   H66       1.0  0.2633973237309562  0.6549586529117306  0.6479394730463781  1.0000
  H   H67       1.0  0.7366285179210622  0.34505591215994963  0.14791984744992706  1.0000
  H   H68       1.0  0.763382610140312  0.8450557111635463  0.852059785126265  1.0000
  H   H69       1.0  0.7633793578982876  0.8450538023338791  0.6479306833208796  1.0000
  H   H70       1.0  0.7365989596471466  0.3450410902824004  0.35206213233350775  1.0000
  H   H71       1.0  0.26335956276621186  0.6549496224888643  0.8520831831352709  1.0000
  H   H72       1.0  0.23659726788511654  0.15495239745680323  0.14793825726614074  1.0000
  H   H73       1.0  0.045559757682248424  0.13369038727416438  0.32872866109315885  1.0000
  H   H74       1.0  0.4544524218244704  0.6337037903088997  0.6712752808640232  1.0000
  H   H75       1.0  0.5455780468753844  0.3663115604405008  0.1712607290705463  1.0000
  H   H76       1.0  0.9544386663430587  0.8663059746117128  0.8287239314503125  1.0000
  H   H77       1.0  0.9544388693368691  0.8663061384388017  0.6712686686867143  1.0000
  H   H78       1.0  0.5455321434609247  0.3662985268841723  0.3287281060183105  1.0000
  H   H79       1.0  0.4544194082833927  0.633692043712031  0.828742301511717  1.0000
  H   H80       1.0  0.045538868129334324  0.13369248162342026  0.1712744672330757  1.0000
  C   C1        1.0  0.8505678832424053  0.6642381326004311  0.48988734645606513  1.0000
  C   C2        1.0  0.6494502620615706  0.1642447380835463  0.5101133259278541  1.0000
  C   C3        1.0  0.350548983431402  0.8357619089248163  0.010107181248287102  1.0000
  C   C4        1.0  0.1494512177528335  0.3357611416308118  0.98988680593704  1.0000
  C   C5        1.0  0.14944246181599402  0.33576354103492173  0.5101110522263994  1.0000
  C   C6        1.0  0.35055891111714044  0.8357672314517257  0.48988970466082554  1.0000
  C   C7        1.0  0.6494355819304191  0.16423075584378924  0.9898851603334791  1.0000
  C   C8        1.0  0.8505579554862166  0.6642418190009353  0.0101144431445803  1.0000
  C   C9        1.0  0.8050244427895309  0.7004765451520428  0.2891420625129797  1.0000
  C   C10       1.0  0.694986204666222  0.2004861282497856  0.7108611717489951  1.0000
  C   C11       1.0  0.3049984617010324  0.7994921412278657  0.21085710798993057  1.0000
  C   C12       1.0  0.19497759874310822  0.29951635809447197  0.7891442936809981  1.0000
  C   C13       1.0  0.19499058958917462  0.2995103281525147  0.7108598991523465  1.0000
  C   C14       1.0  0.3050112506574933  0.7994910927130974  0.289145778105599  1.0000
  C   C15       1.0  0.6949814164944003  0.20048894070794182  0.7891441410747434  1.0000
  C   C16       1.0  0.805015169246481  0.7004782371635867  0.2108569553947675  1.0000
  C   C17       1.0  0.8514875010736916  0.7340141512804194  0.33582946672972724  1.0000
  C   C18       1.0  0.6485133398065202  0.2340146205629026  0.6641716924515394  1.0000
  C   C19       1.0  0.3514831650784842  0.7659549990161095  0.1641661296224584  1.0000
  C   C20       1.0  0.14850504557344382  0.2659854713700938  0.8358334278300958  1.0000
  C   C21       1.0  0.14851464140627976  0.2659759395050471  0.6641700008420628  1.0000
  C   C22       1.0  0.35149348993065394  0.7659696788018096  0.33583525740854714  1.0000
  C   C23       1.0  0.6485248364213447  0.2340383092129699  0.835830487553828  1.0000
  C   C24       1.0  0.8514970968558586  0.7340123413302067  0.1641667523483719  1.0000
  C   C25       1.0  0.8692417282191017  0.47911641253918447  0.5662532478908489  1.0000
  C   C26       1.0  0.6307747031408228  0.9791103142516349  0.4337505074927108  1.0000
  C   C27       1.0  0.36924219904781114  0.020882182986440505  0.9337354296253082  1.0000
  C   C28       1.0  0.1307702623727138  0.5208937939664298  0.0662515552591074  1.0000
  C   C29       1.0  0.13076158596552293  0.5208897655598861  0.433745507096397  1.0000
  C   C30       1.0  0.3692602498569785  0.020893289821941604  0.5662503852866863  1.0000
  C   C31       1.0  0.6307540843790704  0.9791130557119628  0.0662508548621048  1.0000
  C   C32       1.0  0.8692435980401215  0.4791181755489333  0.9337479123317394  1.0000
  C   C33       1.0  0.03434235142553631  0.587442255435505  0.5505602279040787  1.0000
  C   C34       1.0  0.46567862679557953  0.08744276496102539  0.44943650154809944  1.0000
  C   C35       1.0  0.5343358912670413  0.9125569063181302  0.9494365911292633  1.0000
  C   C36       1.0  0.9656720232720489  0.41256270752564456  0.0505634767837009  1.0000
  C   C37       1.0  0.9656668218286983  0.41255941819451175  0.4494356766804303  1.0000
  C   C38       1.0  0.5343410927370797  0.9125576216544927  0.5505565526361309  1.0000
  C   C39       1.0  0.46564633047540843  0.08743640194880699  0.0505561067531133  1.0000
  C   C40       1.0  0.03433363448728241  0.5874486185269562  0.9494406227039818  1.0000
  C   C41       1.0  0.8959781299016358  0.6000433212825412  0.5260994474309513  1.0000
  C   C42       1.0  0.6040326400124131  0.10004666413486521  0.4738989670896174  1.0000
  C   C43       1.0  0.395968925032996  0.8999628085976425  0.9738972848153863  1.0000
  C   C44       1.0  0.1040339642904584  0.39995570121536156  0.0261025232335328  1.0000
  C   C45       1.0  0.10402987152081523  0.3999615698220326  0.4738993075545253  1.0000
  C   C46       1.0  0.3959788768096217  0.8999614444308718  0.5261012130973555  1.0000
  C   C47       1.0  0.6040168120473128  0.10004272603723757  0.026099688674726503  1.0000
  C   C48       1.0  0.8959716935034053  0.6000511203751699  0.9738973006532134  1.0000
  C   C49       1.0  0.7090151981466662  0.6334710780287837  0.2751943022606866  1.0000
  C   C50       1.0  0.7909904537900944  0.1334713662559537  0.7248080940741843  1.0000
  C   C51       1.0  0.20899417662335654  0.8665050577284887  0.2248073853892407  1.0000
  C   C52       1.0  0.2909950819771866  0.3665256011775995  0.7751962794085189  1.0000
  C   C53       1.0  0.2909916315398108  0.36652223021666697  0.7248069468121869  1.0000
  C   C54       1.0  0.209011688741505  0.8665090721636588  0.2751995683823054  1.0000
  C   C55       1.0  0.7910032786464569  0.1334805286397795  0.7751995644731694  1.0000
  C   C56       1.0  0.709007060511553  0.633462559138387  0.2248060385592865  1.0000
  C   C57       1.0  0.7953738549154112  0.3959985663324018  0.5778924222103967  1.0000
  C   C58       1.0  0.704636616682322  0.8959927552322285  0.4221136718178826  1.0000
  C   C59       1.0  0.29537680006678363  0.10400224509814386  0.9221033990306182  1.0000
  C   C60       1.0  0.20462287216005143  0.6040136415868032  0.07788801691035019  1.0000
  C   C61       1.0  0.20462125661201472  0.6040076117955452  0.4221106083745525  1.0000
  C   C62       1.0  0.2953995081062928  0.1040127793270216  0.5778904276607265  1.0000
  C   C63       1.0  0.704617139734296  0.8959936371137828  0.07788822995357951  1.0000
  C   C64       1.0  0.7953863010379865  0.39599639745402015  0.922109669180621  1.0000
  C   C65       1.0  0.017124281012741  0.509721960403361  0.5765336947906475  1.0000
  C   C66       1.0  0.4828941833601022  0.0097151667504107  0.4234671648923509  1.0000
  C   C67       1.0  0.5171227453615118  0.990272763412186  0.9234609905719893  1.0000
  C   C68       1.0  0.9828853394433139  0.490290239222233  0.07653245300813438  1.0000
  C   C69       1.0  0.9828766895612592  0.4902835742075167  0.42346506019627844  1.0000
  C   C70       1.0  0.5171442850962225  0.9902839328499623  0.5765280270867805  1.0000
  C   C71       1.0  0.48286299185145515  0.0097134664215162  0.0765295695049844  1.0000
  C   C72       1.0  0.017132036380616007  0.5097236607612459  0.9234659456849175  1.0000
  C   C73       1.0  0.07141285245175773  0.0106914732401222  0.41578111747261914  1.0000
  C   C74       1.0  0.42857864780966554  0.5106915759644935  0.5842225944311537  1.0000
  C   C75       1.0  0.5714098603645398  0.4893116616058747  0.08420684129100658  1.0000
  C   C76       1.0  0.92857128538995  0.989309280031648  0.9157816122800639  1.0000
  C   C77       1.0  0.9285892899397584  0.9893127743787103  0.584216212314054  1.0000
  C   C78       1.0  0.5714152919486254  0.4893081672460938  0.4157829302460101  1.0000
  C   C79       1.0  0.42857001773738557  0.5106835771752358  0.915796189285544  1.0000
  C   C80       1.0  0.071413279925828  0.0106891761920735  0.0842174990019373  1.0000
  C   C81       1.0  0.0386000654611109  0.1648067929764494  0.4277664757476458  1.0000
  C   C82       1.0  0.46140468232095344  0.6648054088812783  0.5722360991943419  1.0000
  C   C83       1.0  0.5385873722177836  0.3351913207390352  0.0722250538848996  1.0000
  C   C84       1.0  0.9614004467544677  0.8351991812105979  0.9277609736470822  1.0000
  C   C85       1.0  0.9613985615137751  0.835196811153196  0.5722297851396618  1.0000
  C   C86       1.0  0.5385939446793061  0.3351924038421003  0.4277694254804559  1.0000
  C   C87       1.0  0.4613983648975761  0.6648071355008724  0.9277801144923219  1.0000
  C   C88       1.0  0.03859349299778361  0.16480377942887262  0.0722331494418285  1.0000
  C   C89       1.0  0.14068253244857232  0.10772276606414977  0.3509991398319556  1.0000
  C   C90       1.0  0.3593276381033803  0.6077312530073157  0.6490047535539247  1.0000
  C   C91       1.0  0.6406958572127267  0.3922788141182351  0.1489877334041054  1.0000
  C   C92       1.0  0.85931700591987  0.8922801664314902  0.850993412692688  1.0000
  C   C93       1.0  0.8593160945373769  0.8922789075905868  0.648998189952728  1.0000
  C   C94       1.0  0.6406663016254158  0.3922736381363663  0.3509979207302365  1.0000
  C   C95       1.0  0.35929573894507183  0.6077189986143808  0.8510163660726208  1.0000
  C   C96       1.0  0.14066755935997582  0.1077240812234734  0.14900462969554704  1.0000
  N   N1        1.0  0.0855349771616218  0.09129658049914009  0.3991220411189502  1.0000
  N   N2        1.0  0.41447774870204074  0.5913013436981347  0.6008825341408867  1.0000
  N   N3        1.0  0.5855376680442462  0.4087084302491347  0.1008659142563886  1.0000
  N   N4        1.0  0.9144632653231001  0.9087053582139577  0.8991166877647316  1.0000
  N   N5        1.0  0.9144671652478493  0.9087050931455494  0.6008742197661335  1.0000
  N   N6        1.0  0.5855220500977651  0.408697756007335  0.3991226342352405  1.0000
  N   N7        1.0  0.4144504126734391  0.5912919564644098  0.8991392541223534  1.0000
  N   N8        1.0  0.0855224717940715  0.09129438498752049  0.10088064201969621  1.0000
  O   O1        1.0  0.7935042961017589  0.7003848052531367  0.3736050518972789  1.0000
  O   O2        1.0  0.7065086961863329  0.20038932477022794  0.6263960443897361  1.0000
  O   O3        1.0  0.29350665491052313  0.7995967954324358  0.1263923398805531  1.0000
  O   O4        1.0  0.20649752763103635  0.2996105430832827  0.8736079930737618  1.0000
  O   O5        1.0  0.2065013618003704  0.2996052855255442  0.6263944156740919  1.0000
  O   O6        1.0  0.2935110233790753  0.7996033399727978  0.373610192877166  1.0000
  O   O7        1.0  0.7064849412030371  0.20040809571685975  0.8736106907036145  1.0000
  O   O8        1.0  0.7934964121322995  0.7003892001153673  0.1263936123064013  1.0000
  O   O9        1.0  0.9523141032220864  0.7945891487140456  0.33742929705102404  1.0000
  O   O10       1.0  0.5476800980311864  0.29458935434225003  0.6625719754235107  1.0000
  O   O11       1.0  0.45231875458627263  0.7053796120195912  0.16257518259415352  1.0000
  O   O12       1.0  0.04766437759897711  0.20541305767180518  0.83742996236397  1.0000
  O   O13       1.0  0.0476892110661993  0.20540029858403128  0.6625726646181178  1.0000
  O   O14       1.0  0.45233024712948844  0.7053962319783194  0.3374274921430854  1.0000
  O   O15       1.0  0.5476880751172647  0.2946104787709345  0.8374289168735274  1.0000
  O   O16       1.0  0.9523365930160285  0.7945860420129448  0.1625691489166599  1.0000
  O   O17       1.0  0.9563290317463287  0.7173743032080678  0.4778868523488811  1.0000
  O   O18       1.0  0.5436813979632404  0.21738396442718513  0.5221124942198827  1.0000
  O   O19       1.0  0.456321331952978  0.7826304776170757  0.022113707070879205  1.0000
  O   O20       1.0  0.04368306938466301  0.2826184630044891  0.9778898008249541  1.0000
  O   O21       1.0  0.043673110660861915  0.28262672695910135  0.5221143967317801  1.0000
  O   O22       1.0  0.45630902634983533  0.7826209267080912  0.47788519186852346  1.0000
  O   O23       1.0  0.5436761232076252  0.21737377001407052  0.977884691615536  1.0000
  O   O24       1.0  0.9563202447925934  0.7173883585949027  0.022111448260979206  1.0000
  O   O25       1.0  0.7933996932389961  0.5344574842912451  0.5359496606614229  1.0000
  O   O26       1.0  0.7066095782651873  0.0344532923865586  0.46405397568374707  1.0000
  O   O27       1.0  0.29339318404301207  0.9655477549168694  0.9640396139086747  1.0000
  O   O28       1.0  0.2066030010445843  0.46555060712042007  0.0359471337232335  1.0000
  O   O29       1.0  0.20659893368937793  0.46555255477755253  0.4640505195289037  1.0000
  O   O30       1.0  0.2934136566168632  0.965556746637958  0.5359472734028046  1.0000
  O   O31       1.0  0.706587865865764  0.0344513447607753  0.0359445327858126  1.0000
  O   O32       1.0  0.7934026567322335  0.5344587884420804  0.9640530464656436  1.0000
  O   O33       1.0  0.879664600154108  0.34509691652120006  0.6022796556103529  1.0000
  O   O34       1.0  0.620345355601984  0.8450867780686052  0.397725986913443  1.0000
  O   O35       1.0  0.3796692958837298  0.1549009952513032  0.8977154327982151  1.0000
  O   O36       1.0  0.1203180023859858  0.6549096485800305  0.1022767909364717  1.0000
  O   O37       1.0  0.12034222947801249  0.6549047571307156  0.397721949770073  1.0000
  O   O38       1.0  0.3797083463595783  0.1549091040658581  0.602278112554032  1.0000
  O   O39       1.0  0.6203351901718293  0.8450961739343795  0.1022790465837389  1.0000
  O   O40       1.0  0.8797040606983517  0.3450991034580539  0.8977233892498333  1.0000
  O   O41       1.0  0.8649246800578896  0.7412988449529576  0.2499993617892713  1.0000
  O   O42       1.0  0.6350737232559781  0.24131147196619906  0.7500018110281346  1.0000
  O   O43       1.0  0.364913185778228  0.758670253452003  0.2500005069354785  1.0000
  O   O44       1.0  0.13506925975151776  0.25869381982467127  0.7500018872845473  1.0000
  O   O45       1.0  0.6584881250280575  0.3803110736419981  0.5621097712589318  1.0000
  O   O46       1.0  0.8415084870174995  0.8803067603291339  0.43790306312709504  1.0000
  O   O47       1.0  0.1584931709030499  0.11969605811865588  0.9378867954402565  1.0000
  O   O48       1.0  0.3414957528711611  0.619700394637036  0.06210108685008461  1.0000
  O   O49       1.0  0.3415081583085995  0.6196944609963849  0.4378950408239178  1.0000
  O   O50       1.0  0.1585147478471001  0.1197032787366297  0.5621117253490837  1.0000
  O   O51       1.0  0.8415089714718675  0.8803114069540143  0.06210732765188  1.0000
  O   O52       1.0  0.6585017022700655  0.3803083574203611  0.9378898295462719  1.0000
  O   O53       1.0  0.10371242065086511  0.9450627181514689  0.3919156064540417  1.0000
  O   O54       1.0  0.3962793411681744  0.445064462367469  0.6080896304502375  1.0000
  O   O55       1.0  0.6037067618171789  0.5549434250818309  0.1080771990019684  1.0000
  O   O56       1.0  0.8962729504838693  0.05494625511109059  0.8919140051774904  1.0000
  O   O57       1.0  0.8962932371296405  0.054946033919392796  0.6080849300339608  1.0000
  O   O58       1.0  0.6037192857800237  0.5549417157569394  0.3919144690334733  1.0000
  O   O59       1.0  0.3962637418035514  0.4450556746672091  0.8919236937809529  1.0000
  O   O60       1.0  0.10371747383705814  0.9450560620739238  0.1080904506033207  1.0000
  O   O61       1.0  0.711577509121881  0.6607622041508634  0.4737099270791916  1.0000
  O   O62       1.0  0.7884371656147665  0.16075871879041864  0.526292520293346  1.0000
  O   O63       1.0  0.21157258442590188  0.8392473832922603  0.0262903347862178  1.0000
  O   O64       1.0  0.28843811814144266  0.3392401889915959  0.9737111412049586  1.0000
  O   O65       1.0  0.288421117824008  0.3392446174619295  0.5262927472062131  1.0000
  O   O66       1.0  0.21157903843773349  0.8392487462811361  0.4737101539905524  1.0000
  O   O67       1.0  0.7884295579518084  0.1607581513250409  0.973711270598379  1.0000
  O   O68       1.0  0.7115698832957522  0.6607621281464373  0.026289038977026308  1.0000
