data_image0
_chemical_formula_structural       Zn4H44C32N12Cl4O4
_chemical_formula_sum              "Zn4 H44 C32 N12 Cl4 O4"
_cell_length_a       9.264435807009843
_cell_length_b       11.132948093296271
_cell_length_c       11.438138732013254
_cell_angle_alpha    109.8166702725114
_cell_angle_beta     90.00011168685892
_cell_angle_gamma    90.00007905528854

_space_group_name_H-M_alt    "P 1"
_space_group_IT_number       1

loop_
  _space_group_symop_operation_xyz
  'x, y, z'

loop_
  _atom_site_type_symbol
  _atom_site_label
  _atom_site_symmetry_multiplicity
  _atom_site_fract_x
  _atom_site_fract_y
  _atom_site_fract_z
  _atom_site_occupancy
  Zn  Zn1       1.0  0.7201775325019923  0.6299273658352077  0.3298041288312347  1.0000
  Zn  Zn2       1.0  0.22017623409237796  0.8700720001135238  0.17019488880291087  1.0000
  Zn  Zn3       1.0  0.2798217149411498  0.3700717524643337  0.6701951573400606  1.0000
  Zn  Zn4       1.0  0.7798230133529812  0.1299280738749573  0.8298055861432515  1.0000
  H   H1        1.0  0.5552961784746628  0.5743694181682031  0.12408258548370553  1.0000
  H   H2        1.0  0.0552965466898669  0.9256305882569646  0.37591813080922515  1.0000
  H   H3        1.0  0.4447041483661849  0.42563065490627117  0.8759170148940072  1.0000
  H   H4        1.0  0.9447037801519185  0.0743685318736951  0.6240829045025507  1.0000
  H   H5        1.0  0.49547385690895135  0.6801260099693849  0.04592596552038232  1.0000
  H   H6        1.0  0.9954736108331445  0.8198748385834588  0.4540739752255759  1.0000
  H   H7        1.0  0.5045253905353562  0.31987406310405214  0.9540736348561366  1.0000
  H   H8        1.0  0.0045256366123354  0.18012618926387347  0.5459259393561666  1.0000
  H   H9        1.0  0.368397592504877  0.6015910856989989  0.10959814279836883  1.0000
  H   H10       1.0  0.8683994823749543  0.8984085662671146  0.39040295181442985  1.0000
  H   H11       1.0  0.6316027343359777  0.3984089873754753  0.8904014575793439  1.0000
  H   H12       1.0  0.13160192386572328  0.10159246341237346  0.6095987119090012  1.0000
  H   H13       1.0  0.7106771981440899  0.8955966502957363  0.5737898721898915  1.0000
  H   H14       1.0  0.2106749953768201  0.6044038611950242  0.9262109517887822  1.0000
  H   H15       1.0  0.28932420809319126  0.10440246892091656  0.4262102885534346  1.0000
  H   H16       1.0  0.7893242520685461  0.3955962127934568  0.07378952315738728  1.0000
  H   H17       1.0  0.6442703343288088  0.6040978218175325  0.5840512744158772  1.0000
  H   H18       1.0  0.14426859072810316  0.8959025623509335  0.9159494026833953  1.0000
  H   H19       1.0  0.3557299925130977  0.3959022521719858  0.41594920053148593  1.0000
  H   H20       1.0  0.8557295773207158  0.10409751163651747  0.08405107226158039  1.0000
  H   H21       1.0  0.04972146826491299  0.5319830358993087  0.6514043143991088  1.0000
  H   H22       1.0  0.5497212142899813  0.9680162131319674  0.8485967139413262  1.0000
  H   H23       1.0  0.9502788585758282  0.4680160833163071  0.34859584634302365  1.0000
  H   H24       1.0  0.45027803315432635  0.0319838599414695  0.1514028864351928  1.0000
  H   H25       1.0  0.0256598287062602  0.6836993813031144  0.769684479756286  1.0000
  H   H26       1.0  0.5256590382956857  0.8163026850006074  0.7303165634096159  1.0000
  H   H27       1.0  0.9743415775355829  0.3163026031502767  0.23031749817236857  1.0000
  H   H28       1.0  0.4743412885462205  0.18369738898891086  0.2696839115377472  1.0000
  H   H29       1.0  0.026253294815681696  0.6722857306367657  0.6096659941676776  1.0000
  H   H30       1.0  0.5262518289856573  0.8277144263413233  0.8903335473300159  1.0000
  H   H31       1.0  0.9737481114228856  0.32771529721263437  0.3903339204164523  1.0000
  H   H32       1.0  0.4737474184585364  0.17228469287326215  0.10966661341092988  1.0000
  H   H33       1.0  0.6567353595603648  0.5514449833124928  0.748319896480936  1.0000
  H   H34       1.0  0.1567365462826587  0.9485544681541497  0.7516787448474247  1.0000
  H   H35       1.0  0.34326388788394974  0.4485550897609442  0.2516797038955829  1.0000
  H   H36       1.0  0.8432637805581962  0.0514456049203247  0.2483208555302879  1.0000
  H   H37       1.0  0.7973355881571961  0.6284087793630491  0.8560276168506035  1.0000
  H   H38       1.0  0.2973342291708363  0.871590942590828  0.6439722100267318  1.0000
  H   H39       1.0  0.2026658180800851  0.3715903398536042  0.1439725438927226  1.0000
  H   H40       1.0  0.7026660976700185  0.12840913048363936  0.35602739035098097  1.0000
  H   H41       1.0  0.8200987279434598  0.4674591166662408  0.7559789495598392  1.0000
  H   H42       1.0  0.3200981263030015  0.0325417407537145  0.744021322642375  1.0000
  H   H43       1.0  0.17990159889739488  0.5325409564082334  0.24402065081787325  1.0000
  H   H44       1.0  0.6799022005411286  0.9674592889247435  0.2559803410798552  1.0000
  C   C1        1.0  0.480225523331697  0.7557881251623612  0.24426113471206176  1.0000
  C   C2        1.0  0.9802289920161654  0.7442107846104237  0.25573814390101296  1.0000
  C   C3        1.0  0.5197726447148979  0.2442109931361428  0.7557381514580398  1.0000
  C   C4        1.0  0.019772414221115794  0.2557883346062368  0.7442620168423132  1.0000
  C   C5        1.0  0.47530647924630626  0.6470500833603906  0.1247497310335675  1.0000
  C   C6        1.0  0.9753082571953513  0.8529469065165856  0.3752480337175044  1.0000
  C   C7        1.0  0.5246927681934395  0.3529471244763086  0.8752480521576231  1.0000
  C   C8        1.0  0.024692069644338198  0.1470522117839934  0.6247512524549848  1.0000
  C   C9        1.0  0.550464341227233  0.881116575538108  0.4287131633175178  1.0000
  C   C10       1.0  0.050462387877153986  0.6188834207056431  0.0712866677160591  1.0000
  C   C11       1.0  0.4495370650089896  0.118882542763501  0.5712861228561649  1.0000
  C   C12       1.0  0.949536859568326  0.3811176071416894  0.9287132468656906  1.0000
  C   C13       1.0  0.6212804950818908  0.9399608847438401  0.5416712795654419  1.0000
  C   C14       1.0  0.12127829595779356  0.5600404092043263  0.9583287863195551  1.0000
  C   C15       1.0  0.37871983175662655  0.0600372787828363  0.4583276924018164  1.0000
  C   C16       1.0  0.8787198720923044  0.4399615734158714  0.04167144246622459  1.0000
  C   C17       1.0  0.5678961344683698  0.060216235004837394  0.6118628241037456  1.0000
  C   C18       1.0  0.06789547618307519  0.4397841397788156  0.8881377648417725  1.0000
  C   C19       1.0  0.43210527176773883  0.9397819294379205  0.38813702243435705  1.0000
  C   C20       1.0  0.9321037712634563  0.560216888983561  0.11186302430962065  1.0000
  C   C21       1.0  0.7601014717320139  0.6257553323318489  0.5813955415653068  1.0000
  C   C22       1.0  0.2601007779693276  0.8742452739221631  0.9186053917325409  1.0000
  C   C23       1.0  0.23989993450749128  0.37424474257375107  0.4186058079528934  1.0000
  C   C24       1.0  0.7398984694760316  0.12575480006631778  0.0813950832136214  1.0000
  C   C25       1.0  0.9950408765953612  0.6245784136715145  0.6750561039629872  1.0000
  C   C26       1.0  0.4950399594198344  0.8754216873456995  0.8249441602029959  1.0000
  C   C27       1.0  0.0049605296430855  0.37542166031904145  0.32494437098556966  1.0000
  C   C28       1.0  0.504960367422072  0.12457838664381876  0.17505631474436703  1.0000
  C   C29       1.0  0.773961087337504  0.5604872940241634  0.7627101604815394  1.0000
  C   C30       1.0  0.27396114502979435  0.9395123831148452  0.7372896146972181  1.0000
  C   C31       1.0  0.22603923950217816  0.4395118242764156  0.23728912569094257  1.0000
  C   C32       1.0  0.7260391818121121  0.0604876908746732  0.2627108602501451  1.0000
  N   N1        1.0  0.5772795807109007  0.7649449041683521  0.33523475876561537  1.0000
  N   N2        1.0  0.07728128330822409  0.7350551416620235  0.16476338244313382  1.0000
  N   N3        1.0  0.4227185873347565  0.23505516707396623  0.6647630924704088  1.0000
  N   N4        1.0  0.9227179641360833  0.2649449314114135  0.8352362179333851  1.0000
  N   N5        1.0  0.39057636055367334  0.8575432392420907  0.2715262194177726  1.0000
  N   N6        1.0  0.8905774359391073  0.642457408190694  0.228473489315455  1.0000
  N   N7        1.0  0.6094228868906342  0.1424568338313463  0.7284733809587464  1.0000
  N   N8        1.0  0.10942289090279898  0.3575426657988244  0.7715269856319081  1.0000
  N   N9        1.0  0.8393659664140786  0.6053249071079988  0.6693056308645281  1.0000
  N   N10       1.0  0.33936509503239165  0.8946748945166973  0.8306934144072571  1.0000
  N   N11       1.0  0.1606354398221441  0.3946742111936174  0.33069365530915457  1.0000
  N   N12       1.0  0.6606341524119159  0.1053251785567397  0.16930618596926186  1.0000
  Cl  Cl1       1.0  0.6221249455364911  0.43605271468549484  0.29329327546245304  1.0000
  Cl  Cl2       1.0  0.12212538563770178  0.06394660214489528  0.20670735520931058  1.0000
  Cl  Cl3       1.0  0.37787538130541515  0.5639473593040234  0.7067071994849028  1.0000
  Cl  Cl4       1.0  0.8778749412042046  0.936053471844623  0.7932931197380526  1.0000
  O   O1        1.0  0.8125017911530037  0.6660797900715493  0.49934702957874316  1.0000
  O   O2        1.0  0.3125011041796668  0.8339207076661667  0.0006525064657765639  1.0000
  O   O3        1.0  0.18749961508544996  0.3339202839189994  0.5006534453698066  1.0000
  O   O4        1.0  0.6874981432646406  0.16607936540727755  0.9993470939107352  1.0000
