data_image0
_chemical_formula_structural       Zn3H42C68N6O14
_chemical_formula_sum              "Zn3 H42 C68 N6 O14"
_cell_length_a       9.770232882242375
_cell_length_b       11.5901751534305
_cell_length_c       16.3497725726889
_cell_angle_alpha    74.54033836018054
_cell_angle_beta     72.30400772278924
_cell_angle_gamma    65.02155708915613

_space_group_name_H-M_alt    "P 1"
_space_group_IT_number       1

loop_
  _space_group_symop_operation_xyz
  'x, y, z'

loop_
  _atom_site_type_symbol
  _atom_site_label
  _atom_site_symmetry_multiplicity
  _atom_site_fract_x
  _atom_site_fract_y
  _atom_site_fract_z
  _atom_site_occupancy
  Zn  Zn1       1.0  0.69630856972082  0.40662541725227896  0.3587293843163409  1.0000
  Zn  Zn2       1.0  0.4609983522197112  0.5935125221416726  0.642323490215219  1.0000
  Zn  Zn3       1.0  0.9127714802697398  0.99931446552673  0.000980559397753207  1.0000
  H   H1        1.0  0.3388100926690287  0.6958257752510448  0.15978636891656353  1.0000
  H   H2        1.0  0.19431546807167852  0.3033778009375894  0.8405899437673838  1.0000
  H   H3        1.0  0.9381016804635253  0.006791248766795399  0.2639021248908904  1.0000
  H   H4        1.0  0.20793868309934274  0.9934064744442139  0.7367871551469564  1.0000
  H   H5        1.0  0.2685916253999351  0.7543724529982184  0.4209183680775368  1.0000
  H   H6        1.0  0.44353244830126926  0.24641250157711878  0.5785084505093537  1.0000
  H   H7        1.0  0.9601755221540246  0.0661305442175504  0.4043650981899916  1.0000
  H   H8        1.0  0.4299362925340303  0.9343468129764716  0.5959011542653343  1.0000
  H   H9        1.0  0.8785345782218172  0.9454087476424746  0.44335964057342653  1.0000
  H   H10       1.0  0.2665457746127941  0.055203605267486494  0.5574569708138811  1.0000
  H   H11       1.0  0.04087610407660939  0.8778086786314317  0.780604447580764  1.0000
  H   H12       1.0  0.700005899826138  0.1228615295853572  0.21869432577151574  1.0000
  H   H13       1.0  0.7610236179280178  0.0215568873250618  0.809966439440757  1.0000
  H   H14       1.0  0.5923302686909866  0.9796243761020661  0.19020375586452337  1.0000
  H   H15       1.0  0.6202462036470704  0.1058327842749023  0.6892326284963773  1.0000
  H   H16       1.0  0.4148515589400859  0.8948567090441699  0.31184896850475496  1.0000
  H   H17       1.0  0.7563128260491823  0.0601328774094512  0.5417282238848031  1.0000
  H   H18       1.0  0.3578903752165127  0.9399828841168869  0.45923452877502063  1.0000
  H   H19       1.0  0.8126039393990325  0.5298282931479363  0.16447843569945772  1.0000
  H   H20       1.0  0.5059501961780837  0.4698834454856922  0.836373109618066  1.0000
  H   H21       1.0  0.04650591588502806  0.590920604395663  0.08622473848592452  1.0000
  H   H22       1.0  0.7223998334119841  0.409628107676788  0.9136678482955888  1.0000
  H   H23       1.0  0.24865804609553524  0.5424436428023398  0.16688803864069265  1.0000
  H   H24       1.0  0.95751300763947  0.4583258836911739  0.8319687204486002  1.0000
  H   H25       1.0  0.3481943385572987  0.44107921672498657  0.3063381023578629  1.0000
  H   H26       1.0  0.09622068425259295  0.559238074120138  0.6917267508822746  1.0000
  H   H27       1.0  0.2977606486172348  0.3528257674305522  0.46193655051732213  1.0000
  H   H28       1.0  0.11388101496171982  0.6472089966662153  0.5362281139408296  1.0000
  H   H29       1.0  0.10974735486273345  0.290633241097936  0.5971058903398401  1.0000
  H   H30       1.0  0.9987565725319527  0.7094352719278163  0.40172207466299176  1.0000
  H   H31       1.0  0.8618252323674727  0.251493161771954  0.6589075183860873  1.0000
  H   H32       1.0  0.7734730520357829  0.7480083692468611  0.3411127383410815  1.0000
  H   H33       1.0  0.6828090553144291  0.30466604576968587  0.5604399172596075  1.0000
  H   H34       1.0  0.5483111728392559  0.6946522767774964  0.4406455299717892  1.0000
  H   H35       1.0  0.6912880871781653  0.2778819314724785  0.046971241600445544  1.0000
  H   H36       1.0  0.017360897817034725  0.7213332157775197  0.9537564496124773  1.0000
  H   H37       1.0  0.40417047493230746  0.4036111557664057  0.06935256204855732  1.0000
  H   H38       1.0  0.8791606488026954  0.5962712560223764  0.9303497644693978  1.0000
  H   H39       1.0  0.2333113102852096  0.3042417735195926  0.05167267483087562  1.0000
  H   H40       1.0  0.5907921563892556  0.6958527743942325  0.9478488240634206  1.0000
  H   H41       1.0  0.21205055860903602  0.11041396032076278  0.017469393592385505  1.0000
  H   H42       1.0  0.34059351704232904  0.8896063399492957  0.9821618905189669  1.0000
  C   C1        1.0  0.46942754176031076  0.6028262622862712  0.2976676887809902  1.0000
  C   C2        1.0  0.3696662623661453  0.3971371469320673  0.7021896258394735  1.0000
  C   C3        1.0  0.32107182691594016  0.7158408186490774  0.29009391793674416  1.0000
  C   C4        1.0  0.3268209362762278  0.284149589712456  0.7097890575364616  1.0000
  C   C5        1.0  0.2697656801794255  0.7501027313541256  0.2130149238183279  1.0000
  C   C6        1.0  0.23269473743814453  0.24942097753230288  0.7872918372972962  1.0000
  C   C7        1.0  0.130446239093686  0.8529019690408788  0.20400993620765465  1.0000
  C   C8        1.0  0.18691961958650433  0.14673648620409807  0.7965688971292837  1.0000
  C   C9        1.0  0.07232775667547035  0.881126680478161  0.12320298420605982  1.0000
  C   C10       1.0  0.07610123135246741  0.11823599780425549  0.8778318907849398  1.0000
  C   C11       1.0  0.04465074713256462  0.9244998397539135  0.2719256869830886  1.0000
  C   C12       1.0  0.24048565394775054  0.0756130290070729  0.7285383765222236  1.0000
  C   C13       1.0  0.09347343530084352  0.8893700974464025  0.35028524591042043  1.0000
  C   C14       1.0  0.33264181914911706  0.11108508187999888  0.6497673554582805  1.0000
  C   C15       1.0  0.23121549224042326  0.7842576117415447  0.3595914918332852  1.0000
  C   C16       1.0  0.37468362073460065  0.2162351735343009  0.6401512619094519  1.0000
  C   C17       1.0  0.9884845458424749  0.9613999544504424  0.4243874354030552  1.0000
  C   C18       1.0  0.37378340727462966  0.039094759335633  0.575839696652551  1.0000
  C   C19       1.0  0.9776605415426689  0.9401323436595277  0.5767550200496175  1.0000
  C   C20       1.0  0.494629153552644  0.060236052706628095  0.42318557818297364  1.0000
  C   C21       1.0  0.0566914920010787  0.8856586795132202  0.6459919533930574  1.0000
  C   C22       1.0  0.5887474308189198  0.1148157849154572  0.35354373977089193  1.0000
  C   C23       1.0  0.21704458883756678  0.7866210010255728  0.6374284526115161  1.0000
  C   C24       1.0  0.6423305514085413  0.2133896566933515  0.36169964725026205  1.0000
  C   C25       1.0  0.9769579637058854  0.917993046245705  0.7289005008683987  1.0000
  C   C26       1.0  0.6241485452279248  0.0827417670637161  0.2707261725750811  1.0000
  C   C27       1.0  0.8209962182189939  0.9973444923291481  0.7451628386983346  1.0000
  C   C28       1.0  0.5634500463840908  0.0035176026553003  0.2549993635802323  1.0000
  C   C29       1.0  0.7427448251615586  0.0450634984903147  0.6775164598499117  1.0000
  C   C30       1.0  0.4651338283915224  0.9555102842150873  0.3231512725694969  1.0000
  C   C31       1.0  0.8199142579538617  0.018248528029467095  0.5935307170828639  1.0000
  C   C32       1.0  0.43157401360473086  0.9820745483463397  0.40706626541631874  1.0000
  C   C33       1.0  0.9050297018673277  0.5106049031983773  0.19641346400998577  1.0000
  C   C34       1.0  0.6113438357279364  0.48931029326427466  0.8039383016612405  1.0000
  C   C35       1.0  0.03584153116297269  0.542545853844409  0.15342329455723563  1.0000
  C   C36       1.0  0.7309488954251717  0.45781675699106467  0.8464278519680023  1.0000
  C   C37       1.0  0.14838154379455656  0.5154936766255531  0.19809484638302174  1.0000
  C   C38       1.0  0.8615516379717717  0.4849586099355037  0.8011730098554041  1.0000
  C   C39       1.0  0.13073996690408043  0.4564802994032817  0.28616143122816606  1.0000
  C   C40       1.0  0.8735088034207981  0.543611355745206  0.7130335879468606  1.0000
  C   C41       1.0  0.9933882808040764  0.43067008277105856  0.3246705867022115  1.0000
  C   C42       1.0  0.7488433299209801  0.569170866047827  0.6750971068330786  1.0000
  C   C43       1.0  0.24053009884177357  0.42516707883635957  0.337704127242894  1.0000
  C   C44       1.0  0.004030695941182035  0.5749110767405341  0.6608426669751354  1.0000
  C   C45       1.0  0.2117223022007266  0.3762822373298818  0.42436435073945944  1.0000
  C   C46       1.0  0.013340604227082045  0.6237477054913185  0.5742101423723442  1.0000
  C   C47       1.0  0.07164939609937446  0.3532905383954201  0.46581658495194495  1.0000
  C   C48       1.0  0.891653921205034  0.6465860878626728  0.5333682141765337  1.0000
  C   C49       1.0  0.963726780265013  0.37845470410137233  0.4156949814530579  1.0000
  C   C50       1.0  0.7583473746063023  0.6213370677067118  0.5841050467268901  1.0000
  C   C51       1.0  0.03188342404537539  0.3079956186777864  0.5557591340778529  1.0000
  C   C52       1.0  0.8966829118697673  0.691853044182011  0.4435230545013696  1.0000
  C   C53       1.0  0.8945160008688409  0.2878706501967727  0.5901417157207334  1.0000
  C   C54       1.0  0.7734894129663701  0.7116868076186406  0.4098023392259904  1.0000
  C   C55       1.0  0.7945673451462623  0.3148370087104979  0.535292237453767  1.0000
  C   C56       1.0  0.645263920698383  0.6845835248787537  0.4652366553115428  1.0000
  C   C57       1.0  0.6128925576415938  0.23855671516464128  0.039472315666216715  1.0000
  C   C58       1.0  0.8919635658868542  0.7607529290865145  0.9611877693761247  1.0000
  C   C59       1.0  0.45232997263543956  0.3077352697970426  0.05185598942260581  1.0000
  C   C60       1.0  0.8134520491398972  0.6919639335201069  0.948154931307336  1.0000
  C   C61       1.0  0.3582953351413352  0.2525114151721723  0.042225084202044606  1.0000
  C   C62       1.0  0.6543407667911506  0.7473015702484175  0.95765324315105  1.0000
  C   C63       1.0  0.4245319637485352  0.126802440235636  0.02092038449304569  1.0000
  C   C64       1.0  0.5729166672633428  0.8728331222440031  0.9792579510413192  1.0000
  C   C65       1.0  0.3371387401704454  0.0609582797868953  0.010110513949655307  1.0000
  C   C66       1.0  0.4086360469544276  0.9389202749814273  0.9897142864119816  1.0000
  C   C67       1.0  0.5874498639544968  0.06426663908249  0.010267476717196255  1.0000
  C   C68       1.0  0.6622458848684538  0.9350304698521866  0.9904465939245741  1.0000
  N   N1        1.0  0.8848238003471279  0.45678403976413756  0.27975203532376725  1.0000
  N   N2        1.0  0.6210622109986585  0.5429170920632416  0.7205823679924208  1.0000
  N   N3        1.0  0.8283595986773165  0.3595572323802827  0.45081815633885475  1.0000
  N   N4        1.0  0.6390655109949817  0.6400966509465178  0.5496596378069185  1.0000
  N   N5        1.0  0.6782377127997705  0.120842379376974  0.01839063764039389  1.0000
  N   N6        1.0  0.8178744299470466  0.878213665779242  0.9826874803990224  1.0000
  O   O1        1.0  0.5417432411145668  0.5370737060733504  0.23690796886144486  1.0000
  O   O2        1.0  0.31545105320194033  0.4622041177590503  0.7632882367186085  1.0000
  O   O3        1.0  0.5151684219826219  0.5758059054861774  0.36935152887052425  1.0000
  O   O4        1.0  0.45991321935080975  0.4251246516113483  0.630210912743003  1.0000
  O   O5        1.0  0.13594376626075894  0.8043719734162948  0.06895776951621001  1.0000
  O   O6        1.0  0.008075899438807682  0.19502734656045106  0.9320663678723095  1.0000
  O   O7        1.0  0.9533366005168843  0.9872689906446084  0.1137573720894097  1.0000
  O   O8        1.0  0.05448111110008087  0.0117446272866033  0.887607889276886  1.0000
  O   O9        1.0  0.06280087642314652  0.914138918555679  0.49612342857101766  1.0000
  O   O10       1.0  0.4731871891210346  0.0861629442076293  0.5036587255109809  1.0000
  O   O11       1.0  0.27426638049709584  0.7168147163140545  0.5773442528439006  1.0000
  O   O12       1.0  0.5683555003757447  0.2839827735777618  0.4215067963883215  1.0000
  O   O13       1.0  0.29357228793514867  0.7662183270717761  0.6945354976117601  1.0000
  O   O14       1.0  0.7572736442198434  0.2325079428355039  0.30495840579081357  1.0000
