data_image0
_chemical_formula_structural       Er8H72C114O66F36
_chemical_formula_sum              "Er8 H72 C114 O66 F36"
_cell_length_a       7.877943558294941
_cell_length_b       21.289736803033037
_cell_length_c       22.889665345357482
_cell_angle_alpha    82.75839039068796
_cell_angle_beta     82.35157432721493
_cell_angle_gamma    80.13087405200844

_space_group_name_H-M_alt    "P 1"
_space_group_IT_number       1

loop_
  _space_group_symop_operation_xyz
  'x, y, z'

loop_
  _atom_site_type_symbol
  _atom_site_label
  _atom_site_symmetry_multiplicity
  _atom_site_fract_x
  _atom_site_fract_y
  _atom_site_fract_z
  _atom_site_occupancy
  Er  Er1       1.0  0.19651136051157184  0.5774641725322451  0.71252892967734  1.0000
  Er  Er2       1.0  0.6198114741972701  0.5282778887614654  0.565772718441437  1.0000
  Er  Er3       1.0  0.5313364452702559  0.7526945663897847  0.9031405558985026  1.0000
  Er  Er4       1.0  0.7676829359134911  0.9053666769860058  0.9636415962479744  1.0000
  Er  Er5       1.0  0.803480898043709  0.42253729830952824  0.28746664772921793  1.0000
  Er  Er6       1.0  0.3801918117490573  0.47171879449097526  0.43423427406944626  1.0000
  Er  Er7       1.0  0.46865549853837524  0.2473107442330189  0.09685895017464217  1.0000
  Er  Er8       1.0  0.2323204748627248  0.09463575234531867  0.036359904370279104  1.0000
  H   H1        1.0  0.4974169185466194  0.5826381307915369  0.7773387370655197  1.0000
  H   H2        1.0  0.3714950059481905  0.5377234981263259  0.815023332554311  1.0000
  H   H3        1.0  0.9904603812972822  0.5463100241144473  0.832923788659208  1.0000
  H   H4        1.0  0.07382287770241892  0.6093653504997718  0.8328522259042757  1.0000
  H   H5        1.0  0.804133666359391  0.5978257716087895  0.7408012102769559  1.0000
  H   H6        1.0  0.8506949192965152  0.5459872151084679  0.6953428101199606  1.0000
  H   H7        1.0  0.9217192918448234  0.5765115321211879  0.5973195118860344  1.0000
  H   H8        1.0  0.003208683174996579  0.5323464484797993  0.5483459822851131  1.0000
  H   H9        1.0  0.1538389216827483  0.7381098392922067  0.9480179544692856  1.0000
  H   H10       1.0  0.18235095236434526  0.7302231982768389  0.878297428839822  1.0000
  H   H11       1.0  0.8910780792081707  0.691808056098047  0.8902427441311288  1.0000
  H   H12       1.0  0.8636420630914474  0.6945631019018207  0.9586136994299252  1.0000
  H   H13       1.0  0.556643840026716  0.6314943758709359  0.860823248001523  1.0000
  H   H14       1.0  0.3925627094539479  0.6391924264393934  0.9080558803026262  1.0000
  H   H15       1.0  0.09119975222898095  0.9667099781321862  0.9475940729118262  1.0000
  H   H16       1.0  0.12793132556230807  0.899623051957384  0.9187406355826226  1.0000
  H   H17       1.0  0.6133105874401538  0.0418731102121512  0.9232878053554712  1.0000
  H   H18       1.0  0.8169554790822742  0.040540961598708194  0.9183365742229694  1.0000
  H   H19       1.0  0.43091452226818205  0.3609850439545922  0.7556074082302331  1.0000
  H   H20       1.0  0.45908821771722325  0.2868871370151069  0.5579489254259185  1.0000
  H   H21       1.0  0.5570430341720324  0.20976338128666328  0.640038139714413  1.0000
  H   H22       1.0  0.6328138248470123  0.23334706293341165  0.877850866136164  1.0000
  H   H23       1.0  0.0067593673054915145  0.25412948388262174  0.8559341216421572  1.0000
  H   H24       1.0  0.21943693296883995  0.2564653402946034  0.7665639828190434  1.0000
  H   H25       1.0  0.6714705796280568  0.711737476483158  0.5635766182413134  1.0000
  H   H26       1.0  0.6715592658421272  0.8176978105184317  0.7438746530748331  1.0000
  H   H27       1.0  0.774880900754212  0.870534750543129  0.6467230993672854  1.0000
  H   H28       1.0  0.025295608632127757  0.733019346570728  0.5887578379020153  1.0000
  H   H29       1.0  0.013094137353256517  0.6853327553015091  0.3832910240413908  1.0000
  H   H30       1.0  0.8474025774954584  0.7869260980382432  0.4161959532496481  1.0000
  H   H31       1.0  0.3555786190683677  0.9033473862746247  0.7840944380289513  1.0000
  H   H32       1.0  0.16252348881057793  0.12444455166257032  0.8382825001057126  1.0000
  H   H33       1.0  0.09886554880127109  0.0972086369773209  0.7431964035108007  1.0000
  H   H34       1.0  0.96681747181232  0.93277525386852  0.7918802209228698  1.0000
  H   H35       1.0  0.24075005218475104  0.7523131566582676  0.6781267777439693  1.0000
  H   H36       1.0  0.300267256434502  0.8611352048101819  0.6411187996065806  1.0000
  H   H37       1.0  0.5025829686019846  0.4173604629422627  0.22266032278754713  1.0000
  H   H38       1.0  0.6284881513614378  0.46228133319803527  0.18497139464012943  1.0000
  H   H39       1.0  0.009550772914209948  0.45368616828517355  0.16707765504011007  1.0000
  H   H40       1.0  0.9261663706168404  0.3906342132932322  0.1671507068050744  1.0000
  H   H41       1.0  0.19587724474727244  0.4021771363926804  0.25920381822103167  1.0000
  H   H42       1.0  0.14929363905755372  0.4540291129097155  0.3046476842512362  1.0000
  H   H43       1.0  0.07831095407674837  0.42348175494319656  0.40266741156825947  1.0000
  H   H44       1.0  0.9968161184242559  0.46765068040369334  0.4516437965136077  1.0000
  H   H45       1.0  0.8461566056520197  0.26190217920901654  0.051980591310446314  1.0000
  H   H46       1.0  0.81763310304774  0.2697825971303586  0.12170238514656259  1.0000
  H   H47       1.0  0.10890975300204529  0.30819486233905014  0.10975854627094608  1.0000
  H   H48       1.0  0.13634138589608827  0.30544413135447  0.0413855354937809  1.0000
  H   H49       1.0  0.4433404937201003  0.36850471455417017  0.13918215275826643  1.0000
  H   H50       1.0  0.607422770455251  0.36081001685221287  0.09194775969866949  1.0000
  H   H51       1.0  0.9088066122399708  0.033291486978427494  0.0524043469452948  1.0000
  H   H52       1.0  0.8720627421231911  0.10038320517127627  0.0812494855864685  1.0000
  H   H53       1.0  0.38668249589814263  0.9581264483859397  0.07671276596942529  1.0000
  H   H54       1.0  0.18303245832206025  0.9594648427732435  0.08167310714172517  1.0000
  H   H55       1.0  0.5690868475984345  0.6390130694388033  0.24439163983760884  1.0000
  H   H56       1.0  0.5409226116819283  0.7131128921313418  0.4420538264908202  1.0000
  H   H57       1.0  0.4429663108314869  0.7902371276944747  0.3599641872460211  1.0000
  H   H58       1.0  0.36717444400236593  0.7666640095829392  0.12215468100087178  1.0000
  H   H59       1.0  0.9932327748079713  0.7458662434087768  0.1440691313646667  1.0000
  H   H60       1.0  0.7805505560530293  0.743532306458185  0.23343838462000116  1.0000
  H   H61       1.0  0.3285677349589804  0.2882519856954957  0.4364234908538548  1.0000
  H   H62       1.0  0.32843454539538197  0.18230605529804217  0.2561201319370666  1.0000
  H   H63       1.0  0.2250974501144895  0.12946624556679606  0.35326880954603707  1.0000
  H   H64       1.0  0.9747161984815235  0.26697827621507025  0.411237289869156  1.0000
  H   H65       1.0  0.9869088266403523  0.31467061978476346  0.6166990264163914  1.0000
  H   H66       1.0  0.15259326298610182  0.21307297730784572  0.5838028000983115  1.0000
  H   H67       1.0  0.644449113154863  0.09665502010111743  0.21590069640448914  1.0000
  H   H68       1.0  0.8374540159617108  0.8755554960412935  0.1617178610029981  1.0000
  H   H69       1.0  0.9011092420278856  0.9027856583340178  0.2568025800773129  1.0000
  H   H70       1.0  0.033174593548721994  0.0672266989533625  0.20811749275094368  1.0000
  H   H71       1.0  0.7592707065982935  0.24768160077331194  0.3218826917862856  1.0000
  H   H72       1.0  0.6997569258148885  0.1388605038011832  0.35888602995081686  1.0000
  C   C1        1.0  0.5697495820360245  0.23541237015169966  0.758084513809237  1.0000
  C   C2        1.0  0.5041116990742651  0.2797217594537003  0.7045557330015625  1.0000
  C   C3        1.0  0.4425859218826459  0.34425464673486766  0.711955165714883  1.0000
  C   C4        1.0  0.39830783997194913  0.3889719708772929  0.663999298906198  1.0000
  C   C5        1.0  0.405251451834161  0.36787150491497295  0.607770048371371  1.0000
  C   C6        1.0  0.45656410468995295  0.3027294345487164  0.6014378061009892  1.0000
  C   C7        1.0  0.5102913352297874  0.2592028953256643  0.6484188118752952  1.0000
  C   C8        1.0  0.3403688843485994  0.456840049216204  0.6780605960574346  1.0000
  C   C9        1.0  0.37284942792815207  0.41007345824323954  0.5518402158110476  1.0000
  C   C10       1.0  0.4431075482746749  0.2428185667904471  0.8148910881397239  1.0000
  C   C11       1.0  0.49705669470403535  0.2371593322032979  0.8713490248271042  1.0000
  C   C12       1.0  0.37682241516825593  0.2339700623609744  0.9219622729007069  1.0000
  C   C13       1.0  0.19952383135144203  0.2375881703215228  0.9169070293515699  1.0000
  C   C14       1.0  0.14436540073246118  0.24826830005051892  0.8605169178171505  1.0000
  C   C15       1.0  0.26474862632971957  0.2500537145001259  0.8101940779230644  1.0000
  C   C16       1.0  0.4331577233097192  0.22744400109048968  0.98211883426584  1.0000
  C   C17       1.0  0.07157015249472212  0.22828841186623808  0.971230067460837  1.0000
  C   C18       1.0  0.752082277831718  0.25122858114367835  0.7645664237632771  1.0000
  C   C19       1.0  0.5926008086559731  0.1631687008734843  0.7475337514510726  1.0000
  C   C20       1.0  0.8005631969824164  0.8219172406196332  0.5344808172261536  1.0000
  C   C21       1.0  0.7309020970062151  0.7954341104229384  0.5973428190523009  1.0000
  C   C22       1.0  0.6713830773831402  0.7362531064917731  0.6025856337864253  1.0000
  C   C23       1.0  0.6152221427230274  0.7062925473837536  0.6575888348247076  1.0000
  C   C24       1.0  0.6163528018815113  0.7355166146380653  0.7092422773612055  1.0000
  C   C25       1.0  0.6708236617136903  0.7952682077183653  0.7038052551450489  1.0000
  C   C26       1.0  0.7294835558224121  0.8248343663326595  0.6486377890777959  1.0000
  C   C27       1.0  0.5439147608389518  0.6453162861515266  0.658404418585782  1.0000
  C   C28       1.0  0.5715902975939002  0.7034557109366658  0.7699554991801348  1.0000
  C   C29       1.0  0.9200397020391121  0.7664655254076679  0.5056207748629262  1.0000
  C   C30       1.0  0.023056397606623636  0.7237384326263764  0.543176933592349  1.0000
  C   C31       1.0  0.115756631555513  0.6666602435052978  0.5247933696261028  1.0000
  C   C32       1.0  0.10812247255631047  0.652240699985036  0.466991533191404  1.0000
  C   C33       1.0  0.01716110794061625  0.6971090143055034  0.42797364933483795  1.0000
  C   C34       1.0  0.9229257170411103  0.7540487278598889  0.4469316193004785  1.0000
  C   C35       1.0  0.21800818363914945  0.6229422105686523  0.5690194639165681  1.0000
  C   C36       1.0  0.1800711716918287  0.5869367843608514  0.45030628535341316  1.0000
  C   C37       1.0  0.6396502862523405  0.8488503682752934  0.5008787508010498  1.0000
  C   C38       1.0  0.9092734397656556  0.8766748364188429  0.5339010309587378  1.0000
  C   C39       1.0  0.17886721256888918  0.9749686442161472  0.6996980792383597  1.0000
  C   C40       1.0  0.22084506441066049  0.9978423459088787  0.7564902314639209  1.0000
  C   C41       1.0  0.3144044638706731  0.9524976848372048  0.7945957863668338  1.0000
  C   C42       1.0  0.349274203629065  0.9674575109417134  0.8488521130127535  1.0000
  C   C43       1.0  0.2944309433968612  0.029938613223421805  0.8647812081772555  1.0000
  C   C44       1.0  0.20684480294445248  0.07609193741919282  0.8257991057627905  1.0000
  C   C45       1.0  0.16990030623520613  0.060318584552469204  0.7720309671670119  1.0000
  C   C46       1.0  0.42969796876347727  0.9150573800882569  0.8912875149176783  1.0000
  C   C47       1.0  0.2941744309181828  0.045913793214033695  0.9265410744703002  1.0000
  C   C48       1.0  0.14072805919796139  0.9057346593605046  0.7142969013011606  1.0000
  C   C49       1.0  0.027927959100949723  0.8939646025730992  0.7657685344955636  1.0000
  C   C50       1.0  0.9919771296649811  0.8326816022570187  0.7862688930205335  1.0000
  C   C51       1.0  0.07239242989532367  0.78058384442307  0.7549378749502293  1.0000
  C   C52       1.0  0.17916649925876274  0.7927441536106982  0.7022412354722006  1.0000
  C   C53       1.0  0.2137225614199634  0.8544642154395634  0.681811175001293  1.0000
  C   C54       1.0  0.8578699898969334  0.8277599255809843  0.8387861315809528  1.0000
  C   C55       1.0  0.06197488672476942  0.7117493607506802  0.77672165373108  1.0000
  C   C56       1.0  0.3390065436355272  0.9817576799286554  0.6530237988482952  1.0000
  C   C57       1.0  0.014818327832216498  0.015939521538889802  0.6751515248752253  1.0000
  C   C58       1.0  0.430246551801055  0.7645891076320267  0.24191918400952508  1.0000
  C   C59       1.0  0.4958817991719541  0.7202768437811071  0.29544799039479125  1.0000
  C   C60       1.0  0.5574130822620373  0.6557429874674269  0.28804273801997476  1.0000
  C   C61       1.0  0.6016822812855408  0.6110285494129996  0.3360021694721951  1.0000
  C   C62       1.0  0.5947498380025634  0.6321237301291089  0.3922271598567518  1.0000
  C   C63       1.0  0.5434433594637654  0.6972725151931272  0.39856574798847066  1.0000
  C   C64       1.0  0.48970337251031987  0.7407928311995419  0.351585196163377  1.0000
  C   C65       1.0  0.659610098108864  0.5431595166301546  0.3219384430414749  1.0000
  C   C66       1.0  0.6271709607469519  0.5899251222812012  0.4481587699154018  1.0000
  C   C67       1.0  0.5568862948375111  0.7571853086343765  0.18511199496118275  1.0000
  C   C68       1.0  0.5029285853004594  0.762843591045609  0.1286550044753412  1.0000
  C   C69       1.0  0.6231656119138124  0.7660323746017139  0.07803731797564238  1.0000
  C   C70       1.0  0.8004659533504037  0.7624161831756736  0.08309269005355452  1.0000
  C   C71       1.0  0.8556274144145419  0.7517288636954759  0.13948526015985857  1.0000
  C   C72       1.0  0.735248042290081  0.7499434496136884  0.18981054282629367  1.0000
  C   C73       1.0  0.5668307668355085  0.772560349249893  0.017877450432671138  1.0000
  C   C74       1.0  0.9284120254227869  0.7717188253130658  0.02877184713763372  1.0000
  C   C75       1.0  0.2479045749863788  0.7487767431483617  0.23544205404282784  1.0000
  C   C76       1.0  0.40740599420751533  0.8368318159536725  0.25247393485889086  1.0000
  C   C77       1.0  0.1994551541383202  0.178077024978279  0.46551658943293717  1.0000
  C   C78       1.0  0.2691140933301241  0.20455919754367358  0.4026543641972394  1.0000
  C   C79       1.0  0.3286452613424018  0.2637387591664648  0.3974146526860521  1.0000
  C   C80       1.0  0.38478564624303163  0.2937055656112689  0.34241341104733175  1.0000
  C   C81       1.0  0.38365652299063413  0.26448388827464697  0.2907548087008961  1.0000
  C   C82       1.0  0.32918585803030714  0.20473181371993823  0.2961901313913343  1.0000
  C   C83       1.0  0.27052203712934647  0.17516277841131261  0.3513550618126259  1.0000
  C   C84       1.0  0.4560845249179336  0.3546837469484814  0.34159537242917537  1.0000
  C   C85       1.0  0.4284215179078288  0.29654191437764865  0.23004181229867976  1.0000
  C   C86       1.0  0.07996866315443901  0.23353114063561967  0.4943741887243006  1.0000
  C   C87       1.0  0.9769653870461424  0.27625678718553814  0.45681845354304323  1.0000
  C   C88       1.0  0.8842485599092312  0.33333786064758186  0.4751998231250737  1.0000
  C   C89       1.0  0.891882322454265  0.3477583650938527  0.5330033116451174  1.0000
  C   C90       1.0  0.9828392020083853  0.30289148066913185  0.5720116225437406  1.0000
  C   C91       1.0  0.0770927656977278  0.24594218297131926  0.5530666154084398  1.0000
  C   C92       1.0  0.781995653370444  0.37705301814651176  0.4309736951866085  1.0000
  C   C93       1.0  0.819932142278347  0.41306276156414146  0.5496890080098495  1.0000
  C   C94       1.0  0.36036046479452466  0.15114678302753498  0.49912259801749304  1.0000
  C   C95       1.0  0.0907391255220276  0.12331799981957658  0.4661007448232794  1.0000
  C   C96       1.0  0.8211239166001647  0.0250294788161511  0.30030362634195734  1.0000
  C   C97       1.0  0.7791403270805545  0.0021572165048979997  0.24350938499001973  1.0000
  C   C98       1.0  0.6855954216003111  0.04750090839088729  0.2054028367447031  1.0000
  C   C99       1.0  0.6507199592626163  0.032542526219188496  0.1511483516461567  1.0000
  C   C100      1.0  0.7055532436333251  0.9700638274170645  0.1352194338589569  1.0000
  C   C101      1.0  0.793132095403287  0.9239095481337782  0.1742006762832418  1.0000
  C   C102      1.0  0.8300860914899675  0.9396785800975989  0.22796844974732977  1.0000
  C   C103      1.0  0.5703061133686588  0.08494648519197058  0.10871247392923779  1.0000
  C   C104      1.0  0.7058153487508176  0.9540905587660548  0.07345733471024117  1.0000
  C   C105      1.0  0.8592735156062047  0.09426297559270579  0.28570306769012177  1.0000
  C   C106      1.0  0.9720708602375581  0.10603351613780629  0.23423368921417873  1.0000
  C   C107      1.0  0.008030541103892102  0.16731986955033307  0.21373601873389694  1.0000
  C   C108      1.0  0.927622244588555  0.21941618256268203  0.24506513603122215  1.0000
  C   C109      1.0  0.8208517688946984  0.2072534814192792  0.2977680086413485  1.0000
  C   C110      1.0  0.7862952901479473  0.14553437444800468  0.3181944802992688  1.0000
  C   C111      1.0  0.14212532754520169  0.17224346697493328  0.1612147560270998  1.0000
  C   C112      1.0  0.9380321126881838  0.2882506751077755  0.22328476979468795  1.0000
  C   C113      1.0  0.6609810937028299  0.018245719982857598  0.3469791910794982  1.0000
  C   C114      1.0  0.9851729077907196  0.9840552391411632  0.32484445763201114  1.0000
  O   O1        1.0  0.21337624139412986  0.46725135826444125  0.7184704923132301  1.0000
  O   O2        1.0  0.41671371919039774  0.5033863874559118  0.6530175821963125  1.0000
  O   O3        1.0  0.4364842177742361  0.46244206611741834  0.5410522021116008  1.0000
  O   O4        1.0  0.2962309443203354  0.3919634630269183  0.5132330837682557  1.0000
  O   O5        1.0  0.35428615929716045  0.1933225586046063  0.024505849130015588  1.0000
  O   O6        1.0  0.5479962088549114  0.2579252734913311  0.9934560637092387  1.0000
  O   O7        1.0  0.047322160962650635  0.17046441989079844  0.9875762904046324  1.0000
  O   O8        1.0  0.9968028474574879  0.2765282198985872  0.9966579772721005  1.0000
  O   O9        1.0  0.39088804479759887  0.6444396650306243  0.6840173863214785  1.0000
  O   O10       1.0  0.6379228248202791  0.6003868582795563  0.6323887417852347  1.0000
  O   O11       1.0  0.4910977007078686  0.7385670449929761  0.8088313880228172  1.0000
  O   O12       1.0  0.6216854194848126  0.642608063067847  0.7812653253547595  1.0000
  O   O13       1.0  0.13304239850269536  0.6092211316745733  0.6197725502449457  1.0000
  O   O14       1.0  0.377255791056541  0.605636038403105  0.5551004829876189  1.0000
  O   O15       1.0  0.25226693878884987  0.5775123322043926  0.3985149113265009  1.0000
  O   O16       1.0  0.17024227992307311  0.5398149867515157  0.49120888171123755  1.0000
  O   O17       1.0  0.41507556382472915  0.8577488485980991  0.8845494507652488  1.0000
  O   O18       1.0  0.5000831265685619  0.9315331593176164  0.9326376899876575  1.0000
  O   O19       1.0  0.4005519742833242  0.07866639470559988  0.9410929660480107  1.0000
  O   O20       1.0  0.16974491762389485  0.030014618522145  0.9643685316384206  1.0000
  O   O21       1.0  0.7556988781004607  0.7874502766390845  0.8404815455023422  1.0000
  O   O22       1.0  0.8490720974161047  0.8670004752588267  0.8770157865582603  1.0000
  O   O23       1.0  0.05480976012193388  0.6747779223280473  0.7381355476906604  1.0000
  O   O24       1.0  0.07141166757753577  0.6918872590794223  0.8318738777974487  1.0000
  O   O25       1.0  0.42451425900008377  0.5494856980576087  0.7750303338459329  1.0000
  O   O26       1.0  0.09819868249594069  0.5637935505380014  0.8229514680515564  1.0000
  O   O27       1.0  0.8984338803853973  0.564696039050645  0.7251158285432452  1.0000
  O   O28       1.0  0.9084677268009217  0.5371238773037276  0.5816840273519119  1.0000
  O   O29       1.0  0.2396280889682316  0.7406137269476858  0.9111502827829765  1.0000
  O   O30       1.0  0.8036488400932243  0.6874981505086453  0.9252049176715004  1.0000
  O   O31       1.0  0.518111345885295  0.6377316864017145  0.9032992385529183  1.0000
  O   O32       1.0  0.03786995164932721  0.9340057489578508  0.9316959778479867  1.0000
  O   O33       1.0  0.728298642946804  0.014000524079342793  0.9180268041280609  1.0000
  O   O34       1.0  0.786617858243801  0.5327458056041577  0.28153249992123347  1.0000
  O   O35       1.0  0.5832501511194509  0.496615581885308  0.34697881399163316  1.0000
  O   O36       1.0  0.5635355079330254  0.5375550809866283  0.4589504790938219  1.0000
  O   O37       1.0  0.7038018189948971  0.6080360573986993  0.48675647999083776  1.0000
  O   O38       1.0  0.6457075170447696  0.8066755580987742  0.9754918073253476  1.0000
  O   O39       1.0  0.4519860323163556  0.7420848369802684  0.0065433233136858145  1.0000
  O   O40       1.0  0.9526645150195062  0.8295351426455894  0.012424140306762924  1.0000
  O   O41       1.0  0.003188556613324043  0.7234723000086162  0.0033438686222098113  1.0000
  O   O42       1.0  0.609124112292619  0.35555412859388713  0.3159829843551804  1.0000
  O   O43       1.0  0.362076304154293  0.39961652200162223  0.3676036700569937  1.0000
  O   O44       1.0  0.5089040706457624  0.26143010899152586  0.19116731818427005  1.0000
  O   O45       1.0  0.3783242917758118  0.3573914758846398  0.21872748817284557  1.0000
  O   O46       1.0  0.8669654868515622  0.3907736159340017  0.3802213521048542  1.0000
  O   O47       1.0  0.6227410288171381  0.3943606310880482  0.44489108295631025  1.0000
  O   O48       1.0  0.747725727963896  0.4224881812512891  0.6014820711854084  1.0000
  O   O49       1.0  0.8297816873230842  0.46018119726583245  0.5087924064735603  1.0000
  O   O50       1.0  0.5849260792660328  0.14225166116450788  0.11544930087506339  1.0000
  O   O51       1.0  0.4999267347639247  0.0684630304308911  0.06736075574657009  1.0000
  O   O52       1.0  0.5994371273192914  0.9213365193027837  0.05890520793776941  1.0000
  O   O53       1.0  0.8302476258988275  0.9699892522287499  0.03562980653129702  1.0000
  O   O54       1.0  0.2442756594804365  0.2125598341082835  0.1595138294589376  1.0000
  O   O55       1.0  0.15092787479523648  0.1330009983413944  0.12298642335910866  1.0000
  O   O56       1.0  0.9452296143049708  0.3252182611377705  0.26187376461742656  1.0000
  O   O57       1.0  0.9285636617296759  0.3081180752346099  0.16813688000520693  1.0000
  O   O58       1.0  0.575481374866321  0.4505138552229795  0.2249670618370628  1.0000
  O   O59       1.0  0.9018025624630326  0.4362079196449145  0.1770484989325638  1.0000
  O   O60       1.0  0.10156849563741589  0.4353087794474531  0.2748784470086533  1.0000
  O   O61       1.0  0.09156354380836254  0.4628670175596738  0.4183075007195781  1.0000
  O   O62       1.0  0.760365134298489  0.2593915822806209  0.08884872732303958  1.0000
  O   O63       1.0  0.19633521531886092  0.31250764489855226  0.0747948963148914  1.0000
  O   O64       1.0  0.48187581832423376  0.3622697970978948  0.096704437103547  1.0000
  O   O65       1.0  0.9621287926143792  0.06599859578925299  0.06830114327027559  1.0000
  O   O66       1.0  0.2717011209717698  0.986001426949677  0.08197361138281416  1.0000
  F   F1        1.0  0.8528239644234431  0.2561842549420134  0.7117873514179465  1.0000
  F   F2        1.0  0.8442501025204194  0.20510264272281373  0.8007581347418334  1.0000
  F   F3        1.0  0.7391916701560248  0.3076801131047375  0.7880477907535873  1.0000
  F   F4        1.0  0.7249469759044302  0.14715735919759246  0.704755280641592  1.0000
  F   F5        1.0  0.445588140559046  0.14921916012832528  0.7303552708708378  1.0000
  F   F6        1.0  0.6258006359879715  0.12332348824957506  0.7973973525966043  1.0000
  F   F7        1.0  0.5540306160431  0.8008308147406783  0.4918104613110329  1.0000
  F   F8        1.0  0.523120714750334  0.8901691898125248  0.5322916558935232  1.0000
  F   F9        1.0  0.6808974204497319  0.8803647284255331  0.4468562400520141  1.0000
  F   F10       1.0  0.9897013883039919  0.891670967991217  0.4789130226047148  1.0000
  F   F11       1.0  0.8126915555145329  0.9316448240755549  0.5518830643642261  1.0000
  F   F12       1.0  0.03638002725519134  0.8580217851933084  0.5704396837938788  1.0000
  F   F13       1.0  0.3875655889971695  0.0403217208350952  0.6507479815352324  1.0000
  F   F14       1.0  0.47797454643374254  0.9378433055630209  0.6681044261283587  1.0000
  F   F15       1.0  0.31091695638902184  0.9734467945914034  0.5975271911264883  1.0000
  F   F16       1.0  0.03932501498132981  0.0765024851006686  0.6525855259173169  1.0000
  F   F17       1.0  0.8791449706612723  0.0212264131205302  0.71885973647813  1.0000
  F   F18       1.0  0.9640764946438835  0.9884963064864676  0.6314136823522674  1.0000
  F   F19       1.0  0.14717557316644306  0.7438244167458591  0.28822101630686336  1.0000
  F   F20       1.0  0.15572946161523762  0.7949017264817043  0.19924948307409096  1.0000
  F   F21       1.0  0.260785083648301  0.6923218690937033  0.21196679306397925  1.0000
  F   F22       1.0  0.27506609766424367  0.852846506940878  0.2952504080074759  1.0000
  F   F23       1.0  0.554433277914363  0.8507679268438364  0.2696542026737347  1.0000
  F   F24       1.0  0.3742289075387006  0.8766808508431437  0.2026118860944806  1.0000
  F   F25       1.0  0.4459765166655743  0.19916586685677368  0.508197227006093  1.0000
  F   F26       1.0  0.4768959755566795  0.10982604265721817  0.4677118294917831  1.0000
  F   F27       1.0  0.3191042876501483  0.11962955226666587  0.5531449937306263  1.0000
  F   F28       1.0  0.010307073695599913  0.10832858145840868  0.5210881482375099  1.0000
  F   F29       1.0  0.18730511486063517  0.06834323767556329  0.4481265661030065  1.0000
  F   F30       1.0  0.9636422422697136  0.1419753545704197  0.42955807480353053  1.0000
  F   F31       1.0  0.6123922540524162  0.9596855352541739  0.34925680531583225  1.0000
  F   F32       1.0  0.5220359748514625  0.06216966825567028  0.33189942844472836  1.0000
  F   F33       1.0  0.689082541015864  0.0265527620912138  0.4024752677780226  1.0000
  F   F34       1.0  0.9606694643346214  0.9234937127849038  0.34741144681653663  1.0000
  F   F35       1.0  0.12083242891690568  0.978770748648486  0.2811322336679538  1.0000
  F   F36       1.0  0.0359400921466246  0.0114960405541282  0.36858184881193506  1.0000
