data_image0
_chemical_formula_structural       K2H26C36O26
_chemical_formula_sum              "K2 H26 C36 O26"
_cell_length_a       9.299777367410126
_cell_length_b       10.095561414678288
_cell_length_c       10.898921823863784
_cell_angle_alpha    101.02090159174342
_cell_angle_beta     100.61955496543649
_cell_angle_gamma    93.82870200860508

_space_group_name_H-M_alt    "P 1"
_space_group_IT_number       1

loop_
  _space_group_symop_operation_xyz
  'x, y, z'

loop_
  _atom_site_type_symbol
  _atom_site_label
  _atom_site_symmetry_multiplicity
  _atom_site_fract_x
  _atom_site_fract_y
  _atom_site_fract_z
  _atom_site_occupancy
  K   K1        1.0  0.7291516155123431  0.21347296230410967  0.13166386743445457  1.0000
  K   K2        1.0  0.2708472976898832  0.7865258762415623  0.8683359987621344  1.0000
  H   H1        1.0  0.2642487243077554  0.47453328165165964  0.02104171002198292  1.0000
  H   H2        1.0  0.7357517258239596  0.5254696211740821  0.9789581988505347  1.0000
  H   H3        1.0  0.9486145991896038  0.7907840234757872  0.09749759864725858  1.0000
  H   H4        1.0  0.05137873082701821  0.20921377258738263  0.9025002857064308  1.0000
  H   H5        1.0  0.7116825773936596  0.05413278574695112  0.3658164318352703  1.0000
  H   H6        1.0  0.2883153520942798  0.9458670617324432  0.6341825399737715  1.0000
  H   H7        1.0  0.9253566718751214  0.8320194188457749  0.49437482258855414  1.0000
  H   H8        1.0  0.07463983160983638  0.16797737873176297  0.505623385686917  1.0000
  H   H9        1.0  0.17887585644738377  0.5344889197330505  0.3221336406132735  1.0000
  H   H10       1.0  0.8211196647406211  0.46550888545552754  0.6778609206980448  1.0000
  H   H11       1.0  0.23145799283560817  0.5320926992642684  0.637876248991425  1.0000
  H   H12       1.0  0.7685408113298919  0.4679051231395876  0.3621206679606529  1.0000
  H   H13       1.0  0.43532033479318233  0.3019467510269892  0.25201491116958147  1.0000
  H   H14       1.0  0.5646800034671314  0.6980551383023228  0.7479875536116509  1.0000
  H   H15       1.0  0.36866383003334136  0.15392489447616953  0.07370602741015378  1.0000
  H   H16       1.0  0.6313335566116649  0.8460800220952224  0.9262946717340057  1.0000
  H   H17       1.0  0.3930516591444047  0.2965642802317064  0.03346407821577198  1.0000
  H   H18       1.0  0.606951310213752  0.7034416792630795  0.966539520296827  1.0000
  H   H19       1.0  0.3872980458518072  0.40392119513230557  0.5653345109348038  1.0000
  H   H20       1.0  0.6127124764827556  0.5960837867730505  0.4346682705680748  1.0000
  H   H21       1.0  0.8013836783405708  0.8989897164967863  0.7554693718898521  1.0000
  H   H22       1.0  0.19861621668615467  0.10100811487873781  0.24453505879643694  1.0000
  H   H23       1.0  0.5142598345355296  0.22104005849899983  0.8894354730680758  1.0000
  H   H24       1.0  0.4857424730431461  0.778959811199279  0.1105651103860836  1.0000
  H   H25       1.0  0.6607150374743681  0.07540498090072133  0.5417880138216162  1.0000
  H   H26       1.0  0.3392894593859026  0.9245948996865538  0.45821291669232517  1.0000
  C   C1        1.0  0.07054160766212193  0.6568501054348419  0.1984649646472647  1.0000
  C   C2        1.0  0.929452817467748  0.34314769563192743  0.8015321757107754  1.0000
  C   C3        1.0  0.9776900208945917  0.7589250345766986  0.18810875556764017  1.0000
  C   C4        1.0  0.02230331006692411  0.24107276060467345  0.8118872937349689  1.0000
  C   C5        1.0  0.9230650261444779  0.8210269655047642  0.2935329243653086  1.0000
  C   C6        1.0  0.07692917807726472  0.1789688059237592  0.7064638226569427  1.0000
  C   C7        1.0  0.05624248863725262  0.6795322363580071  0.4209556404569668  1.0000
  C   C8        1.0  0.9437541253017653  0.3204655760386501  0.5790427644864024  1.0000
  C   C9        1.0  0.9638845249749863  0.7824117746221053  0.41054320008365164  1.0000
  C   C10       1.0  0.03611219989053891  0.21758705215277985  0.5894544840020757  1.0000
  C   C11       1.0  0.10755151011448312  0.6148465836559255  0.314320199337672  1.0000
  C   C12       1.0  0.8924428040888799  0.38515020303261593  0.6856776618780172  1.0000
  C   C13       1.0  0.1350941355657298  0.6031096348428664  0.08587995430088576  1.0000
  C   C14       1.0  0.8649014951314484  0.39688918604662166  0.9141166387294034  1.0000
  C   C15       1.0  0.8235260846293642  0.9281140450740821  0.27700395183603627  1.0000
  C   C16       1.0  0.17647063929126713  0.07188478258258611  0.7229955673007636  1.0000
  C   C17       1.0  0.10367807133386014  0.646495192873559  0.5488639260866249  1.0000
  C   C18       1.0  0.8963196377183991  0.35350262452669773  0.451133734861095  1.0000
  C   C19       1.0  0.521918476292086  0.23937424038257413  0.5383910631100121  1.0000
  C   C20       1.0  0.47808952445380726  0.7606276870582251  0.46161261638047074  1.0000
  C   C21       1.0  0.4451572413718381  0.32968461919834624  0.6099000624749776  1.0000
  C   C22       1.0  0.5548520749229766  0.6703193433251898  0.39010418388119206  1.0000
  C   C23       1.0  0.4427358420885524  0.3241399559444532  0.7370700273997314  1.0000
  C   C24       1.0  0.5572699698481927  0.6758619601664508  0.2629323875054297  1.0000
  C   C25       1.0  0.5180986464718131  0.22773669342761593  0.7916953168998688  1.0000
  C   C26       1.0  0.48190388248742977  0.7722652054680027  0.20830474236453972  1.0000
  C   C27       1.0  0.5974943118764385  0.13918040764554726  0.7219528569073714  1.0000
  C   C28       1.0  0.4025092003246514  0.8608204827572483  0.27804901427011697  1.0000
  C   C29       1.0  0.599207409619666  0.14497429438885942  0.5951152913352757  1.0000
  C   C30       1.0  0.4007948970141156  0.85502557619121  0.4048871271699639  1.0000
  C   C31       1.0  0.5226484644422557  0.23877533551840463  0.40180699928624347  1.0000
  C   C32       1.0  0.4773515434007649  0.7612235084717585  0.5981930404402362  1.0000
  C   C33       1.0  0.3606312301560592  0.4203497540050949  0.8163858869168976  1.0000
  C   C34       1.0  0.6393758978020543  0.5796541967476473  0.18361617732840327  1.0000
  C   C35       1.0  0.6770375801992614  0.03962193695705452  0.7844109029847032  1.0000
  C   C36       1.0  0.3229624271713121  0.9603769074740074  0.21559005426731662  1.0000
  O   O1        1.0  0.1142717355933343  0.6525164164313043  0.9894822610345103  1.0000
  O   O2        1.0  0.8857272885353992  0.3474834364925813  0.010516884304429706  1.0000
  O   O3        1.0  0.5975798609434265  0.16443803107574692  0.3398068921959235  1.0000
  O   O4        1.0  0.40242266801581644  0.8355638678198718  0.6601931670684776  1.0000
  O   O5        1.0  0.21869198455422634  0.5037405685407494  0.1004205162239344  1.0000
  O   O6        1.0  0.7813048502929121  0.496259273494147  0.8995782820552163  1.0000
  O   O7        1.0  0.7841993757652332  0.9618437122809456  0.1738326172482303  1.0000
  O   O8        1.0  0.21579855372270623  0.03815613519844872  0.8261663545608185  1.0000
  O   O9        1.0  0.06816010593418302  0.7085132516317504  0.6459705863587288  1.0000
  O   O10       1.0  0.9318409979669724  0.29148559648022143  0.35402687432102187  1.0000
  O   O11       1.0  0.7803428013380866  0.9835781517739194  0.38401545636124007  1.0000
  O   O12       1.0  0.2196527174876906  0.016419655619138503  0.615983692577771  1.0000
  O   O13       1.0  0.1914699578958192  0.5471450385508377  0.5474389223935602  1.0000
  O   O14       1.0  0.80852775115644  0.45285277884941894  0.4525587385541597  1.0000
  O   O15       1.0  0.4359828135903072  0.319656554525814  0.3484586376303938  1.0000
  O   O16       1.0  0.5640208085923959  0.6803453511369998  0.6515443477405256  1.0000
  O   O17       1.0  0.4241105588044363  0.24439789944224097  0.1010356201878011  1.0000
  O   O18       1.0  0.575888905250764  0.7556060145217176  0.8989679819248692  1.0000
  O   O19       1.0  0.3052078422269203  0.5161056682962555  0.771047166352041  1.0000
  O   O20       1.0  0.694793260729341  0.48389318069751425  0.2289521293787899  1.0000
  O   O21       1.0  0.35379419375132676  0.4000618872482421  0.9273891204036531  1.0000
  O   O22       1.0  0.6462165494913632  0.59994512429536  0.07261405443500733  1.0000
  O   O23       1.0  0.6758989278713016  0.026560167035732704  0.8944170015457046  1.0000
  O   O24       1.0  0.3240999843860309  0.9734386723917229  0.10558469970196434  1.0000
  O   O25       1.0  0.7520215598861951  0.9621947376300073  0.7081532877909139  1.0000
  O   O26       1.0  0.2479793197997111  0.037802083929996406  0.2918502022318349  1.0000
