data_image0
_chemical_formula_structural       K4Cu2H16C8O24
_chemical_formula_sum              "K4 Cu2 H16 C8 O24"
_cell_length_a       3.8436498027146
_cell_length_b       10.843131699319672
_cell_length_c       14.413937893177991
_cell_angle_alpha    89.99980848075445
_cell_angle_beta     89.99949301883044
_cell_angle_gamma    93.64268753220998

_space_group_name_H-M_alt    "P 1"
_space_group_IT_number       1

loop_
  _space_group_symop_operation_xyz
  'x, y, z'

loop_
  _atom_site_type_symbol
  _atom_site_label
  _atom_site_symmetry_multiplicity
  _atom_site_fract_x
  _atom_site_fract_y
  _atom_site_fract_z
  _atom_site_occupancy
  K   K1        1.0  0.20543268573353396  0.4923843487935215  0.6406318936154562  1.0000
  K   K2        1.0  0.2946072243444604  0.0076231393466983  0.14061840517885574  1.0000
  K   K3        1.0  0.7945706489073954  0.5075988157967898  0.35937703387037356  1.0000
  K   K4        1.0  0.7054430425287919  0.992391501007624  0.8593752592115252  1.0000
  Cu  Cu1       1.0  0.5000016768350335  0.9999986952450116  0.4999955574592719  1.0000
  Cu  Cu2       1.0  0.9999853371774988  0.49999264443912483  3.1183614126000003e-06  1.0000
  H   H1        1.0  0.7121078349184631  0.7446176978138298  0.6272536845225647  1.0000
  H   H2        1.0  0.7878951449521808  0.7553858958527613  0.12724379840827996  1.0000
  H   H3        1.0  0.28789632366474655  0.2553857935334563  0.3727545491657552  1.0000
  H   H4        1.0  0.21211911166403746  0.24461576138853044  0.8727477847200478  1.0000
  H   H5        1.0  0.7209938064545939  0.7062721420436445  0.7337478643535322  1.0000
  H   H6        1.0  0.7790059327221639  0.7937336313713312  0.23373582837002266  1.0000
  H   H7        1.0  0.27899796352038214  0.2937350281429119  0.26626245066366044  1.0000
  H   H8        1.0  0.2210136842656922  0.20626895700389267  0.7662543672051499  1.0000
  H   H9        1.0  0.6231269322790354  0.3418017857550595  0.7896893941924578  1.0000
  H   H10       1.0  0.8768920152774982  0.15820703304440537  0.28969270968020316  1.0000
  H   H11       1.0  0.3768968443085754  0.6582100471512787  0.21030565777770252  1.0000
  H   H12       1.0  0.12313082673745149  0.841799255220081  0.7103106675727063  1.0000
  H   H13       1.0  0.5888689161329665  0.47664657340536815  0.821027694398346  1.0000
  H   H14       1.0  0.9111457150289866  0.023358371093323192  0.3210305502238668  1.0000
  H   H15       1.0  0.4111412259548571  0.5233615455172539  0.17896874513778027  1.0000
  H   H16       1.0  0.08887114375914244  0.9766432896402149  0.6789686644037334  1.0000
  C   C1        1.0  0.32438931094969786  0.7520844663040407  0.47578267952041403  1.0000
  C   C2        1.0  0.1755762466496336  0.7479029618510111  0.9757857047478428  1.0000
  C   C3        1.0  0.6756039713938478  0.24791623871086438  0.5242144538167752  1.0000
  C   C4        1.0  0.8243899223477553  0.2520912392860737  0.02421906013056231  1.0000
  C   C5        1.0  0.12316784270438313  0.822119392234981  0.40130006241653865  1.0000
  C   C6        1.0  0.3767921899277411  0.6778665916284793  0.9012993158921107  1.0000
  C   C7        1.0  0.8768272632420845  0.17787669577589327  0.5986977646968372  1.0000
  C   C8        1.0  0.6231811631287486  0.32212392365202186  0.09869989879877752  1.0000
  O   O1        1.0  0.5132487427418653  0.823326607536579  0.5310622056903399  1.0000
  O   O2        1.0  0.9867338085951969  0.6766599352550101  0.03106938667286841  1.0000
  O   O3        1.0  0.48675328100407  0.1766796526471026  0.46893145876560294  1.0000
  O   O4        1.0  0.013228668040454675  0.3233277936641698  0.9689291342609112  1.0000
  O   O5        1.0  0.29686600173096866  0.637506756184294  0.4794952234825873  1.0000
  O   O6        1.0  0.2031223799333616  0.8624779105930639  0.9795097128550128  1.0000
  O   O7        1.0  0.7031453409234201  0.36249304930833387  0.5205067662452905  1.0000
  O   O8        1.0  0.7968661194842142  0.137509853418436  0.020504071053189  1.0000
  O   O9        1.0  0.163277188529669  0.9415700532287585  0.4058711470754518  1.0000
  O   O10       1.0  0.3367246332545334  0.5584178096148235  0.9058728522417002  1.0000
  O   O11       1.0  0.8367235893247269  0.0584288141319291  0.5941218236175844  1.0000
  O   O12       1.0  0.6632597519245068  0.4415764161243345  0.0941291375238507  1.0000
  O   O13       1.0  0.9357408167584963  0.7637022327859809  0.34406292293478213  1.0000
  O   O14       1.0  0.5641961173230428  0.7362926843241481  0.844067620416169  1.0000
  O   O15       1.0  0.06423378223784938  0.23629567532523046  0.6559342104272761  1.0000
  O   O16       1.0  0.4357500119139317  0.2637061092187523  0.155937838253017  1.0000
  O   O17       1.0  0.8441385077617198  0.6993680183361518  0.6737446962678535  1.0000
  O   O18       1.0  0.6558515097574042  0.8006297579725369  0.1737329292348947  1.0000
  O   O19       1.0  0.15585768810885975  0.3006345383579259  0.3262670062954457  1.0000
  O   O20       1.0  0.3441627468829794  0.19937189927261292  0.8262572663475681  1.0000
  O   O21       1.0  0.6956164535504783  0.4276840794838889  0.7723018732191352  1.0000
  O   O22       1.0  0.804410750736743  0.0723239225265715  0.2722965369921724  1.0000
  O   O23       1.0  0.30439597930580925  0.5723221947363297  0.22769803518116308  1.0000
  O   O24       1.0  0.19561791898448178  0.9276860692004902  0.7276985149744704  1.0000
