data_image0
_chemical_formula_structural       Zn8H48C60O26
_chemical_formula_sum              "Zn8 H48 C60 O26"
_cell_length_a       17.9301817052583
_cell_length_b       18.236058829595645
_cell_length_c       18.253555557040723
_cell_angle_alpha    61.12342569016855
_cell_angle_beta     60.594646008935825
_cell_angle_gamma    60.55755976680464

_space_group_name_H-M_alt    "P 1"
_space_group_IT_number       1

loop_
  _space_group_symop_operation_xyz
  'x, y, z'

loop_
  _atom_site_type_symbol
  _atom_site_label
  _atom_site_symmetry_multiplicity
  _atom_site_fract_x
  _atom_site_fract_y
  _atom_site_fract_z
  _atom_site_occupancy
  Zn  Zn1       1.0  0.04817258636170151  0.04957833243906859  0.8588686100591898  1.0000
  Zn  Zn2       1.0  0.05096901770881601  0.054056346561154094  0.029858932052412992  1.0000
  Zn  Zn3       1.0  0.05195610023637457  0.8784535862002797  0.03007244581195328  1.0000
  Zn  Zn4       1.0  0.8726113943554309  0.0497486555150743  0.03322421173389516  1.0000
  Zn  Zn5       1.0  0.4620168869388551  0.46648432049981636  0.6165923113024616  1.0000
  Zn  Zn6       1.0  0.45914363285675114  0.46673441939850585  0.4434459291657759  1.0000
  Zn  Zn7       1.0  0.6395076815451263  0.46312222396457514  0.44472759689443114  1.0000
  Zn  Zn8       1.0  0.46365392425652624  0.6381793367934989  0.4468564101537568  1.0000
  H   H1        1.0  0.31964783373040007  0.09989254823564411  0.8165953300675  1.0000
  H   H2        1.0  0.49241837112693787  0.19044203125535827  0.6429835855232681  1.0000
  H   H3        1.0  0.4680479546766492  0.10433307744941087  0.7446176918725982  1.0000
  H   H4        1.0  0.4698354968679653  0.20186293311726902  0.7433564466482137  1.0000
  H   H5        1.0  0.1934662277428744  0.41606026157553083  0.6531982647718451  1.0000
  H   H6        1.0  0.020598789282054535  0.3262898888629593  0.8265842656049781  1.0000
  H   H7        1.0  0.04339912860864814  0.3126763857705869  0.7272860640857886  1.0000
  H   H8        1.0  0.04517204772351859  0.4112140186959722  0.7238667404785913  1.0000
  H   H9        1.0  0.09331102834158873  0.773535294923562  0.8217481473495309  1.0000
  H   H10       1.0  0.18414377529253312  0.6805411162010556  0.6508451828125671  1.0000
  H   H11       1.0  0.09583041222517616  0.692591952575107  0.7524443519035771  1.0000
  H   H12       1.0  0.19409511701591248  0.5951816217420642  0.7515803418015351  1.0000
  H   H13       1.0  0.41787995423977264  0.7410204287409244  0.6555769997769402  1.0000
  H   H14       1.0  0.32745835050053546  0.8326942645909198  0.8273817480664504  1.0000
  H   H15       1.0  0.315340702492847  0.9192465562126203  0.7277104530886119  1.0000
  H   H16       1.0  0.4148693028394418  0.8230996553142804  0.7247207049555655  1.0000
  H   H17       1.0  0.7690588847692084  0.3151427342247075  0.828682024611318  1.0000
  H   H18       1.0  0.680950580826682  0.4894787724326974  0.6564954854419796  1.0000
  H   H19       1.0  0.6922818968639745  0.46194548583714123  0.7591018583364998  1.0000
  H   H20       1.0  0.5922571916545537  0.46558120472581516  0.756631473401818  1.0000
  H   H21       1.0  0.7378320736775521  0.20156556811405588  0.6515912080196882  1.0000
  H   H22       1.0  0.824438740209999  0.027384533839864403  0.8246812768162997  1.0000
  H   H23       1.0  0.9138819374171022  0.05045257343677889  0.7249243471552517  1.0000
  H   H24       1.0  0.8139224288755997  0.05464875798774219  0.7217703800332701  1.0000
  H   H25       1.0  0.3231608854392506  0.7821797626655635  0.07618274927357062  1.0000
  H   H26       1.0  0.4929584168931596  0.6888711950403846  0.1734558428394806  1.0000
  H   H27       1.0  0.47018895382718284  0.698963073906576  0.08396779248960218  1.0000
  H   H28       1.0  0.4695882171299459  0.6021922912836646  0.17950686296980226  1.0000
  H   H29       1.0  0.19180591150748694  0.7442668317780488  0.3968825123535068  1.0000
  H   H30       1.0  0.021814507032914474  0.8375142019716081  0.30041585714026536  1.0000
  H   H31       1.0  0.04546884240166098  0.9246329747959905  0.29302709451174985  1.0000
  H   H32       1.0  0.045133264071665784  0.8283766947159491  0.389142171311235  1.0000
  H   H33       1.0  0.7763300571154874  0.09736216804554229  0.2993027897502571  1.0000
  H   H34       1.0  0.6884321053657557  0.19158638261070848  0.46772039938500143  1.0000
  H   H35       1.0  0.6957270139119133  0.10353482513819048  0.44473703577847357  1.0000
  H   H36       1.0  0.5964926836848363  0.19994875158806738  0.448558049109593  1.0000
  H   H37       1.0  0.7311417475637824  0.41875110358290607  0.17635896634600112  1.0000
  H   H38       1.0  0.8219706158528838  0.3222488845879639  0.00801906162798367  1.0000
  H   H39       1.0  0.9109586506442041  0.31909707368630796  0.02755724308239863  1.0000
  H   H40       1.0  0.809190796712933  0.4128910030639119  0.030900686367623224  1.0000
  H   H41       1.0  0.7727540668899451  0.8366185916231499  0.08120735637480456  1.0000
  H   H42       1.0  0.6812880378622523  0.662861441510792  0.17350224772571474  1.0000
  H   H43       1.0  0.6928292756680677  0.7629926239632069  0.08581607832272198  1.0000
  H   H44       1.0  0.5939452757274923  0.7649816119390208  0.1822913942439116  1.0000
  H   H45       1.0  0.7479052822873273  0.6720334990353296  0.3965925277780116  1.0000
  H   H46       1.0  0.8403592796761502  0.8447530325389393  0.3046816351926792  1.0000
  H   H47       1.0  0.9272067574305681  0.7425935540239197  0.2955591282841468  1.0000
  H   H48       1.0  0.828370895475345  0.7445648563169556  0.3920774140813279  1.0000
  C   C1        1.0  0.1431362589374601  0.14783353264644458  0.8493473163535084  1.0000
  C   C2        1.0  0.200127826451272  0.2066501632371995  0.7903394689911778  1.0000
  C   C3        1.0  0.29249403116563844  0.16980690410348842  0.7803985956687711  1.0000
  C   C4        1.0  0.3509460123286132  0.2195441925800381  0.7251179953891409  1.0000
  C   C5        1.0  0.45060483823255737  0.17661696766884918  0.7136267891749313  1.0000
  C   C6        1.0  0.3128031430543459  0.3094961160148983  0.6799217669523685  1.0000
  C   C7        1.0  0.22051668796061116  0.34617511875706697  0.6895176273956309  1.0000
  C   C8        1.0  0.16210507993672965  0.2964206416766686  0.7447438903865304  1.0000
  C   C9        1.0  0.06253274229032264  0.3390679739899483  0.7559909525375302  1.0000
  C   C10       1.0  0.36890127319910704  0.3691843318952408  0.6223519857984741  1.0000
  C   C11       1.0  0.14466659303206353  0.8683829530217294  0.8509740786532659  1.0000
  C   C12       1.0  0.20397565016464378  0.810383163606346  0.7931943605733167  1.0000
  C   C13       1.0  0.16511236127992396  0.7655527895671952  0.7850729586198  1.0000
  C   C14       1.0  0.2150903792448348  0.7117932083574844  0.7307573660293155  1.0000
  C   C15       1.0  0.16971319619277392  0.6675970983857481  0.721136642000772  1.0000
  C   C16       1.0  0.3073557919687319  0.7038450233864991  0.6843890232617155  1.0000
  C   C17       1.0  0.3461927342594534  0.748721302687791  0.6925779536533412  1.0000
  C   C18       1.0  0.2962901101670001  0.8022234276531391  0.747082623408815  1.0000
  C   C19       1.0  0.3410664867477708  0.8467482198560033  0.7570174784871992  1.0000
  C   C20       1.0  0.36683357210647205  0.6464227417159523  0.6261452950473013  1.0000
  C   C21       1.0  0.8624229098194434  0.1428474647235802  0.8545635744299176  1.0000
  C   C22       1.0  0.8049016418603543  0.20083816883118996  0.7961821652691653  1.0000
  C   C23       1.0  0.7614089000694549  0.29073561254422486  0.7895495725298644  1.0000
  C   C24       1.0  0.7095254221077026  0.35019201174785053  0.7337380374960887  1.0000
  C   C25       1.0  0.6664636411783534  0.44697229230045105  0.7262551085135627  1.0000
  C   C26       1.0  0.7019254876671682  0.31581598110842185  0.6842046794890206  1.0000
  C   C27       1.0  0.7453136064958484  0.22587158206006563  0.6909281241971427  1.0000
  C   C28       1.0  0.7969388869839236  0.16642516324316858  0.746915591937011  1.0000
  C   C29       1.0  0.83962003748789  0.0695424593779492  0.7547907528178541  1.0000
  C   C30       1.0  0.6454347227875772  0.37342899613455677  0.6249387428782639  1.0000
  C   C31       1.0  0.14718301044977988  0.8749790922548114  0.12323265983612695  1.0000
  C   C32       1.0  0.2026457650804687  0.8175167431361531  0.18353548456946805  1.0000
  C   C33       1.0  0.29490036426510374  0.7732297904177726  0.14705503626721844  1.0000
  C   C34       1.0  0.3517581934579683  0.7185785382705915  0.19844234056115084  1.0000
  C   C35       1.0  0.45142455781333984  0.6747289137373612  0.15643700332073252  1.0000
  C   C36       1.0  0.31217429884117837  0.7086881920392897  0.28957653995898613  1.0000
  C   C37       1.0  0.2200708778028472  0.7533103910066217  0.32597883205914246  1.0000
  C   C38       1.0  0.16318476706529597  0.8080973880264253  0.27457832822953776  1.0000
  C   C39       1.0  0.06359465665589442  0.8520798272404377  0.3167138369822382  1.0000
  C   C40       1.0  0.3671707488877586  0.6492855468693081  0.350279284141763  1.0000
  C   C41       1.0  0.8662690738909903  0.14654519796478374  0.1257409812498906  1.0000
  C   C42       1.0  0.8078109125135385  0.2057914869318935  0.18234725198146154  1.0000
  C   C43       1.0  0.7660107100235437  0.1683217212435011  0.2728713336740826  1.0000
  C   C44       1.0  0.7122069203347793  0.2188616472903959  0.33043726319397854  1.0000
  C   C45       1.0  0.67094895539784  0.17599601158927675  0.42808748910085365  1.0000
  C   C46       1.0  0.7005430576610082  0.31009723305492554  0.29354757972394185  1.0000
  C   C47       1.0  0.7419253710627345  0.3476738670134907  0.20297868792295057  1.0000
  C   C48       1.0  0.795889959029651  0.297091395043431  0.14545249266512164  1.0000
  C   C49       1.0  0.8367299017767353  0.3403177631258103  0.04778260441688791  1.0000
  C   C50       1.0  0.6430347977189826  0.36932930735359554  0.35024394403848175  1.0000
  C   C51       1.0  0.869044738404327  0.8690307209676504  0.12840197330933736  1.0000
  C   C52       1.0  0.8126386692586252  0.809767930257017  0.18751542300621096  1.0000
  C   C53       1.0  0.766554378646113  0.800124733308209  0.15094042250370918  1.0000
  C   C54       1.0  0.7137806292074702  0.7447722197254124  0.2006833044953351  1.0000
  C   C55       1.0  0.6679897332281473  0.7335016502897956  0.1581740486022198  1.0000
  C   C56       1.0  0.7077263959745539  0.6991810382600362  0.2903727809871128  1.0000
  C   C57       1.0  0.7541246536799664  0.7084725818284666  0.32684220588092927  1.0000
  C   C58       1.0  0.8070973983622735  0.7636937859130839  0.27704510719650005  1.0000
  C   C59       1.0  0.8532132885751265  0.7742931510747227  0.3197567088238105  1.0000
  C   C60       1.0  0.6493061763985469  0.6418016108590832  0.3497638498003042  1.0000
  O   O1        1.0  0.0054956764846920995  0.008288586517473096  0.9883197026218296  1.0000
  O   O2        1.0  0.14242342197204041  0.1076197241029817  0.9294585648582013  1.0000
  O   O3        1.0  0.10049467508946461  0.14217346961809343  0.8141658479908073  1.0000
  O   O4        1.0  0.3674434257571237  0.41286722250983127  0.5430906567405457  1.0000
  O   O5        1.0  0.41283688194805995  0.3724546297680433  0.6579748537207663  1.0000
  O   O6        1.0  0.102101829623969  0.8324188240000935  0.931460733444247  1.0000
  O   O7        1.0  0.141028791932584  0.9494842255386972  0.8145903260306112  1.0000
  O   O8        1.0  0.4133721219979662  0.6815201108689453  0.5473105990366489  1.0000
  O   O9        1.0  0.36712912614276416  0.5664475222165848  0.6602024933370244  1.0000
  O   O10       1.0  0.825627855249799  0.14140882212994643  0.9352911321304659  1.0000
  O   O11       1.0  0.9445934075773222  0.1001060753394611  0.8179852789371082  1.0000
  O   O12       1.0  0.6828497956811506  0.37231915947688066  0.5450191311958716  1.0000
  O   O13       1.0  0.5635490628000286  0.4182200621998006  0.6597283618785141  1.0000
  O   O14       1.0  0.1476785610961572  0.8382594848386091  0.07845643076564807  1.0000
  O   O15       1.0  0.10450653697927968  0.9560562767725288  0.12082011391409954  1.0000
  O   O16       1.0  0.36891488980011644  0.6844195143028813  0.3950690186343519  1.0000
  O   O17       1.0  0.40702927768455066  0.5680254056859652  0.3529721983934451  1.0000
  O   O18       1.0  0.829801532230647  0.10126168968059801  0.12607693353269397  1.0000
  O   O19       1.0  0.9481669477710496  0.14574138272315199  0.08219386156054763  1.0000
  O   O20       1.0  0.6820965468779291  0.40994217756057333  0.3532794410791027  1.0000
  O   O21       1.0  0.5596776583458408  0.3746966317016173  0.3901985793280929  1.0000
  O   O22       1.0  0.8307355663936705  0.9477816079508016  0.08461608481209755  1.0000
  O   O23       1.0  0.9515626150071408  0.8356527361917615  0.12563658124960148  1.0000
  O   O24       1.0  0.6863409543786715  0.5619123707494751  0.39245617157188656  1.0000
  O   O25       1.0  0.5663031733792964  0.6783454142239977  0.3535288217730822  1.0000
  O   O26       1.0  0.5067086941377213  0.5083643655331046  0.48699294696904594  1.0000
