data_image0
_chemical_formula_structural       Na4Mo2H18C8N2O18
_chemical_formula_sum              "Na4 Mo2 H18 C8 N2 O18"
_cell_length_a       5.406039496424506
_cell_length_b       10.057177499840348
_cell_length_c       10.058125691448238
_cell_angle_alpha    96.28385178323796
_cell_angle_beta     96.22434739423072
_cell_angle_gamma    96.22595927380758

_space_group_name_H-M_alt    "P 1"
_space_group_IT_number       1

loop_
  _space_group_symop_operation_xyz
  'x, y, z'

loop_
  _atom_site_type_symbol
  _atom_site_label
  _atom_site_symmetry_multiplicity
  _atom_site_fract_x
  _atom_site_fract_y
  _atom_site_fract_z
  _atom_site_occupancy
  Na  Na1       1.0  0.5000019872535475  0.6042783398301593  0.3957194952319226  1.0000
  Na  Na2       1.0  0.5000013213207026  0.3957135573664274  0.6042752581234936  1.0000
  Na  Na3       1.0  0.9999976433303887  0.7193189999896887  0.28067068283117885  1.0000
  Na  Na4       1.0  0.9999604455158178  0.2806758705056112  0.7193195884503749  1.0000
  Mo  Mo1       1.0  0.9291531601485803  0.3473084418835271  0.3473055004752013  1.0000
  Mo  Mo2       1.0  0.07087097561103657  0.6527016750437367  0.6527142796838773  1.0000
  H   H1        1.0  0.14957081921256332  0.1520659566462399  0.005307560429962189  1.0000
  H   H2        1.0  0.8504237311937216  0.9946427492307064  0.8479802824894661  1.0000
  H   H3        1.0  0.8504447648487884  0.8479390687200307  0.9946972568493421  1.0000
  H   H4        1.0  0.14954028016754248  0.0053481624505807  0.15201103767724788  1.0000
  H   H5        1.0  0.26306082577703893  0.3218542475431007  0.05621644544767427  1.0000
  H   H6        1.0  0.7369406774182465  0.9437785328533433  0.6782042278366305  1.0000
  H   H7        1.0  0.7369426823507652  0.6781467417845446  0.9437842470643999  1.0000
  H   H8        1.0  0.26304193260964587  0.0562043312375593  0.3217943109213337  1.0000
  H   H9        1.0  0.3471302781735091  0.25620809912821585  0.2562165763045953  1.0000
  H   H10       1.0  0.6528886435550946  0.7437626324544838  0.7437798617877291  1.0000
  H   H11       1.0  0.4636593064217039  0.6329236912464326  0.12652292698108167  1.0000
  H   H12       1.0  0.53632176992825  0.8734853110093892  0.36702725674528114  1.0000
  H   H13       1.0  0.5363319050713429  0.36704811220628386  0.8734829136392647  1.0000
  H   H14       1.0  0.46360964713715436  0.12653382123778556  0.6329591287573919  1.0000
  H   H15       1.0  0.6165182467388277  0.5047538483364135  0.1404699739487114  1.0000
  H   H16       1.0  0.38356802726488576  0.8595721822504669  0.49521851833074476  1.0000
  H   H17       1.0  0.3835238546760777  0.4952370762643311  0.8595418959469612  1.0000
  H   H18       1.0  0.616381050201987  0.14045097815436952  0.5047713287474807  1.0000
  C   C1        1.0  0.8669879055174903  0.28486391844690223  0.036756687667384776  1.0000
  C   C2        1.0  0.133040516899861  0.9632566159921012  0.7151647630543606  1.0000
  C   C3        1.0  0.1330211872957534  0.7151290197676445  0.9632474669876386  1.0000
  C   C4        1.0  0.8669434604626503  0.036764488457109196  0.28482296488994757  1.0000
  C   C5        1.0  0.12331557218168142  0.24047152659348814  0.07476503018626349  1.0000
  C   C6        1.0  0.8767097789913977  0.9252254338614063  0.7595640637510783  1.0000
  C   C7        1.0  0.8766937541007638  0.7595304585593537  0.9252341243408393  1.0000
  C   C8        1.0  0.1232788672441387  0.07476749353516249  0.24043290929608216  1.0000
  N   N1        1.0  0.167200965832933  0.21676090147413868  0.2167444906808953  1.0000
  N   N2        1.0  0.8328137145314686  0.7832320247510081  0.7832580063020342  1.0000
  O   O1        1.0  0.6393334603820692  0.3915079622989595  0.3915139841088831  1.0000
  O   O2        1.0  0.36068290009330173  0.6085415035826998  0.6085174258253332  1.0000
  O   O3        1.0  0.1002124084356311  0.49282867942335434  0.3079006503838002  1.0000
  O   O4        1.0  0.8999200473617962  0.6921192377338058  0.5071787299007156  1.0000
  O   O5        1.0  0.8998728954702315  0.5071642976187505  0.6921299104530971  1.0000
  O   O6        1.0  0.10015996964087752  0.30790683754690923  0.4928142339073318  1.0000
  O   O7        1.0  0.742983718665073  0.3216485482192723  0.13370798607800788  1.0000
  O   O8        1.0  0.25705597347106124  0.8663076036813205  0.6783595092391292  1.0000
  O   O9        1.0  0.25703608804352746  0.6783423503872755  0.8662926138585688  1.0000
  O   O10       1.0  0.7429496255042666  0.13370243543555196  0.32163728805502245  1.0000
  O   O11       1.0  0.7939377578130904  0.2876632176733764  0.9145078291995002  1.0000
  O   O12       1.0  0.20606641294881461  0.08552408331320997  0.7123877941542175  1.0000
  O   O13       1.0  0.20603696149456846  0.7123176193846418  0.08548605054422605  1.0000
  O   O14       1.0  0.7938781019978409  0.9144708118326079  0.28758787282941256  1.0000
  O   O15       1.0  0.6175295316793453  0.6009062397261501  0.17010465425036608  1.0000
  O   O16       1.0  0.3824909919123626  0.8299064166771613  0.3990741703009418  1.0000
  O   O17       1.0  0.3824888757746551  0.39908667576710843  0.8298960746308878  1.0000
  O   O18       1.0  0.6174704359094605  0.1700976003664394  0.6009183745097104  1.0000
