data_image0
_chemical_formula_structural       Cu2H14C8N2Cl2O2
_chemical_formula_sum              "Cu2 H14 C8 N2 Cl2 O2"
_cell_length_a       7.36644586747037
_cell_length_b       7.37275590396606
_cell_length_c       7.41195693380549
_cell_angle_alpha    105.14212728206358
_cell_angle_beta     113.29922874185893
_cell_angle_gamma    109.93230181474908

_space_group_name_H-M_alt    "P 1"
_space_group_IT_number       1

loop_
  _space_group_symop_operation_xyz
  'x, y, z'

loop_
  _atom_site_type_symbol
  _atom_site_label
  _atom_site_symmetry_multiplicity
  _atom_site_fract_x
  _atom_site_fract_y
  _atom_site_fract_z
  _atom_site_occupancy
  Cu  Cu1       1.0  0.1624306389996379  0.5869760406313561  0.7485932588785363  1.0000
  Cu  Cu2       1.0  0.837570815495454  0.41299815446650723  0.2513853301991063  1.0000
  H   H1        1.0  0.3781324224318185  0.18009318892529796  0.8589031927564649  1.0000
  H   H2        1.0  0.3204448354714345  0.5195722368422152  0.140175758080062  1.0000
  H   H3        1.0  0.6218713507392623  0.8199208151704126  0.1411006998739951  1.0000
  H   H4        1.0  0.6795518341153439  0.48043349307140204  0.8598271459338919  1.0000
  H   H5        1.0  0.12047442157962257  0.18441279730986085  0.7975352627805778  1.0000
  H   H6        1.0  0.384916252905626  0.32276649580618516  0.20092766274466817  1.0000
  H   H7        1.0  0.8795243470709413  0.8155883399053254  0.20245910547976834  1.0000
  H   H8        1.0  0.6150786760831367  0.6772328588282972  0.7990687680055899  1.0000
  H   H9        1.0  0.07938045401642312  0.1598654077671711  0.44894789131316076  1.0000
  H   H10       1.0  0.7096620854065494  0.629933934973515  0.5504604158940013  1.0000
  H   H11       1.0  0.9206206080036736  0.8401373227422438  0.5510518556625783  1.0000
  H   H12       1.0  0.2903358519515323  0.37006553069852544  0.44953586895509556  1.0000
  H   H13       1.0  0.3540613355969527  0.18153797872127342  0.5355866689760803  1.0000
  H   H14       1.0  0.6459369736070004  0.818471021314437  0.4644164209084069  1.0000
  C   C1        1.0  0.18142707100631134  0.7851217259655314  0.965778866941861  1.0000
  C   C2        1.0  0.8185746328398127  0.21486161435363732  0.03422796209400053  1.0000
  C   C3        1.0  0.3054482438376241  0.2872869017302336  0.8783829687329856  1.0000
  C   C4        1.0  0.4079710997665843  0.42715396203458067  0.12082531273102155  1.0000
  C   C5        1.0  0.6945499796973494  0.7127190417912459  0.12161115439299422  1.0000
  C   C6        1.0  0.5920308945268434  0.5728535451750078  0.8791788050491295  1.0000
  C   C7        1.0  0.26271378981904553  0.27270044613258904  0.5350301547944625  1.0000
  C   C8        1.0  0.7372865801690555  0.7273038395977027  0.46497109774980333  1.0000
  N   N1        1.0  0.34391570370515023  0.4191273602086554  0.7627482896669662  1.0000
  N   N2        1.0  0.6560769319140791  0.5808704011316053  0.23724276236789887  1.0000
  Cl  Cl1       1.0  0.2148103191627443  0.7145964108932077  0.49996228352674893  1.0000
  Cl  Cl2       1.0  0.7851993272160842  0.2853968994726017  0.5000422778541919  1.0000
  O   O1        1.0  0.17865846447550385  0.9137842110190703  0.09204118840314385  1.0000
  O   O2        1.0  0.8213425913424433  0.0862212841477898  0.9079836015232277  1.0000
