data_image0
_chemical_formula_structural       Cd2H48C68N4O10
_chemical_formula_sum              "Cd2 H48 C68 N4 O10"
_cell_length_a       9.62656450057838
_cell_length_b       15.407574524067792
_cell_length_c       15.258053294339524
_cell_angle_alpha    61.618062304194424
_cell_angle_beta     72.4510675904516
_cell_angle_gamma    88.4707739959103

_space_group_name_H-M_alt    "P 1"
_space_group_IT_number       1

loop_
  _space_group_symop_operation_xyz
  'x, y, z'

loop_
  _atom_site_type_symbol
  _atom_site_label
  _atom_site_symmetry_multiplicity
  _atom_site_fract_x
  _atom_site_fract_y
  _atom_site_fract_z
  _atom_site_occupancy
  Cd  Cd1       1.0  0.14594128306163867  0.1006712296201542  0.5075140656968671  1.0000
  Cd  Cd2       1.0  0.8540581108075287  0.8993290636485087  0.49248611079305954  1.0000
  H   H1        1.0  0.9409657494954898  0.25158784704431975  0.5434330402439399  1.0000
  H   H2        1.0  0.059034108809413524  0.748409471866573  0.45656779323066127  1.0000
  H   H3        1.0  0.7027855590635782  0.26140983340078355  0.6607520700852376  1.0000
  H   H4        1.0  0.29721694506788054  0.7385897006897154  0.3392485260297846  1.0000
  H   H5        1.0  0.63655256985043  0.939119543838885  0.8363066127954324  1.0000
  H   H6        1.0  0.3634421564186923  0.06087928366818572  0.16369383378201255  1.0000
  H   H7        1.0  0.8713634351445662  0.9433247435952624  0.708374876011483  1.0000
  H   H8        1.0  0.1286300458133525  0.056673341270872896  0.2916261579627673  1.0000
  H   H9        1.0  0.4900951125893159  0.18445419697725637  0.8081612722412428  1.0000
  H   H10       1.0  0.5099042802009989  0.8155460812891705  0.19184022237126902  1.0000
  H   H11       1.0  0.4303073168181443  0.9554170483188572  0.9303386240300994  1.0000
  H   H12       1.0  0.5696920770510231  0.04458324494981271  0.06966155245982719  1.0000
  H   H13       1.0  0.2956114039828818  0.20058088995552484  0.903641184902341  1.0000
  H   H14       1.0  0.7043865877526656  0.7994179082711098  0.09636061873423785  1.0000
  H   H15       1.0  0.05767710502262701  0.2070743163585718  0.015676098174012117  1.0000
  H   H16       1.0  0.9423196424805627  0.7929237542293633  0.9843249747367863  1.0000
  H   H17       1.0  0.9699253526256939  0.8861528642349373  0.1853254852964382  1.0000
  H   H18       1.0  0.030074662501625913  0.11384520707704841  0.8146743084283158  1.0000
  H   H19       1.0  0.2107953374199383  0.8794151683700732  0.0707744761510441  1.0000
  H   H20       1.0  0.7892049908127704  0.1205844002429615  0.9292238971353085  1.0000
  H   H21       1.0  0.8028126047090466  0.973388670995526  0.24489129846692495  1.0000
  H   H22       1.0  0.197185389184213  0.0266101572356021  0.7551078689244832  1.0000
  H   H23       1.0  0.8129803439010103  0.1949712421178944  0.0864887307149047  1.0000
  H   H24       1.0  0.18701873632334556  0.8050275463485904  0.9135135252747161  1.0000
  H   H25       1.0  0.5936469405988802  0.26790310707360726  0.1342717126015529  1.0000
  H   H26       1.0  0.40635322973256643  0.732095694136099  0.8657290185572319  1.0000
  H   H27       1.0  0.3560014093917232  0.25577232176003406  0.2674579878240522  1.0000
  H   H28       1.0  0.6439987604002937  0.7442264719485506  0.7325434023960256  1.0000
  H   H29       1.0  0.3780845347590684  0.9639614455596188  0.4729737382167087  1.0000
  H   H30       1.0  0.6219145470835626  0.036037365410230386  0.5270265405890341  1.0000
  H   H31       1.0  0.6134750691220674  0.9612075501337001  0.3517670129942376  1.0000
  H   H32       1.0  0.38652634598116004  0.038791986215826996  0.6482337898290425  1.0000
  H   H33       1.0  0.035870075616671195  0.31552160872615076  0.33801111030959413  1.0000
  H   H34       1.0  0.964130720386123  0.6844801795845399  0.6619874390336803  1.0000
  H   H35       1.0  0.9163599345532417  0.466239431222931  0.3195572301574927  1.0000
  H   H36       1.0  0.0836385271101037  0.5337616167058455  0.6804421132908374  1.0000
  H   H37       1.0  0.5037956356804045  0.3140773433143237  0.3749115832360062  1.0000
  H   H38       1.0  0.4962037587281927  0.6859229574554605  0.6250879341926279  1.0000
  H   H39       1.0  0.6262538101013745  0.16445960518274927  0.39024529667635477  1.0000
  H   H40       1.0  0.3737477629031147  0.8355406985701136  0.6097531482744856  1.0000
  H   H41       1.0  0.605084670430216  0.6629387963533233  0.2467647220311378  1.0000
  H   H42       1.0  0.39491814788549107  0.337062250040475  0.7532331355228975  1.0000
  H   H43       1.0  0.6553222648503549  0.7855290586587101  0.3033953359461635  1.0000
  H   H44       1.0  0.34468132830934195  0.21447047317276716  0.6966050534606082  1.0000
  H   H45       1.0  0.7659529497213383  0.5512044236269347  0.5597346719720518  1.0000
  H   H46       1.0  0.2340483101777622  0.44879438282487166  0.44026519341718995  1.0000
  H   H47       1.0  0.7179347475654012  0.4295780938723794  0.5032254517565492  1.0000
  H   H48       1.0  0.2820643337378073  0.5704207095963482  0.4967754861104866  1.0000
  C   C1        1.0  0.8688708003971328  0.1843829108812756  0.6089945405652273  1.0000
  C   C2        1.0  0.13112828198492824  0.8156159075897021  0.39100507917922306  1.0000
  C   C3        1.0  0.7370096883476692  0.18907101571114993  0.6750549075398806  1.0000
  C   C4        1.0  0.2629904814443478  0.8109277779974275  0.32494648268019705  1.0000
  C   C5        1.0  0.6471514301228894  0.10091798253727552  0.7600080755084804  1.0000
  C   C6        1.0  0.3528467178956376  0.899081560589323  0.23999334743954406  1.0000
  C   C7        1.0  0.6985046373443992  0.010732163067892504  0.772341335004917  1.0000
  C   C8        1.0  0.3014946013206483  0.9892674003030495  0.22765790405097863  1.0000
  C   C9        1.0  0.8308711408958799  0.012074036401259005  0.7024390904927245  1.0000
  C   C10       1.0  0.16912451703964854  0.9879240289445761  0.29756284818761713  1.0000
  C   C11       1.0  0.5104673838351771  0.10824143654259193  0.8283584746899422  1.0000
  C   C12       1.0  0.4895320084157078  0.8917588342227064  0.17164367898386257  1.0000
  C   C13       1.0  0.40967332034455234  0.0314569282276125  0.9109718481001108  1.0000
  C   C14       1.0  0.5903271614739936  0.9685433477797787  0.08902943980415039  1.0000
  C   C15       1.0  0.27128299943345263  0.0390911390002202  0.9774669661776797  1.0000
  C   C16       1.0  0.7287171708979869  0.9609076622094862  0.02253376498110538  1.0000
  C   C17       1.0  0.22470758010506134  0.1310260492756115  0.9644161645775924  1.0000
  C   C18       1.0  0.7752913449151677  0.8689720092931524  0.03558515397799766  1.0000
  C   C19       1.0  0.08959490760515373  0.13486793111876952  0.02734292797151739  1.0000
  C   C20       1.0  0.9104029294656968  0.8651301447112658  0.9726572791697307  1.0000
  C   C21       1.0  0.9938277166145254  0.04675829128971291  0.10730113294515313  1.0000
  C   C22       1.0  0.006171208405696474  0.953239767279051  0.892700185610437  1.0000
  C   C23       1.0  0.04179049939197208  0.9548890556730003  0.1226558655293815  1.0000
  C   C24       1.0  0.9582073382183083  0.0451090276581567  0.8773436825505811  1.0000
  C   C25       1.0  0.17660746645204745  0.9513148313252986  0.058637196967495746  1.0000
  C   C26       1.0  0.8233937934470603  0.04868397512650802  0.9413626684217533  1.0000
  C   C27       1.0  0.8497764695229009  0.04565074426997032  0.17451016711401474  1.0000
  C   C28       1.0  0.1502215238309291  0.9543480764600292  0.8254896593386857  1.0000
  C   C29       1.0  0.7703219281260586  0.1225556405951238  0.15768694343171313  1.0000
  C   C30       1.0  0.22967715317714277  0.8774431628736041  0.8423139944353222  1.0000
  C   C31       1.0  0.6273715084828098  0.11578149890981851  0.23053325857635798  1.0000
  C   C32       1.0  0.3726286618486371  0.8842173022998808  0.769467472582427  1.0000
  C   C33       1.0  0.5490982255139727  0.19817118780863296  0.20815295531945574  1.0000
  C   C34       1.0  0.4509021000215938  0.8018283432987943  0.7918487132733601  1.0000
  C   C35       1.0  0.41716811884487015  0.19240895747577716  0.2819659461810958  1.0000
  C   C36       1.0  0.5828317383811806  0.8075883464328725  0.718036205416091  1.0000
  C   C37       1.0  0.43048743982225807  0.0294204558079656  0.39666945830555983  1.0000
  C   C38       1.0  0.5695128867921612  0.9705790903017117  0.6033308921646708  1.0000
  C   C39       1.0  0.5617661372754341  0.0287931751558759  0.32773253261780166  1.0000
  C   C40       1.0  0.43823527782779337  0.9712063611936514  0.6722682702054784  1.0000
  C   C41       1.0  0.9083999154405122  0.1379858846087885  0.38196872580520136  1.0000
  C   C42       1.0  0.0916019695905207  0.862015901442881  0.6180296168298226  1.0000
  C   C43       1.0  0.8383490583401283  0.23011361930597468  0.3656623361422008  1.0000
  C   C44       1.0  0.16165298405273631  0.7698889266479085  0.6343343076816836  1.0000
  C   C45       1.0  0.9198167026748152  0.31587574961592685  0.3449386498566084  1.0000
  C   C46       1.0  0.08018300429974802  0.6841260409537923  0.6550601061949168  1.0000
  C   C47       1.0  0.8530454480170349  0.3997099288272424  0.3355467628072333  1.0000
  C   C48       1.0  0.1469541032139716  0.6002911243436345  0.6644517148715536  1.0000
  C   C49       1.0  0.7027703084295351  0.3974529763794905  0.3476920554244741  1.0000
  C   C50       1.0  0.2972290865184918  0.6025473318914224  0.6523068029428671  1.0000
  C   C51       1.0  0.6202013434591294  0.31343381414028215  0.3667771587512618  1.0000
  C   C52       1.0  0.3797991405171288  0.6865664918716021  0.633221492907829  1.0000
  C   C53       1.0  0.6888200179700518  0.23055836225955062  0.37538858622951915  1.0000
  C   C54       1.0  0.311181711317417  0.7694426863932692  0.6246094780327667  1.0000
  C   C55       1.0  0.6626127034781676  0.5411378274273559  0.36991616328994326  1.0000
  C   C56       1.0  0.3373879362416474  0.4588632159833779  0.6300827667418857  1.0000
  C   C57       1.0  0.6417390555178173  0.6404958912657437  0.3145771568431924  1.0000
  C   C58       1.0  0.3582614279190111  0.35950440724501925  0.685422153877191  1.0000
  C   C59       1.0  0.6689010311715151  0.7074250352090486  0.34633690428104563  1.0000
  C   C60       1.0  0.3311008538595104  0.29257675084262047  0.6536614383539785  1.0000
  C   C61       1.0  0.7161780324140565  0.675939124649453  0.43389846509344915  1.0000
  C   C62       1.0  0.2838240088999555  0.32406340630218716  0.5660994968530274  1.0000
  C   C63       1.0  0.7323669968108817  0.5753585953504299  0.4904101607241032  1.0000
  C   C64       1.0  0.2676361335313615  0.4246439333421891  0.509587594514116  1.0000
  C   C65       1.0  0.7058859612809982  0.507730959236774  0.45920081893382286  1.0000
  C   C66       1.0  0.29411561010520865  0.49226932201271734  0.5407996032009024  1.0000
  C   C67       1.0  0.752529546564503  0.7493462680865906  0.46441716944298156  1.0000
  C   C68       1.0  0.24747186907814717  0.2506532757640585  0.5355829743189985  1.0000
  N   N1        1.0  0.9156571121396337  0.0972765081612081  0.621628180202265  1.0000
  N   N2        1.0  0.08434072493120942  0.9027215676688201  0.3783720269389903  1.0000
  N   N3        1.0  0.3590322743501417  0.1098727956301602  0.37603037734942285  1.0000
  N   N4        1.0  0.6409668058742071  0.8901259928363247  0.6239718786401979  1.0000
  O   O1        1.0  0.0427060929755072  0.13895567079156024  0.37742257576554283  1.0000
  O   O2        1.0  0.9572959477990679  0.8610468526589583  0.6225760452422193  1.0000
  O   O3        1.0  0.8276833343602448  0.0630712021080981  0.3998456883153238  1.0000
  O   O4        1.0  0.17231916977121395  0.9369283319824008  0.6001549077996983  1.0000
  O   O5        1.0  0.6300415919908957  0.47926236556872237  0.33476565690779125  1.0000
  O   O6        1.0  0.3699568696724498  0.5207386823600544  0.6652336865405317  1.0000
  O   O7        1.0  0.7426420426781845  0.8411923600982406  0.40652112659702794  1.0000
  O   O8        1.0  0.2573615504815123  0.15880717173323686  0.5934792628097512  1.0000
  O   O9        1.0  0.7953240434246567  0.7194395853308466  0.5442347964446339  1.0000
  O   O10       1.0  0.20467705857318208  0.28055845371761723  0.45576742681704013  1.0000
