data_image0
_chemical_formula_structural       Na4H32C28S4N4O28
_chemical_formula_sum              "Na4 H32 C28 S4 N4 O28"
_cell_length_a       7.071857769326171
_cell_length_b       12.022798503419251
_cell_length_c       12.383644024890646
_cell_angle_alpha    89.99907324392605
_cell_angle_beta     105.10133950628624
_cell_angle_gamma    90.00002263985589

_space_group_name_H-M_alt    "P 1"
_space_group_IT_number       1

loop_
  _space_group_symop_operation_xyz
  'x, y, z'

loop_
  _atom_site_type_symbol
  _atom_site_label
  _atom_site_symmetry_multiplicity
  _atom_site_fract_x
  _atom_site_fract_y
  _atom_site_fract_z
  _atom_site_occupancy
  Na  Na1       1.0  0.26434852703084744  0.31716333275984004  0.4960105809728432  1.0000
  Na  Na2       1.0  0.7643331058483652  0.18283775880902906  0.49598943942097407  1.0000
  Na  Na3       1.0  0.735652619043165  0.6828410784198834  0.5039821727573538  1.0000
  Na  Na4       1.0  0.23565781004169395  0.8171575031517335  0.5039953215220407  1.0000
  H   H1        1.0  0.009361572694594098  0.5481365817869771  0.3439297166362962  1.0000
  H   H2        1.0  0.5093544126371866  0.9518695967238457  0.34393868508420417  1.0000
  H   H3        1.0  0.99064687155861  0.45186699757105225  0.6560713981970423  1.0000
  H   H4        1.0  0.49064817310021164  0.04813065562836979  0.6560615520367749  1.0000
  H   H5        1.0  0.7705386798916508  0.5733794758268898  0.2519772568874572  1.0000
  H   H6        1.0  0.2705401721468732  0.9266257944103418  0.2519897429730662  1.0000
  H   H7        1.0  0.22946244952704117  0.4266249353126241  0.748020339456609  1.0000
  H   H8        1.0  0.7294682748938327  0.0733744579419593  0.7480105647858862  1.0000
  H   H9        1.0  0.39631531396818787  0.3962022724017942  0.3050701993768712  1.0000
  H   H10       1.0  0.8963091821573812  0.10381200151478961  0.3050662293002731  1.0000
  H   H11       1.0  0.6036887308202665  0.6038062974664271  0.6949318713139832  1.0000
  H   H12       1.0  0.10369049096291859  0.8961907461402775  0.6949287263157515  1.0000
  H   H13       1.0  0.6586156930154913  0.46997988384730144  0.07474914203597648  1.0000
  H   H14       1.0  0.15863469105220673  0.030000732019608702  0.07474384757564681  1.0000
  H   H15       1.0  0.34136636017512967  0.5300037333989281  0.9252560941567936  1.0000
  H   H16       1.0  0.8413649626252775  0.9700053426009633  0.9252567577286256  1.0000
  H   H17       1.0  0.0928678543288015  0.30260554748175383  0.9475622590364665  1.0000
  H   H18       1.0  0.5928581401303106  0.19739050036933034  0.947556278670703  1.0000
  H   H19       1.0  0.9071449838402827  0.6973922095995703  0.052439514150968584  1.0000
  H   H20       1.0  0.40714152747594307  0.8026014344819501  0.052440291240721096  1.0000
  H   H21       1.0  0.33336733872341984  0.31784670583685676  0.1358165867606189  1.0000
  H   H22       1.0  0.8333372204324975  0.18216620595844552  0.13580940427947752  1.0000
  H   H23       1.0  0.6666601318441392  0.6821626957378936  0.8641914161913177  1.0000
  H   H24       1.0  0.16665218639990806  0.8178323829091526  0.8641880508375195  1.0000
  H   H25       1.0  0.1574788838639734  0.16796780340858664  0.6726910600463684  1.0000
  H   H26       1.0  0.6574960386269951  0.33203116086017564  0.6726926379514994  1.0000
  H   H27       1.0  0.8425163898089922  0.832034944238032  0.3273048514690728  1.0000
  H   H28       1.0  0.34250655542355446  0.6679732502776828  0.3273051778276397  1.0000
  H   H29       1.0  0.15219099664113134  0.10218204012053177  0.5622052523986341  1.0000
  H   H30       1.0  0.6521988850415  0.3978279071908375  0.5622100587159977  1.0000
  H   H31       1.0  0.8478072035196577  0.8978207075160755  0.4377919050892558  1.0000
  H   H32       1.0  0.3478051819685604  0.6021765039654737  0.43778555519127593  1.0000
  C   C1        1.0  0.8824740964712491  0.5100869604793702  0.2851594117853011  1.0000
  C   C2        1.0  0.3824751581295942  0.989917784329883  0.2851676067286064  1.0000
  C   C3        1.0  0.1175226335059136  0.48991578714549183  0.7148391404721365  1.0000
  C   C4        1.0  0.6175259629701486  0.0100841315301992  0.7148324109433447  1.0000
  C   C5        1.0  0.1298216734468625  0.4034625722906212  0.2100221580820616  1.0000
  C   C6        1.0  0.6298170236894052  0.0965332570242694  0.21002821473000208  1.0000
  C   C7        1.0  0.8701809234202001  0.5965301943104534  0.7899748506925235  1.0000
  C   C8        1.0  0.3701811542817027  0.9034645000400802  0.789975399618278  1.0000
  C   C9        1.0  0.9384268519251789  0.44831010015659706  0.19322086609460598  1.0000
  C   C10       1.0  0.4384207777311104  0.051686078966710604  0.19321793407101498  1.0000
  C   C11       1.0  0.061580113839959004  0.5516868251447204  0.8067840648710813  1.0000
  C   C12       1.0  0.5615832865262789  0.9483116781580492  0.8067784869944317  1.0000
  C   C13       1.0  0.805709516464688  0.436129091675923  0.08933239145184757  1.0000
  C   C14       1.0  0.30570628655800663  0.06385796968063319  0.08932969384500922  1.0000
  C   C15       1.0  0.19429305264350918  0.5638636748581262  0.9106726883458548  1.0000
  C   C16       1.0  0.6942904351060051  0.9361406191585857  0.9106712797542825  1.0000
  C   C17       1.0  0.8627656790761195  0.3824775851151329  0.0025067612368233293  1.0000
  C   C18       1.0  0.3627635449191544  0.11751342662827817  0.0025017679708839113  1.0000
  C   C19       1.0  0.1372339663114417  0.6175176766949448  0.9974962654651662  1.0000
  C   C20       1.0  0.6372287828492985  0.8824851622159001  0.9974985473231968  1.0000
  C   C21       1.0  0.0526377572207153  0.3400804118617343  0.0180874525678902  1.0000
  C   C22       1.0  0.5526415445400374  0.15991276545852878  0.01806712722954269  1.0000
  C   C23       1.0  0.9473574526329783  0.6599148498527683  0.981927022363557  1.0000
  C   C24       1.0  0.4473581369311502  0.8400833281917883  0.9819254071354138  1.0000
  C   C25       1.0  0.18478821526730368  0.3496746721819547  0.12148644986202578  1.0000
  C   C26       1.0  0.6847847186041348  0.1503243038305371  0.12147325941889868  1.0000
  C   C27       1.0  0.8152114051314642  0.6503222530740159  0.8785238407468015  1.0000
  C   C28       1.0  0.31521641917123594  0.849671789798016  0.8785219156880615  1.0000
  S   S1        1.0  0.7745786013189075  0.4202802026356167  0.36934602098540376  1.0000
  S   S2        1.0  0.274570861288737  0.0797271535856368  0.3693440129906875  1.0000
  S   S3        1.0  0.22541958773543058  0.5797233767272942  0.6306543649047427  1.0000
  S   S4        1.0  0.7254258659270505  0.9202714352669901  0.6306553464039766  1.0000
  N   N1        1.0  0.726712458598641  0.37262137343790164  0.8945305297022728  1.0000
  N   N2        1.0  0.22671608638227528  0.1273822397921265  0.8945343195994013  1.0000
  N   N3        1.0  0.27327694823956955  0.6273755519234853  0.10546692542869349  1.0000
  N   N4        1.0  0.7732850236139157  0.8726196760411468  0.105468926481791  1.0000
  O   O1        1.0  0.9196362385361992  0.33500764553515694  0.4191416814383685  1.0000
  O   O2        1.0  0.4196293735970897  0.1649989169087291  0.4191368468788923  1.0000
  O   O3        1.0  0.080359035133867  0.6649959338645743  0.5808542300700807  1.0000
  O   O4        1.0  0.5803702939888566  0.8349988402142969  0.5808597229836536  1.0000
  O   O5        1.0  0.7229827366067739  0.4931818292882255  0.4530916857578546  1.0000
  O   O6        1.0  0.22296673421038093  0.006823292515797199  0.4530847426405771  1.0000
  O   O7        1.0  0.2770139711719962  0.5068184230236881  0.5469133233390338  1.0000
  O   O8        1.0  0.7770285339253249  0.9931752963518857  0.5469127831143936  1.0000
  O   O9        1.0  0.600088718762045  0.3693908395073891  0.2924085621578811  1.0000
  O   O10       1.0  0.10008065690597331  0.1306144276310661  0.2923960144754147  1.0000
  O   O11       1.0  0.3999094536253621  0.6306160668277271  0.70759666631821  1.0000
  O   O12       1.0  0.8999190079011825  0.8693841612383577  0.7076013624824569  1.0000
  O   O13       1.0  0.2576830788475988  0.41669328535919453  0.3099699810744525  1.0000
  O   O14       1.0  0.7576800082191968  0.08331505311915781  0.30997002238935784  1.0000
  O   O15       1.0  0.7423136511179534  0.5833127892780894  0.6900285711550609  1.0000
  O   O16       1.0  0.24232551233657776  0.9166843674900564  0.6900290394041306  1.0000
  O   O17       1.0  0.5590464798580328  0.4124774323271864  0.8785446954134103  1.0000
  O   O18       1.0  0.059032832442873905  0.08751725878011031  0.8785400645646817  1.0000
  O   O19       1.0  0.44096930419235036  0.587531137581415  0.12145267393951537  1.0000
  O   O20       1.0  0.9409639114659639  0.9124705173223473  0.12145445230689936  1.0000
  O   O21       1.0  0.7828412701227451  0.32220196441468824  0.81913605661844  1.0000
  O   O22       1.0  0.2828431396966876  0.17780374576002342  0.8191218313277417  1.0000
  O   O23       1.0  0.21714661936207594  0.677789138549265  0.18087651407026328  1.0000
  O   O24       1.0  0.7171491907808941  0.8222139734123104  0.18087767670341753  1.0000
  O   O25       1.0  0.117903494840256  0.17396292716748718  0.5903648474064269  1.0000
  O   O26       1.0  0.6179148079294734  0.3260365635387643  0.5903729121511105  1.0000
  O   O27       1.0  0.8820947164356882  0.8260364934835067  0.409629081700146  1.0000
  O   O28       1.0  0.38208922856614447  0.6739620252720756  0.40963157993046917  1.0000
