data_image0
_chemical_formula_structural       Cd2H64C56N8O8
_chemical_formula_sum              "Cd2 H64 C56 N8 O8"
_cell_length_a       11.32821949167961
_cell_length_b       11.848381172110104
_cell_length_c       12.811019342846546
_cell_angle_alpha    86.2817586153526
_cell_angle_beta     66.55026593643827
_cell_angle_gamma    69.9419890884815

_space_group_name_H-M_alt    "P 1"
_space_group_IT_number       1

loop_
  _space_group_symop_operation_xyz
  'x, y, z'

loop_
  _atom_site_type_symbol
  _atom_site_label
  _atom_site_symmetry_multiplicity
  _atom_site_fract_x
  _atom_site_fract_y
  _atom_site_fract_z
  _atom_site_occupancy
  Cd  Cd1       1.0  0.34296706234722785  0.7851921882646165  0.28757919078591954  1.0000
  Cd  Cd2       1.0  0.657032835313018  0.2148100143333451  0.7124220836230181  1.0000
  H   H1        1.0  0.40814696919864  0.0244529082898524  0.2168489134049594  1.0000
  H   H2        1.0  0.5918507589357916  0.9755448300087792  0.7831540943817005  1.0000
  H   H3        1.0  0.6007838725206157  0.09190651877268857  0.08175246922540674  1.0000
  H   H4        1.0  0.39920961996064375  0.9080948677110356  0.9182502155451503  1.0000
  H   H5        1.0  0.7967311505857071  0.7328277863440675  0.9129851868602686  1.0000
  H   H6        1.0  0.2032629304315705  0.26717989307962847  0.0870130803725715  1.0000
  H   H7        1.0  0.5989678140385595  0.6802454495179546  0.05623231065820268  1.0000
  H   H8        1.0  0.40102480172863153  0.3197613760587146  0.9437610261655822  1.0000
  H   H9        1.0  0.9096570710354757  0.8761154926628407  0.8441360190372578  1.0000
  H   H10       1.0  0.09033985982970454  0.12387958525709308  0.15586270564844543  1.0000
  H   H11       1.0  0.7960635438848769  0.026292467928883005  0.8563502139654205  1.0000
  H   H12       1.0  0.20393593512559258  0.9737061796926554  0.14364513373111265  1.0000
  H   H13       1.0  0.9491922778686259  0.1174020586303897  0.8503144595278019  1.0000
  H   H14       1.0  0.05081472432763705  0.8825947178449453  0.14967533387896026  1.0000
  H   H15       1.0  0.08109621606844553  0.9740053340448681  0.8313093199612922  1.0000
  H   H16       1.0  0.9189114005537817  0.0259896254970755  0.16868348147215784  1.0000
  H   H17       1.0  0.03145551217622276  0.8280887794386869  0.9751569161766868  1.0000
  H   H18       1.0  0.9685480873393646  0.17191431253491626  0.0248352635025312  1.0000
  H   H19       1.0  0.8686588722546138  0.8706512255166384  0.0924985081466544  1.0000
  H   H20       1.0  0.1313490521722613  0.1293482356080915  0.907490060017672  1.0000
  H   H21       1.0  0.1117328942955567  0.009258748213667898  0.638660093942306  1.0000
  H   H22       1.0  0.8882669411798434  0.9907461472736896  0.36134106599709526  1.0000
  H   H23       1.0  0.02111242646675042  0.11569077701161487  0.5686064953605197  1.0000
  H   H24       1.0  0.9788904065882496  0.8843113973990809  0.4313922336359397  1.0000
  H   H25       1.0  0.20630860832165615  0.19618111355615037  0.4805963785705671  1.0000
  H   H26       1.0  0.7936994848081442  0.8038102654331496  0.5193933199085735  1.0000
  H   H27       1.0  0.16373737779655073  0.19626018625193353  0.6292604326622495  1.0000
  H   H28       1.0  0.8362751923032836  0.8037418849552578  0.37073191004245115  1.0000
  H   H29       1.0  0.4318196651464349  0.1106762380486401  0.35082564979452974  1.0000
  H   H30       1.0  0.5681899646399414  0.8893160086566496  0.6491658314688707  1.0000
  H   H31       1.0  0.32326885939149  0.0061897470651785975  0.6946334099387386  1.0000
  H   H32       1.0  0.6767385836090941  0.9938034419230273  0.3053548543261114  1.0000
  H   H33       1.0  0.3374271954101005  0.5229950053622687  0.014256068351087893  1.0000
  H   H34       1.0  0.662571156963594  0.47700903281081947  0.9857409480854573  1.0000
  H   H35       1.0  0.25923449813556243  0.4706171527627559  0.1467996715923476  1.0000
  H   H36       1.0  0.7407744365967162  0.5293741902485961  0.8531952113634987  1.0000
  H   H37       1.0  0.12401066434176042  0.7046262883935343  0.05765504981977188  1.0000
  H   H38       1.0  0.8759905335769105  0.29537229420659367  0.9423490930177536  1.0000
  H   H39       1.0  0.04458496898902109  0.6561609700547493  0.19130672570516785  1.0000
  H   H40       1.0  0.9554229013154654  0.34384465918923  0.8087057535446153  1.0000
  H   H41       1.0  0.1343946005041231  0.624160739565923  0.8841219799463221  1.0000
  H   H42       1.0  0.8655930427746628  0.3758397393497361  0.11589989016174235  1.0000
  H   H43       1.0  0.9654675699433926  0.4778237490534138  0.20266955671955592  1.0000
  H   H44       1.0  0.034525031115926294  0.5221766955966983  0.7973451857116347  1.0000
  H   H45       1.0  0.44111060634723753  0.7967139935732489  0.48685317890696217  1.0000
  H   H46       1.0  0.5588720667856252  0.2032901903088984  0.5131584622711002  1.0000
  H   H47       1.0  0.6035183680988894  0.6729414882257957  0.5722048533067081  1.0000
  H   H48       1.0  0.3964735033863961  0.32706886589488693  0.42780339006437634  1.0000
  H   H49       1.0  0.7369928838320947  0.3847605788897892  0.3179680495150309  1.0000
  H   H50       1.0  0.2629992548358686  0.615244417190034  0.6820341275455349  1.0000
  H   H51       1.0  0.5723005528526173  0.5221439250292973  0.23926207715631878  1.0000
  H   H52       1.0  0.4276983966870773  0.47786370279264645  0.7607329969306492  1.0000
  H   H53       1.0  0.7170095802005036  0.4192161741819191  0.5882630093006399  1.0000
  H   H54       1.0  0.2829875156563378  0.5807833775828681  0.4117377773655305  1.0000
  H   H55       1.0  0.8388644801630889  0.3508454555354846  0.45106038767136875  1.0000
  H   H56       1.0  0.16112971659390513  0.649159541400543  0.5489356333124108  1.0000
  H   H57       1.0  0.8954993026023672  0.5856373805757399  0.3671100183077203  1.0000
  H   H58       1.0  0.10450392633207176  0.4143584926549763  0.6328920174535568  1.0000
  H   H59       1.0  0.023562291743850584  0.43982387921721505  0.3498821626408528  1.0000
  H   H60       1.0  0.9764396098589077  0.5601729037857268  0.6501210536923736  1.0000
  H   H61       1.0  0.015207612225758314  0.3308808221722401  0.5221564293842321  1.0000
  H   H62       1.0  0.9847969440403691  0.6691141412862577  0.4778444258050954  1.0000
  H   H63       1.0  0.8827501522102212  0.3982029941363407  0.6560089971551689  1.0000
  H   H64       1.0  0.11725145080953336  0.6017919940421733  0.3439951903528423  1.0000
  C   C1        1.0  0.4973901807171048  0.96396398153  0.14804109727040077  1.0000
  C   C2        1.0  0.5026075387873448  0.036036460059762  0.8519594353281195  1.0000
  C   C3        1.0  0.6030327189396019  0.0002353715927086016  0.07286170827990901  1.0000
  C   C4        1.0  0.39697014059700564  0.9997641029941066  0.9271387089984843  1.0000
  C   C5        1.0  0.7136734487803695  0.9175801127298012  0.9858018976324203  1.0000
  C   C6        1.0  0.28632089511665987  0.08242935458383731  0.014196972238025286  1.0000
  C   C7        1.0  0.7120531261916343  0.8009876621750465  0.9782156301299877  1.0000
  C   C8        1.0  0.28794093697401735  0.19902001378141415  0.021783424009051106  1.0000
  C   C9        1.0  0.603508832882675  0.7706356260228515  0.05754689984162541  1.0000
  C   C10       1.0  0.39648684697601777  0.22937022822743808  0.9424532646450106  1.0000
  C   C11       1.0  0.8319146107559168  0.9536367791189233  0.906460877135295  1.0000
  C   C12       1.0  0.16808837374204444  0.046362719738589  0.09353403179970603  1.0000
  C   C13       1.0  0.995014604113365  0.04579645785964459  0.8961073795496476  1.0000
  C   C14       1.0  0.004994215470851858  0.9542029776888654  0.1038840123727809  1.0000
  C   C15       1.0  0.9481550008727031  0.9052592727360816  0.034839934983168015  1.0000
  C   C16       1.0  0.05184856293963953  0.09474381230304367  0.9651538185084477  1.0000
  C   C17       1.0  0.1879192690369821  0.966866386669082  0.45905037292455114  1.0000
  C   C18       1.0  0.8120800136056444  0.03313222281278169  0.5409536307401696  1.0000
  C   C19       1.0  0.12411498899316342  0.058033095990751286  0.5614578364108667  1.0000
  C   C20       1.0  0.8758859374157739  0.9419664020105643  0.4385432286009135  1.0000
  C   C21       1.0  0.21105700897976482  0.1373655234827993  0.5497586926189868  1.0000
  C   C22       1.0  0.7889512048084627  0.8626330257079857  0.45023216646488623  1.0000
  C   C23       1.0  0.35946630260436757  0.067163211339377  0.5253970162153296  1.0000
  C   C24       1.0  0.6405373677260543  0.9328344844537069  0.47459775312156444  1.0000
  C   C25       1.0  0.4618740544412462  0.061797508173377494  0.4165535001014434  1.0000
  C   C26       1.0  0.5381320255244121  0.9381965836525692  0.5834375185477471  1.0000
  C   C27       1.0  0.4002082161228344  0.003955974962416098  0.6087643400751049  1.0000
  C   C28       1.0  0.5997987682218097  0.9960407980456838  0.39122624023785585  1.0000
  C   C29       1.0  0.3081532448198915  0.625990395036652  0.15861641871899218  1.0000
  C   C30       1.0  0.6918627181473341  0.3739972438644088  0.8413825370900627  1.0000
  C   C31       1.0  0.2587918097982325  0.553148749409587  0.10158970845241562  1.0000
  C   C32       1.0  0.7412104882756126  0.44684714246286444  0.8984110773631572  1.0000
  C   C33       1.0  0.11672884700982425  0.6237706897728755  0.1026348973021598  1.0000
  C   C34       1.0  0.8832726759734586  0.37622698782779906  0.8973699626425146  1.0000
  C   C35       1.0  0.058873693167051065  0.55803466415378  0.04970898529487038  1.0000
  C   C36       1.0  0.9411154159534761  0.4419720786583951  0.9503120779397705  1.0000
  C   C37       1.0  0.07587111083231694  0.5690318888855755  0.9354712641696497  1.0000
  C   C38       1.0  0.9241201715252955  0.4309667622456388  0.06454713402162322  1.0000
  C   C39       1.0  0.9815801873887723  0.4878064315302452  0.11330669771803784  1.0000
  C   C40       1.0  0.0184127479567878  0.5121958148787866  0.8867054997259632  1.0000
  C   C41       1.0  0.5100539490354523  0.7056134464690372  0.45078095046538624  1.0000
  C   C42       1.0  0.48993746809681243  0.2943933457407296  0.5492229400056843  1.0000
  C   C43       1.0  0.5991685049606518  0.6360348562305376  0.49865065380252827  1.0000
  C   C44       1.0  0.40082785642757557  0.36397634088611847  0.5013560400341321  1.0000
  C   C45       1.0  0.6833102865959761  0.5180902608453477  0.4519225035280385  1.0000
  C   C46       1.0  0.316678573761017  0.48191566495395216  0.5480822887440695  1.0000
  C   C47       1.0  0.673970339158501  0.47622518881144765  0.3570538676416748  1.0000
  C   C48       1.0  0.32601746537653764  0.5237807313588901  0.6429551830281214  1.0000
  C   C49       1.0  0.583403022779919  0.5513043711578333  0.3128165681067828  1.0000
  C   C50       1.0  0.4165881585458493  0.44870334338760637  0.6871826707261449  1.0000
  C   C51       1.0  0.779057720644026  0.43890599741798997  0.502731342992931  1.0000
  C   C52       1.0  0.2209373441970541  0.561096263716209  0.4972715507494883  1.0000
  C   C53       1.0  0.9580627613151549  0.523571462769759  0.4082169705770013  1.0000
  C   C54       1.0  0.041938253760236056  0.47642264251827265  0.5917858971862556  1.0000
  C   C55       1.0  0.9503415951723254  0.4182701965294627  0.5738558748300308  1.0000
  C   C56       1.0  0.04965945560631013  0.581723915693054  0.4261454191208287  1.0000
  N   N1        1.0  0.49835274418620684  0.8505213481083871  0.14135402359872265  1.0000
  N   N2        1.0  0.5016434922165375  0.14947823616710554  0.8586423654969481  1.0000
  N   N3        1.0  0.8899362733010535  0.9986596202750205  0.9711430155777733  1.0000
  N   N4        1.0  0.1100696201100533  0.0013425502191211003  0.0288476596628087  1.0000
  N   N5        1.0  0.5020780503099617  0.6640995638309162  0.359096107680962  1.0000
  N   N6        1.0  0.4979156336445597  0.33590359667377356  0.6409103273520034  1.0000
  N   N7        1.0  0.8671634662853407  0.4968289910125207  0.517212640864841  1.0000
  N   N8        1.0  0.13283720587382672  0.5031660158077287  0.48279029669747336  1.0000
  O   O1        1.0  0.20413120788801828  0.8558448386688865  0.4774076087140315  1.0000
  O   O2        1.0  0.7958693306798071  0.14415284717178878  0.5225983620035424  1.0000
  O   O3        1.0  0.22753926206904404  0.0016219208719760988  0.35881156544924414  1.0000
  O   O4        1.0  0.7724567644171502  0.9983704758658118  0.6411875975726886  1.0000
  O   O5        1.0  0.2216109558769759  0.7291718603140396  0.21122780502253852  1.0000
  O   O6        1.0  0.7784023789084813  0.27081489830757727  0.7887752002123423  1.0000
  O   O7        1.0  0.42837784369091747  0.5831549343636409  0.15508118989634306  1.0000
  O   O8        1.0  0.5716384221622308  0.4168273534310457  0.8449101257897953  1.0000
