data_image0
_chemical_formula_structural       Zn2H24C30N10O12
_chemical_formula_sum              "Zn2 H24 C30 N10 O12"
_cell_length_a       10.827333295329694
_cell_length_b       11.356784627549182
_cell_length_c       11.634984136969358
_cell_angle_alpha    113.58562244401125
_cell_angle_beta     102.52718832040301
_cell_angle_gamma    97.08999184040053

_space_group_name_H-M_alt    "P 1"
_space_group_IT_number       1

loop_
  _space_group_symop_operation_xyz
  'x, y, z'

loop_
  _atom_site_type_symbol
  _atom_site_label
  _atom_site_symmetry_multiplicity
  _atom_site_fract_x
  _atom_site_fract_y
  _atom_site_fract_z
  _atom_site_occupancy
  Zn  Zn1       1.0  0.2480084783545422  0.21782800541605238  0.3888866150736661  1.0000
  Zn  Zn2       1.0  0.7519924341759959  0.7821696947976022  0.6111140972686968  1.0000
  H   H1        1.0  0.5171917344472162  0.27455546070800096  0.3584050360532416  1.0000
  H   H2        1.0  0.4828096236332158  0.7254442242183927  0.6415956956318708  1.0000
  H   H3        1.0  0.6387557249429746  0.174450800431778  0.20216676088541158  1.0000
  H   H4        1.0  0.36124717636067766  0.8255558032814532  0.7978370324672992  1.0000
  H   H5        1.0  0.2695881309140589  0.9134315904922161  0.9286187314142821  1.0000
  H   H6        1.0  0.7304157323342293  0.08657504555089449  0.07138269299412059  1.0000
  H   H7        1.0  0.165482631960522  0.024914898414962704  0.0963834519983777  1.0000
  H   H8        1.0  0.8345196311066161  0.9750887796864302  0.9036147521139666  1.0000
  H   H9        1.0  0.0789992878252477  0.03354164665536531  0.4561294224577495  1.0000
  H   H10       1.0  0.9209962369222494  0.9664530692116173  0.5438664249132898  1.0000
  H   H11       1.0  0.06297512166432274  0.8134544742655192  0.4603269405910239  1.0000
  H   H12       1.0  0.9370222945696367  0.18654025084568807  0.5396701568273626  1.0000
  H   H13       1.0  0.408208330016805  0.7877643514365572  0.32994237648464514  1.0000
  H   H14       1.0  0.59178974296956  0.21223333095250033  0.6700568884964184  1.0000
  H   H15       1.0  0.4136138374693985  0.0113695857242107  0.3401516518427172  1.0000
  H   H16       1.0  0.5863863567218317  0.9886291101402025  0.6598475897279242  1.0000
  H   H17       1.0  0.175659433573486  0.4661564424873249  0.5514212993492649  1.0000
  H   H18       1.0  0.8243525550864135  0.533844293555191  0.4485854618481824  1.0000
  H   H19       1.0  0.16482027514622635  0.6879708569542727  0.5607467533945609  1.0000
  H   H20       1.0  0.8351881417432522  0.31203083316490415  0.4392596559281258  1.0000
  H   H21       1.0  0.2907801629363931  0.5677112392071068  0.21008353108418729  1.0000
  H   H22       1.0  0.7092106168935429  0.43228342584154683  0.7899121851364798  1.0000
  H   H23       1.0  0.29162943448987727  0.35140423916318747  0.21392911022393693  1.0000
  H   H24       1.0  0.7083648555235627  0.6485934247374203  0.7860676546624391  1.0000
  C   C1        1.0  0.4663897664357535  0.19439010595672102  0.2614258998092964  1.0000
  C   C2        1.0  0.5336120325655997  0.805611555765914  0.7385757066379879  1.0000
  C   C3        1.0  0.5338660827092737  0.13722679218230377  0.1726943076584746  1.0000
  C   C4        1.0  0.4661368940682065  0.8627758823518191  0.8273062226450065  1.0000
  C   C5        1.0  0.46614570369452213  0.032529535071923  0.04893456397841328  1.0000
  C   C6        1.0  0.533858882522054  0.9674761132369342  0.9510674757822882  1.0000
  C   C7        1.0  0.3309542164293616  0.9923013579582546  0.0221225616162216  1.0000
  C   C8        1.0  0.6690485491456073  0.007700344010764602  0.9778758204673323  1.0000
  C   C9        1.0  0.2704299067547352  0.05455765345124771  0.11599900007269068  1.0000
  C   C10       1.0  0.7295721173360545  0.9454450045860128  0.8840021883362537  1.0000
  C   C11       1.0  0.15013877311849202  0.9755196839595401  0.4302403575605639  1.0000
  C   C12       1.0  0.8498588635759247  0.024476029549788305  0.5697571772389053  1.0000
  C   C13       1.0  0.1414107015789979  0.8525968622096084  0.4309357369145274  1.0000
  C   C14       1.0  0.8585843067737495  0.1473998060402408  0.5690624987435696  1.0000
  C   C15       1.0  0.2330031486916013  0.7800833783989917  0.3914355226281998  1.0000
  C   C16       1.0  0.7669949335527091  0.2199143198230757  0.608562031514019  1.0000
  C   C17       1.0  0.33272001703031145  0.8385048768523546  0.35794161987741546  1.0000
  C   C18       1.0  0.6672773283587929  0.16149378535445888  0.6420578851707717  1.0000
  C   C19       1.0  0.3357695160876162  0.9630748912488158  0.3633060528177197  1.0000
  C   C20       1.0  0.6642297300458962  0.0369237960352322  0.636692991438963  1.0000
  C   C21       1.0  0.19895333225083786  0.4931317458689222  0.47726936432237466  1.0000
  C   C22       1.0  0.8010534136126423  0.5068709234041435  0.5227362323340614  1.0000
  C   C23       1.0  0.1928077296056401  0.616150651879984  0.4812273316342086  1.0000
  C   C24       1.0  0.8071974068187443  0.3838490436183619  0.5187767555650069  1.0000
  C   C25       1.0  0.22797761765763613  0.6473924124005632  0.3858637492865782  1.0000
  C   C26       1.0  0.7720185545843207  0.3526052449112597  0.6141359764859899  1.0000
  C   C27       1.0  0.2627334278186666  0.5498314094339989  0.28703918604313117  1.0000
  C   C28       1.0  0.7372566290429886  0.45016424334890814  0.712955914825237  1.0000
  C   C29       1.0  0.26464663963044194  0.4288474776740047  0.28928302638811243  1.0000
  C   C30       1.0  0.7353476364960728  0.5711501624770889  0.7107163047565308  1.0000
  N   N1        1.0  0.3877924614664535  0.33106135200277714  0.6420395399927016  1.0000
  N   N2        1.0  0.6122058227224157  0.6689373029513989  0.35796187320828926  1.0000
  N   N3        1.0  0.972351592936107  0.1734380224289254  0.2653184933986381  1.0000
  N   N4        1.0  0.027649003734005455  0.8265666427428687  0.7346780426280263  1.0000
  N   N5        1.0  0.33649049138949744  0.1539200165502095  0.23463223944554554  1.0000
  N   N6        1.0  0.6635110917803714  0.8460806646908098  0.7653680742012269  1.0000
  N   N7        1.0  0.2448183599539533  0.030357849020092  0.39609350606686883  1.0000
  N   N8        1.0  0.7551787696036598  0.9696398327051056  0.6039047061808134  1.0000
  N   N9        1.0  0.2357056720661745  0.4008811854413352  0.3837250198867395  1.0000
  N   N10       1.0  0.7642973524112833  0.5991175124146578  0.6162773798840461  1.0000
  O   O1        1.0  0.43516198972700687  0.3009168323160694  0.5428303283811076  1.0000
  O   O2        1.0  0.5648356330804916  0.6990788574437447  0.4571697726766287  1.0000
  O   O3        1.0  0.26423024293192293  0.31094655849571495  0.6154972382061317  1.0000
  O   O4        1.0  0.7357680458859264  0.6890521043749588  0.3845033195754369  1.0000
  O   O5        1.0  0.4608721371455361  0.3757260742421948  0.7553675523558426  1.0000
  O   O6        1.0  0.5391254240750526  0.6242735684462346  0.24463324549285662  1.0000
  O   O7        1.0  0.04662929180683759  0.19144706355613286  0.3778058507415166  1.0000
  O   O8        1.0  0.9533693994898936  0.8085575686219213  0.6221920014960671  1.0000
  O   O9        1.0  0.015465830116738709  0.14117014757452043  0.1682344292205542  1.0000
  O   O10       1.0  0.9845309293648226  0.8588216202588299  0.8317605006351485  1.0000
  O   O11       1.0  0.8590900266907084  0.1904072662053906  0.2594004853930088  1.0000
  O   O12       1.0  0.14091390003116547  0.8096122645207163  0.7405983342528232  1.0000
