data_image0
_chemical_formula_structural       Cd8H128C192N16O32
_chemical_formula_sum              "Cd8 H128 C192 N16 O32"
_cell_length_a       14.301686446001327
_cell_length_b       18.3631896540047
_cell_length_c       19.574946784004883
_cell_angle_alpha    90.00007362318043
_cell_angle_beta     89.99996849321839
_cell_angle_gamma    89.99996203606301

_space_group_name_H-M_alt    "P 1"
_space_group_IT_number       1

loop_
  _space_group_symop_operation_xyz
  'x, y, z'

loop_
  _atom_site_type_symbol
  _atom_site_label
  _atom_site_symmetry_multiplicity
  _atom_site_fract_x
  _atom_site_fract_y
  _atom_site_fract_z
  _atom_site_occupancy
  Cd  Cd1       1.0  0.9775283803455536  0.08761589796045399  0.942195010181436  1.0000
  Cd  Cd2       1.0  0.022470434750317694  0.4123834510373071  0.44219505749155996  1.0000
  Cd  Cd3       1.0  0.5224709791472576  0.5876162288993215  0.05780474455649911  1.0000
  Cd  Cd4       1.0  0.47752909973438307  0.9123826060785373  0.5578047736689058  1.0000
  Cd  Cd5       1.0  0.0224710666427939  0.9123834663117375  0.05780554905352631  1.0000
  Cd  Cd6       1.0  0.9775290122386195  0.5876159132338258  0.5578039691721983  1.0000
  Cd  Cd7       1.0  0.47752916705967857  0.41238367993933167  0.9421942821074367  1.0000
  Cd  Cd8       1.0  0.5224710464728587  0.08761566905771188  0.44219527470820463  1.0000
  H   H1        1.0  0.5178073154994108  0.22076172452543827  0.14726224150765432  1.0000
  H   H2        1.0  0.4821924212041822  0.27923993845911355  0.6472615993302071  1.0000
  H   H3        1.0  0.9821919309547054  0.7207607414380631  0.8527366500800753  1.0000
  H   H4        1.0  0.017807226317749794  0.7792401360939252  0.3527380732689097  1.0000
  H   H5        1.0  0.4821935299251478  0.7792387288814451  0.8527378068706073  1.0000
  H   H6        1.0  0.5178084242208385  0.7207594258123605  0.3527384490474148  1.0000
  H   H7        1.0  0.017806117597245895  0.27924025653618395  0.14726186572786304  1.0000
  H   H8        1.0  0.9821908222338535  0.2207603173136831  0.6472619751099131  1.0000
  H   H9        1.0  0.7726276979126964  0.12201784159302781  0.034159397573574814  1.0000
  H   H10       1.0  0.22737142485701872  0.37798257546707964  0.534158464322296  1.0000
  H   H11       1.0  0.7273702339365113  0.6220176916371187  0.9658414198481253  1.0000
  H   H12       1.0  0.27262953727013434  0.8779827981169034  0.46584030415602484  1.0000
  H   H13       1.0  0.22737314751232418  0.8779815226784535  0.9658406508040401  1.0000
  H   H14       1.0  0.7726294205686981  0.6220151551012876  0.4658415840543528  1.0000
  H   H15       1.0  0.2726264161788094  0.37798276177049667  0.03415811767391121  1.0000
  H   H16       1.0  0.7273699097185683  0.1220171107219272  0.5341587225080531  1.0000
  H   H17       1.0  0.7154205167497237  0.8935739340608463  0.8656385018283929  1.0000
  H   H18       1.0  0.2845786307954156  0.6064258722196669  0.365638079659  1.0000
  H   H19       1.0  0.784579282205044  0.3935747613111928  0.13436263899238557  1.0000
  H   H20       1.0  0.21542116344403436  0.10642633922295629  0.6343613871342485  1.0000
  H   H21       1.0  0.28457893023863073  0.10642543021134539  0.1343620574065767  1.0000
  H   H22       1.0  0.7154208161930952  0.3935740366195191  0.6343614578621485  1.0000
  H   H23       1.0  0.21542016478284856  0.6064256920964081  0.8656379202432306  1.0000
  H   H24       1.0  0.7845789827625181  0.8935735696164072  0.3656386612438355  1.0000
  H   H25       1.0  0.5691078180373592  0.7739775267297517  0.6924415650934463  1.0000
  H   H26       1.0  0.43089425697734635  0.7260214948889042  0.1924427592480455  1.0000
  H   H27       1.0  0.930892781673961  0.2739763401399387  0.3075563681549839  1.0000
  H   H28       1.0  0.06910543572594459  0.22602227764825503  0.8075578716871804  1.0000
  H   H29       1.0  0.43089512504230487  0.22602292667588128  0.3075574615702551  1.0000
  H   H30       1.0  0.5691058892292489  0.2739778693831099  0.8075577999867818  1.0000
  H   H31       1.0  0.06910596609673549  0.726023024131372  0.6924426585089094  1.0000
  H   H32       1.0  0.9308933120447448  0.7739770866230559  0.19244115497671296  1.0000
  H   H33       1.0  0.8037179982093575  0.993879564350493  0.2160163435807334  1.0000
  H   H34       1.0  0.19628405902842155  0.5061233019208871  0.7160149799443901  1.0000
  H   H35       1.0  0.6962810163695181  0.4938786149625045  0.7839844058370532  1.0000
  H   H36       1.0  0.30371931645956346  0.006121059282463599  0.2839838565381215  1.0000
  H   H37       1.0  0.19628494486864406  0.006122522760023201  0.7839852373693007  1.0000
  H   H38       1.0  0.8037181848327322  0.4938782406199778  0.2839835358630296  1.0000
  H   H39       1.0  0.3037177314007166  0.5061218384442158  0.21601462082748676  1.0000
  H   H40       1.0  0.6962801305291392  0.9938788495563741  0.7160151701259567  1.0000
  H   H41       1.0  0.6717580369004847  0.3382952008120127  0.9523142776436873  1.0000
  H   H42       1.0  0.32824216900110054  0.16170470678135723  0.4523149255106347  1.0000
  H   H43       1.0  0.8282411097681004  0.8382948150351766  0.047685775630355906  1.0000
  H   H44       1.0  0.17175827752475928  0.6617056396184182  0.5476856288290222  1.0000
  H   H45       1.0  0.3282421093058332  0.6617052525950554  0.047685770734716505  1.0000
  H   H46       1.0  0.6717586764236926  0.8382952020578216  0.5476851228673071  1.0000
  H   H47       1.0  0.17175763800182153  0.16170454923755528  0.9523152944618261  1.0000
  H   H48       1.0  0.8282411694633607  0.3382942692214783  0.4523149304062741  1.0000
  H   H49       1.0  0.793890216465307  0.9883194857078335  0.9368469097868728  1.0000
  H   H50       1.0  0.20610887738605035  0.5116804192854046  0.43684640625225785  1.0000
  H   H51       1.0  0.7061088028335261  0.48831971025600746  0.0631538330100554  1.0000
  H   H52       1.0  0.2938916965097533  0.011680746997363703  0.5631529477074437  1.0000
  H   H53       1.0  0.20610783208653058  0.011680423132070001  0.06315313859163041  1.0000
  H   H54       1.0  0.7938905696024602  0.4883194895537884  0.5631531312688909  1.0000
  H   H55       1.0  0.2938906441543594  0.5116807431515937  0.9368467262255608  1.0000
  H   H56       1.0  0.7061091489149973  0.9883197064091716  0.4368465898137543  1.0000
  H   H57       1.0  0.9147600466056287  0.7949574629837952  0.7073314593584641  1.0000
  H   H58       1.0  0.08524131796275469  0.705043212979014  0.20733225628632823  1.0000
  H   H59       1.0  0.5852405352921862  0.2949580682019359  0.29266905316161035  1.0000
  H   H60       1.0  0.41475839255127056  0.20504270721814777  0.7926688605219497  1.0000
  H   H61       1.0  0.08524149803744051  0.20504190128785643  0.2926690998760862  1.0000
  H   H62       1.0  0.9147588282429097  0.29495832956380497  0.7926683029497995  1.0000
  H   H63       1.0  0.4147582124781266  0.7050412960700854  0.7073309952164308  1.0000
  H   H64       1.0  0.5852417536553247  0.7949566570538663  0.20733169871287777  1.0000
  H   H65       1.0  0.6724194713451154  0.6926985435124137  0.6222671034183378  1.0000
  H   H66       1.0  0.32758335580149367  0.8073014699620913  0.12226843579966132  1.0000
  H   H67       1.0  0.8275818965895211  0.1926975076264696  0.37773073303407056  1.0000
  H   H68       1.0  0.17241696711450055  0.307301207440922  0.8777322919319488  1.0000
  H   H69       1.0  0.32758277251677  0.30730082075799453  0.37773192324485194  1.0000
  H   H70       1.0  0.6724174896228802  0.1926989834451476  0.8777321234356775  1.0000
  H   H71       1.0  0.17241685118140276  0.8073013120771434  0.6222682936295032  1.0000
  H   H72       1.0  0.8275817806558123  0.692698156831099  0.12226775644608522  1.0000
  H   H73       1.0  0.694277424265259  0.07751759218212578  0.2783776752312903  1.0000
  H   H74       1.0  0.305724311226342  0.4224853416968059  0.7783777852706706  1.0000
  H   H75       1.0  0.8057219438017568  0.5775159740251253  0.7216220674793095  1.0000
  H   H76       1.0  0.19427661311878808  0.9224836326128241  0.22162205791943282  1.0000
  H   H77       1.0  0.3057227219408318  0.92248340579264  0.7216223731474403  1.0000
  H   H78       1.0  0.6942786318521995  0.5775172899799939  0.2216217522513944  1.0000
  H   H79       1.0  0.19427680396839966  0.42248556851629354  0.27837593747173633  1.0000
  H   H80       1.0  0.8057214354332841  0.07751573165937489  0.7783779904587435  1.0000
  H   H81       1.0  0.7550933623731028  0.23675170982030386  0.010490439545122902  1.0000
  H   H82       1.0  0.24490647746157626  0.2632492189968047  0.510490384338759  1.0000
  H   H83       1.0  0.7449051712867102  0.7367510390400298  0.9895100036567898  1.0000
  H   H84       1.0  0.25509388285416174  0.7632494835257687  0.48951029093088755  1.0000
  H   H85       1.0  0.24490678383322256  0.7632487435867574  0.9895096088332879  1.0000
  H   H86       1.0  0.7550950671812586  0.7367506898425518  0.4895101748961111  1.0000
  H   H87       1.0  0.25509357648316916  0.2632488698000515  0.0104905555786416  1.0000
  H   H88       1.0  0.74490556413415  0.23675042531377238  0.5104897574473313  1.0000
  H   H89       1.0  0.9480364862189532  0.90977793328161  0.7254204591215087  1.0000
  H   H90       1.0  0.05196346627337079  0.590223312324376  0.22542011093961636  1.0000
  H   H91       1.0  0.5519625997606212  0.40977853063264996  0.2745807009967791  1.0000
  H   H92       1.0  0.4480363417219521  0.09022276428002839  0.774580358271379  1.0000
  H   H93       1.0  0.05196296076828589  0.0902236092617485  0.2745806109718316  1.0000
  H   H94       1.0  0.9480352814960539  0.4097776856511074  0.7745804482964688  1.0000
  H   H95       1.0  0.4480368472266179  0.5902230119107087  0.725420369096561  1.0000
  H   H96       1.0  0.5519638044846003  0.909777144559335  0.2254196901067047  1.0000
  H   H97       1.0  0.6391078866250269  0.8651469083743419  0.7692908564105283  1.0000
  H   H98       1.0  0.3608920327881293  0.6348522197765547  0.2692909483485764  1.0000
  H   H99       1.0  0.860891237246605  0.36514674058789603  0.23070922884161865  1.0000
  H   H100      1.0  0.1391070380990911  0.13485285980506484  0.7307090631552172  1.0000
  H   H101      1.0  0.360893658018007  0.1348530004646591  0.2307091919672715  1.0000
  H   H102      1.0  0.6391067149821763  0.3651471444954666  0.7307091000294648  1.0000
  H   H103      1.0  0.1391061120869921  0.6348531682521924  0.7692908195370265  1.0000
  H   H104      1.0  0.8608931081078451  0.8651470490335882  0.2692899635087258  1.0000
  H   H105      1.0  0.6199330248860734  0.17899721613968464  0.21770529954327603  1.0000
  H   H106      1.0  0.38006735791932295  0.32100291079416365  0.7177057697714349  1.0000
  H   H107      1.0  0.880067655461822  0.6789967327795665  0.7822940531637671  1.0000
  H   H108      1.0  0.11993085570937718  0.8210035025330242  0.2822944634212235  1.0000
  H   H109      1.0  0.38006642210351765  0.8210010589956908  0.7822932162627582  1.0000
  H   H110      1.0  0.6199334875050865  0.6789969980457257  0.282295300320655  1.0000
  H   H111      1.0  0.11993179152665327  0.321003720626976  0.2177049735006378  1.0000
  H   H112      1.0  0.880066493623566  0.17899749544282167  0.7177060958151458  1.0000
  H   H113      1.0  0.016562078388872695  0.0027413617459969997  0.8032910710030521  1.0000
  H   H114      1.0  0.9834375406636297  0.4972594283983084  0.30329032316533505  1.0000
  H   H115      1.0  0.48343710465950096  0.502741102297854  0.196709294025105  1.0000
  H   H116      1.0  0.5165621702639384  0.9972595589400299  0.696709408563926  1.0000
  H   H117      1.0  0.9834366693801256  0.9972601807975393  0.19670999909042317  1.0000
  H   H118      1.0  0.016561906324263  0.5027410250092926  0.6967102360702881  1.0000
  H   H119      1.0  0.5165630415467815  0.4972598956765567  0.8032902434965552  1.0000
  H   H120      1.0  0.48343797594257865  0.002740894466683099  0.3032901289574142  1.0000
  H   H121      1.0  0.44471941280808375  0.3222173844148344  0.0826016043917832  1.0000
  H   H122      1.0  0.5552803726519641  0.1777836443666985  0.5826018337936105  1.0000
  H   H123      1.0  0.0552794990085133  0.8222167117294533  0.9173981193892331  1.0000
  H   H124      1.0  0.9447203087253937  0.6777842554387304  0.4173985391829761  1.0000
  H   H125      1.0  0.5552814326162901  0.6777830689924045  0.9173989548435557  1.0000
  H   H126      1.0  0.4447204727730635  0.8222157199047825  0.41739821458401144  1.0000
  H   H127      1.0  0.9447192487613376  0.1777837416779704  0.0826019289894475  1.0000
  H   H128      1.0  0.05527913826276889  0.3222151088338164  0.582602530909064  1.0000
  C   C1        1.0  0.5555804887225121  0.24538921509557807  0.10478805905515291  1.0000
  C   C2        1.0  0.44442137766149875  0.25461347814568575  0.6047899569820245  1.0000
  C   C3        1.0  0.9444194360415137  0.7453877658535648  0.895210861861287  1.0000
  C   C4        1.0  0.0555796892041585  0.7546137151249823  0.3952107080030771  1.0000
  C   C5        1.0  0.44442105592028  0.7546112383111278  0.8952119893229736  1.0000
  C   C6        1.0  0.5555801669805261  0.745386975262427  0.3952121348243907  1.0000
  C   C7        1.0  0.05557861251048019  0.25461268755333316  0.10478816480339502  1.0000
  C   C8        1.0  0.9444197577837699  0.24538619371526948  0.6047903620892898  1.0000
  C   C9        1.0  0.7944474982422135  0.05358425183333539  0.1218510340125789  1.0000
  C   C10       1.0  0.20555295684093267  0.4464168313568634  0.6218501910099122  1.0000
  C   C11       1.0  0.7055518901434609  0.5535834470297587  0.8781491910531187  1.0000
  C   C12       1.0  0.294448646404625  0.946416921160633  0.3781481481101708  1.0000
  C   C13       1.0  0.20555404640035851  0.946416746141068  0.8781490143658673  1.0000
  C   C14       1.0  0.7944485878027121  0.5535825329137296  0.37814883565341983  1.0000
  C   C15       1.0  0.29444755684519913  0.4464170063764214  0.12184932475420854  1.0000
  C   C16       1.0  0.7055508005838079  0.05358407681325159  0.6218503676974835  1.0000
  C   C17       1.0  0.7542046795950624  0.1126916169038239  0.08756950259917323  1.0000
  C   C18       1.0  0.24579650055576246  0.3873088741963073  0.5875695947803053  1.0000
  C   C19       1.0  0.7457953578273971  0.6126908388121703  0.9124302820008979  1.0000
  C   C20       1.0  0.25420515287132867  0.8873090323334055  0.4124302065187564  1.0000
  C   C21       1.0  0.24579756426624746  0.8873077473676501  0.9124310566352352  1.0000
  C   C22       1.0  0.7542043448699544  0.6126888563720668  0.4124304535963362  1.0000
  C   C23       1.0  0.25420338994344854  0.3873090700261342  0.08756772294918141  1.0000
  C   C24       1.0  0.7457942941165638  0.11269142107418867  0.5875703527168598  1.0000
  C   C25       1.0  0.6893759295800803  0.15794033186023881  0.12108125561236702  1.0000
  C   C26       1.0  0.31062452608313856  0.342061294830792  0.6210807570522975  1.0000
  C   C27       1.0  0.8106233702086382  0.6579389292210607  0.8789185828746258  1.0000
  C   C28       1.0  0.18937576732265876  0.8420614400365665  0.3789179686470945  1.0000
  C   C29       1.0  0.3106249158449046  0.8420595769785846  0.8789182819085044  1.0000
  C   C30       1.0  0.6893763193423084  0.6579375248726292  0.37891878046792027  1.0000
  C   C31       1.0  0.18937467834273747  0.3420620687542523  0.12108146550453111  1.0000
  C   C32       1.0  0.8106229804469577  0.15793955793856898  0.6210820797319132  1.0000
  C   C33       1.0  0.6441546767520308  0.21931364325698866  0.08511032220912541  1.0000
  C   C34       1.0  0.3558437083799503  0.2806879335697516  0.5851097324245984  1.0000
  C   C35       1.0  0.855843172494609  0.7193122670984663  0.9148901002253357  1.0000
  C   C36       1.0  0.14415593791221679  0.7806886965931099  0.41489045275636016  1.0000
  C   C37       1.0  0.3558447702362457  0.7806868101499019  0.9148892153123498  1.0000
  C   C38       1.0  0.6441564378268722  0.7193108861345578  0.4148908268099092  1.0000
  C   C39       1.0  0.14415487605719327  0.2806881863087867  0.08510943729641703  1.0000
  C   C40       1.0  0.8558421106391589  0.21931230138220312  0.5851095956227896  1.0000
  C   C41       1.0  0.7818427497272394  0.9166379813348583  0.8491122759621134  1.0000
  C   C42       1.0  0.2181578087153467  0.5833623466038416  0.3491123638194439  1.0000
  C   C43       1.0  0.7181570296467542  0.4166383212750375  0.15088838146850495  1.0000
  C   C44       1.0  0.28184340354135157  0.0833622576005624  0.6508875863636732  1.0000
  C   C45       1.0  0.21815739647912114  0.08336192750486049  0.1508882832730407  1.0000
  C   C46       1.0  0.781843036709212  0.41663810680304175  0.6508876845588176  1.0000
  C   C47       1.0  0.28184241734136606  0.583361587564859  0.8491121777667844  1.0000
  C   C48       1.0  0.7181574418834414  0.9166376512386165  0.3491124620142685  1.0000
  C   C49       1.0  0.7822490687791798  0.8373227117221019  0.7441132203440617  1.0000
  C   C50       1.0  0.2177501704000804  0.6626780152292538  0.24411289196511626  1.0000
  C   C51       1.0  0.7177507779327924  0.33732210829272447  0.25588836434278056  1.0000
  C   C52       1.0  0.28224817764486687  0.1626786161397149  0.7558876635338834  1.0000
  C   C53       1.0  0.2177510774270246  0.16267665255062264  0.2558883606049065  1.0000
  C   C54       1.0  0.7822485773695718  0.3373224381785249  0.7558876672706419  1.0000
  C   C55       1.0  0.2822479698375488  0.6626767114119473  0.7441121948920043  1.0000
  C   C56       1.0  0.7177512693430187  0.8373218372678863  0.2441128957017327  1.0000
  C   C57       1.0  0.6449373336346226  0.7772514513255969  0.6970224072034911  1.0000
  C   C58       1.0  0.35506264027203827  0.7227470320750555  0.19702209529738476  1.0000
  C   C59       1.0  0.8550625640774497  0.27725193130336817  0.3029775733733048  1.0000
  C   C60       1.0  0.14493705521164907  0.22274776927142168  0.8029775100240714  1.0000
  C   C61       1.0  0.35506351179021306  0.22274791294623242  0.3029781520312014  1.0000
  C   C62       1.0  0.6449368067167001  0.2772523321964329  0.802977442223437  1.0000
  C   C63       1.0  0.14493548447411797  0.7227490666715894  0.6970219641487675  1.0000
  C   C64       1.0  0.8550630909952942  0.7772521395672315  0.19702151663986464  1.0000
  C   C65       1.0  0.8634442903506353  0.0044718269657976996  0.08691909520262442  1.0000
  C   C66       1.0  0.13655549185469337  0.49552811866477947  0.5869183383571797  1.0000
  C   C67       1.0  0.6365544405130165  0.5044705616988239  0.9130810713744566  1.0000
  C   C68       1.0  0.3634453704774145  0.9955276766460485  0.41308108096399815  1.0000
  C   C69       1.0  0.13655515663710094  0.9955280818748091  0.9130824857468128  1.0000
  C   C70       1.0  0.8634446543537136  0.5044701564693528  0.41307864487750134  1.0000
  C   C71       1.0  0.36344500647592076  0.495528802572309  0.0869179552892945  1.0000
  C   C72       1.0  0.6365554749478405  0.004471143057728  0.5869189674132899  1.0000
  C   C73       1.0  0.7719732053352714  0.04043844087652809  0.19048212403843226  1.0000
  C   C74       1.0  0.22802929565174415  0.4595632820211576  0.6904817985355791  1.0000
  C   C75       1.0  0.7280268934289396  0.5404380738789173  0.8095185962289763  1.0000
  C   C76       1.0  0.27197369486967915  0.959560565469459  0.3095180888100019  1.0000
  C   C77       1.0  0.22802973774366106  0.9595614679631767  0.8095194569103016  1.0000
  C   C78       1.0  0.7719736474279203  0.5404371713844753  0.30951722812811516  1.0000
  C   C79       1.0  0.27197325277710854  0.45956346866319814  0.19048094129300353  1.0000
  C   C80       1.0  0.7280250529012805  0.040437709666804295  0.6904814487103152  1.0000
  C   C81       1.0  0.8251376767893104  0.8925849174454613  0.7887417184666037  1.0000
  C   C82       1.0  0.17486292717469346  0.6074158713721828  0.28874185233148353  1.0000
  C   C83       1.0  0.6748621230052478  0.3925859080308384  0.21125891031937272  1.0000
  C   C84       1.0  0.32513756544274486  0.1074152991014046  0.7112581264970717  1.0000
  C   C85       1.0  0.17486177019904398  0.10741444682673769  0.21125884076836604  1.0000
  C   C86       1.0  0.8251379182493677  0.39258621573745234  0.7112576851906809  1.0000
  C   C87       1.0  0.32513592554590076  0.6074156345121793  0.7887411380601039  1.0000
  C   C88       1.0  0.674861881545766  0.8925846097377814  0.28874141102407697  1.0000
  C   C89       1.0  0.6407686798097245  0.31060887264632697  0.9961493801545488  1.0000
  C   C90       1.0  0.35923079382025946  0.18939164028107314  0.496149537709421  1.0000
  C   C91       1.0  0.8592304903641546  0.8106084100780747  0.0038511510045893004  1.0000
  C   C92       1.0  0.14076962919965294  0.6893925283772475  0.5038510496028579  1.0000
  C   C93       1.0  0.35923146639663617  0.6893910361933919  0.0038511790805984005  1.0000
  C   C94       1.0  0.6407707508228099  0.8106077239905787  0.5038510215251293  1.0000
  C   C95       1.0  0.14076965584282417  0.18939095419322877  0.9961483865160972  1.0000
  C   C96       1.0  0.8592298177886234  0.3106079250296432  0.49614848791861743  1.0000
  C   C97       1.0  0.8251159306167322  0.9690967493777334  0.8893422929476955  1.0000
  C   C98       1.0  0.17488319905468333  0.5309030897625249  0.38934233568488  1.0000
  C   C99       1.0  0.6748838042202436  0.4690970559265396  0.11065842695659003  1.0000
  C   C100      1.0  0.32511665930236683  0.0309040117482127  0.6106580628819316  1.0000
  C   C101      1.0  0.1748821179347217  0.030903159462880605  0.11065877714494834  1.0000
  C   C102      1.0  0.8251162479334794  0.46909627451002217  0.6106587344071601  1.0000
  C   C103      1.0  0.32511634198627354  0.5309033974801664  0.8893411105647433  1.0000
  C   C104      1.0  0.6748834869041859  0.9690958970911436  0.3893419854961522  1.0000
  C   C105      1.0  0.8387466360446395  0.7919155251382507  0.7039935326797747  1.0000
  C   C106      1.0  0.16125543025871988  0.7080851461975114  0.2039948136041332  1.0000
  C   C107      1.0  0.6612539484359558  0.29191609567507015  0.2960064653605273  1.0000
  C   C108      1.0  0.33874497689114236  0.2080846843711726  0.7960057959696274  1.0000
  C   C109      1.0  0.1612570062529528  0.20808383913321649  0.29600753741141983  1.0000
  C   C110      1.0  0.8387440167285191  0.29191639634584726  0.7960062564892071  1.0000
  C   C111      1.0  0.3387441001162656  0.7080838131641229  0.7039925613038278  1.0000
  C   C112      1.0  0.6612544700973685  0.7919152244680134  0.20399374155152122  1.0000
  C   C113      1.0  0.8620551507250906  0.689516040036807  0.6211273413713985  1.0000
  C   C114      1.0  0.1379469780623666  0.8104856055603377  0.1211277318779906  1.0000
  C   C115      1.0  0.6379462199106526  0.18951510379695688  0.37887253471928534  1.0000
  C   C116      1.0  0.36205264293212736  0.3104852465556078  0.8788729996457221  1.0000
  C   C117      1.0  0.13794709313552286  0.31048495793777414  0.3788732178639833  1.0000
  C   C118      1.0  0.8620545665800134  0.18951539241442106  0.878872827357526  1.0000
  C   C119      1.0  0.3620539262958997  0.8104848050424065  0.6211275136587987  1.0000
  C   C120      1.0  0.6379454056190569  0.6895157514200533  0.12112755959050502  1.0000
  C   C121      1.0  0.702138313954009  0.7330227090559944  0.6568853509594206  1.0000
  C   C122      1.0  0.2978630886528677  0.7669773524081053  0.15688613637946253  1.0000
  C   C123      1.0  0.7978623205263488  0.23302218511839362  0.3431150878012518  1.0000
  C   C124      1.0  0.20213656927926849  0.26697811566464935  0.8431145433304936  1.0000
  C   C125      1.0  0.2978639299073009  0.2669766552154798  0.34311520827498754  1.0000
  C   C126      1.0  0.7021377567714991  0.23302310099913368  0.8431144228558696  1.0000
  C   C127      1.0  0.20213712646224016  0.7669766345861004  0.6568854714333912  1.0000
  C   C128      1.0  0.7978628777094342  0.7330217931741885  0.15688448333358454  1.0000
  C   C129      1.0  0.7995184336849092  0.7398831503492502  0.6605732127219568  1.0000
  C   C130      1.0  0.20048506379546177  0.7601174607946817  0.1605745398804572  1.0000
  C   C131      1.0  0.7004835934075969  0.2398832162233405  0.33942621249481425  1.0000
  C   C132      1.0  0.2995145999609221  0.26011762401419253  0.8394261316596286  1.0000
  C   C133      1.0  0.20048381017701192  0.26011566935380864  0.3394263247979837  1.0000
  C   C134      1.0  0.799515082410437  0.23988353718043948  0.8394260193553438  1.0000
  C   C135      1.0  0.29951515436290066  0.7601161480483255  0.6605733250261495  1.0000
  C   C136      1.0  0.7004834485908801  0.7398828293930605  0.16057340586212382  1.0000
  C   C137      1.0  0.7100853667628042  0.08625949614035018  0.22458902529170643  1.0000
  C   C138      1.0  0.28991571007045275  0.4137422740373252  0.724587087830763  1.0000
  C   C139      1.0  0.7899146930995755  0.5862590498588672  0.7754122604014884  1.0000
  C   C140      1.0  0.2100859209158301  0.9137411759126194  0.2754117232332122  1.0000
  C   C141      1.0  0.28991477944313  0.9137409572674212  0.7754120448008381  1.0000
  C   C142      1.0  0.7100858345724601  0.586259268503717  0.27541142797679197  1.0000
  C   C143      1.0  0.21008475388824618  0.41374249268342567  0.22458727712063356  1.0000
  C   C144      1.0  0.7899135260722544  0.0862592774946265  0.7245883251453338  1.0000
  C   C145      1.0  0.6869734094062493  0.25425632474504317  0.029366121583073806  1.0000
  C   C146      1.0  0.313026416195477  0.24574463023847665  0.5293660182126558  1.0000
  C   C147      1.0  0.8130258086109875  0.7542550480038128  0.9706338316076923  1.0000
  C   C148      1.0  0.18697325976322787  0.7457454483948638  0.4706341253539963  1.0000
  C   C149      1.0  0.31302673680031035  0.7457435840943205  0.97063392679501  1.0000
  C   C150      1.0  0.6869751284471732  0.7542552786012351  0.4706350518792918  1.0000
  C   C151      1.0  0.18697363837732436  0.24574486083572813  0.0293662167705335  1.0000
  C   C152      1.0  0.8130254880064242  0.25425500501292225  0.5293664338817621  1.0000
  C   C153      1.0  0.9116407546114614  0.9243560525994211  0.7723268606002733  1.0000
  C   C154      1.0  0.0883584632937158  0.5756441688957565  0.2723269913182449  1.0000
  C   C155      1.0  0.5883590182098785  0.4243565661048549  0.2276738060219827  1.0000
  C   C156      1.0  0.4116406578607226  0.0756441192151698  0.7276734605307383  1.0000
  C   C157      1.0  0.08836009081225168  0.07564548994357519  0.22767420949278264  1.0000
  C   C158      1.0  0.9116395852581646  0.4243551953767977  0.7276735679170018  1.0000
  C   C159      1.0  0.41164112799643954  0.5756438873022134  0.772326242356428  1.0000
  C   C160      1.0  0.588360187564298  0.9243552450563115  0.2723265878468837  1.0000
  C   C161      1.0  0.6846829577001897  0.8289706994109592  0.7402394057564265  1.0000
  C   C162      1.0  0.3153183820555725  0.6710272993319463  0.2402400699098379  1.0000
  C   C163      1.0  0.8153175953206712  0.3289722291673344  0.25976012555675965  1.0000
  C   C164      1.0  0.18468205655518227  0.1710285006332555  0.759761006389418  1.0000
  C   C165      1.0  0.31531998537958816  0.1710281202926325  0.2597611534775126  1.0000
  C   C166      1.0  0.6846817641512927  0.3289709758050208  0.7597610001814135  1.0000
  C   C167      1.0  0.18468115244959898  0.6710276796720365  0.7402394119645309  1.0000
  C   C168      1.0  0.8153187888698028  0.8289714082055754  0.2402385311314532  1.0000
  C   C169      1.0  0.6680133939873939  0.143831180522028  0.189960110521632  1.0000
  C   C170      1.0  0.3319856113014126  0.3561721753559155  0.6899596201987495  1.0000
  C   C171      1.0  0.831984519343983  0.6438274930826394  0.8100407328756918  1.0000
  C   C172      1.0  0.16801467012386684  0.8561716915582591  0.31004116573335244  1.0000
  C   C173      1.0  0.3319853537824499  0.8561692728854026  0.8100399378570559  1.0000
  C   C174      1.0  0.6680159333410031  0.643828278051501  0.310041449893518  1.0000
  C   C175      1.0  0.16801422842694078  0.3561713266209665  0.18995829378787485  1.0000
  C   C176      1.0  0.8319826792095385  0.14382821728217715  0.6899593935023631  1.0000
  C   C177      1.0  0.9500921256846553  0.976567045332537  0.8150789797699574  1.0000
  C   C178      1.0  0.049909157638509796  0.5234337799946119  0.3150785528720803  1.0000
  C   C179      1.0  0.5499083020287258  0.4765664303212774  0.1849217490300887  1.0000
  C   C180      1.0  0.45009140627879407  0.0234336511658739  0.684921325941616  1.0000
  C   C181      1.0  0.0499073213034293  0.023433408074708992  0.18492106860858837  1.0000
  C   C182      1.0  0.9500923870044814  0.4765666734117388  0.6849209846489758  1.0000
  C   C183      1.0  0.4500911449589324  0.5234345676540214  0.8150788102058543  1.0000
  C   C184      1.0  0.5499087399277583  0.9765662576734895  0.3150787224364678  1.0000
  C   C185      1.0  0.5139329423891041  0.30189844682323047  0.06877880775859782  1.0000
  C   C186      1.0  0.48606755271291036  0.1981014736601665  0.5687780673997056  1.0000
  C   C187      1.0  0.9860655359619768  0.8018975705310893  0.9312212021700291  1.0000
  C   C188      1.0  0.013932862912639598  0.698102326664596  0.43122201942810534  1.0000
  C   C189      1.0  0.486067903035682  0.6981014620159484  0.931221240619344  1.0000
  C   C190      1.0  0.5139339919310044  0.8018968014753725  0.43122147012005035  1.0000
  C   C191      1.0  0.013933211807867  0.1981028828763343  0.06877884620865873  1.0000
  C   C192      1.0  0.9860658848572468  0.301897582175485  0.5687785398073261  1.0000
  N   N1        1.0  0.5552868133217359  0.3340567553041253  0.014876756370178202  1.0000
  N   N2        1.0  0.44471372242364987  0.16594363502620976  0.5148775268689718  1.0000
  N   N3        1.0  0.944713036163854  0.8340559751180832  0.9851227809988075  1.0000
  N   N4        1.0  0.05528602128535449  0.6659445413655403  0.4851225216619213  1.0000
  N   N5        1.0  0.4447140321030219  0.665943698102403  0.9851227811510129  1.0000
  N   N6        1.0  0.5552878222194123  0.8340557292454419  0.4851230323655785  1.0000
  N   N7        1.0  0.055285711606259696  0.1659433891542932  0.014877778236297004  1.0000
  N   N8        1.0  0.9447134257029572  0.33405536747400777  0.5148775267163047  1.0000
  N   N9        1.0  0.9081480900083461  0.9986678319663795  0.8730071281705422  1.0000
  N   N10       1.0  0.09185105198054799  0.5013325290962244  0.3730061472751843  1.0000
  N   N11       1.0  0.5918509205050029  0.4986676595300565  0.12699362695010313  1.0000
  N   N12       1.0  0.40814953070074017  0.0013323416539491998  0.6269931943608003  1.0000
  N   N13       1.0  0.09185135697935458  0.001332621441577  0.12699394192215152  1.0000
  N   N14       1.0  0.9081490942259619  0.4986679243104887  0.6269933902461491  1.0000
  N   N15       1.0  0.40814852648327354  0.501332793876834  0.8730059105713722  1.0000
  N   N16       1.0  0.5918506155061961  0.9986675671847037  0.3730058323031359  1.0000
  O   O1        1.0  0.8828059328714558  0.9440368263039578  0.11575599993620501  1.0000
  O   O2        1.0  0.11719410231233239  0.5559642672788457  0.6157547273734991  1.0000
  O   O3        1.0  0.6171966201148108  0.4440355122314371  0.8842446901224293  1.0000
  O   O4        1.0  0.3828050355498647  0.05596539013529169  0.3842451901821136  1.0000
  O   O5        1.0  0.11719491255256999  0.05596308253664262  0.8842460918700255  1.0000
  O   O6        1.0  0.8828039462418146  0.4440329187204242  0.3842422558609472  1.0000
  O   O7        1.0  0.3828056237472665  0.555963852038623  0.11575382568369011  1.0000
  O   O8        1.0  0.6171951106568796  0.9440345187037166  0.6157543473388927  1.0000
  O   O9        1.0  0.901952348586981  0.0249393556969508  0.03150387877602161  1.0000
  O   O10       1.0  0.0980460769668738  0.4750599685475479  0.5315041347122431  1.0000
  O   O11       1.0  0.5980456656820223  0.5249381871622417  0.9684952904621014  1.0000
  O   O12       1.0  0.40195550196049357  0.9750601280002938  0.4684952602334249  1.0000
  O   O13       1.0  0.0980470984022261  0.9750589194391354  0.9684956587441605  1.0000
  O   O14       1.0  0.9019575653326015  0.5249372174513384  0.46849438109229885  1.0000
  O   O15       1.0  0.4019537813077533  0.47506008797277827  0.0315027144868552  1.0000
  O   O16       1.0  0.598045343465337  0.024938691702416797  0.5315032555726518  1.0000
  O   O17       1.0  0.8299093249413189  0.6575498875738575  0.5682663932501555  1.0000
  O   O18       1.0  0.17009424214224103  0.8424500510416024  0.0682673197901167  1.0000
  O   O19       1.0  0.6700927720513546  0.15755009712411547  0.4317329339151784  1.0000
  O   O20       1.0  0.3299067501511103  0.34245032650576224  0.9317329389434053  1.0000
  O   O21       1.0  0.1700936181379618  0.34245056583247896  0.4317336551276868  1.0000
  O   O22       1.0  0.8299073025005581  0.1575504023650964  0.9317327285880028  1.0000
  O   O23       1.0  0.3299059757184962  0.842450356283308  0.5682671144635095  1.0000
  O   O24       1.0  0.6700912984011109  0.6575495823334309  0.0682660877209571  1.0000
  O   O25       1.0  0.9449439725932153  0.6795466331384574  0.6434359362951342  1.0000
  O   O26       1.0  0.05505883859155599  0.8204544988154582  0.14343535020011444  1.0000
  O   O27       1.0  0.555058105724079  0.1795462534050856  0.35656494963721036  1.0000
  O   O28       1.0  0.44494147315766236  0.32045461059070124  0.8565648823387164  1.0000
  O   O29       1.0  0.05505966970390828  0.320453820268412  0.356565133796714  1.0000
  O   O30       1.0  0.9449413076143072  0.1795470437270126  0.8565646981789359  1.0000
  O   O31       1.0  0.4449399428275313  0.8204542000025156  0.6434350987416124  1.0000
  O   O32       1.0  0.5550565753930953  0.67954693195302  0.1434361877549009  1.0000
