data_image0
_chemical_formula_structural       K4H4C4N16O4
_chemical_formula_sum              "K4 H4 C4 N16 O4"
_cell_length_a       4.093823304474083
_cell_length_b       8.054354852738886
_cell_length_c       13.103126020108245
_cell_angle_alpha    90.00030705559334
_cell_angle_beta     90.00028214604762
_cell_angle_gamma    101.90438615374498

_space_group_name_H-M_alt    "P 1"
_space_group_IT_number       1

loop_
  _space_group_symop_operation_xyz
  'x, y, z'

loop_
  _atom_site_type_symbol
  _atom_site_label
  _atom_site_symmetry_multiplicity
  _atom_site_fract_x
  _atom_site_fract_y
  _atom_site_fract_z
  _atom_site_occupancy
  K   K1        1.0  0.8115236008079305  0.22389749964725783  0.002932359158201299  1.0000
  K   K2        1.0  0.6884832061434454  0.276102051961452  0.5029321207332343  1.0000
  K   K3        1.0  0.18848432078349484  0.7761045232441293  0.9970665560719638  1.0000
  K   K4        1.0  0.3115080214693009  0.7238948704936164  0.4970660312989209  1.0000
  H   H1        1.0  0.0701965995737766  0.6380197440265009  0.7600205117373091  1.0000
  H   H2        1.0  0.4298037151370053  0.8619783834400183  0.2600206267331443  1.0000
  H   H3        1.0  0.9298029750321388  0.36197972864877676  0.23997840348218344  1.0000
  H   H4        1.0  0.5701983038618365  0.13802109341375512  0.7399790516649032  1.0000
  C   C1        1.0  0.2754576909323418  0.42167712622720205  0.7035215808177567  1.0000
  C   C2        1.0  0.2245427218699731  0.07832226275326801  0.2035212030835893  1.0000
  C   C3        1.0  0.7245394393036121  0.578322342281929  0.2964788607531616  1.0000
  C   C4        1.0  0.7754592971441808  0.9216772141087335  0.7964800016677884  1.0000
  N   N1        1.0  0.4045031237348695  0.30906654031891634  0.7611039366742813  1.0000
  N   N2        1.0  0.09549549318145269  0.19093219653820634  0.26110449530709445  1.0000
  N   N3        1.0  0.5954964508863584  0.6909329323645964  0.23889650489853406  1.0000
  N   N4        1.0  0.9045094771328195  0.809068553344659  0.738896709448667  1.0000
  N   N5        1.0  0.3874656969666789  0.3544646551747023  0.8597552668787782  1.0000
  N   N6        1.0  0.11253540632747423  0.1455364142545435  0.3597557016217222  1.0000
  N   N7        1.0  0.6125343845617409  0.6455360863511715  0.1402444115198662  1.0000
  N   N8        1.0  0.887458772608362  0.8544617812337236  0.6402447399448048  1.0000
  N   N9        1.0  0.2551827542537097  0.48831888825812103  0.8679923518536155  1.0000
  N   N10       1.0  0.2448131186318818  0.011680992792491901  0.36799254810353677  1.0000
  N   N11       1.0  0.7448143759822441  0.5116805802510034  0.13200808971730987  1.0000
  N   N12       1.0  0.7551781090038361  0.9883159296749114  0.6320078934586062  1.0000
  N   N13       1.0  0.18369059849742797  0.5317539614444229  0.7725044674856034  1.0000
  N   N14       1.0  0.3163104736237443  0.9682455694801038  0.2725047587174031  1.0000
  N   N15       1.0  0.8163065317385333  0.4682455070647081  0.22749597408531483  1.0000
  N   N16       1.0  0.6836974479829934  0.03175645341951141  0.7274956828660847  1.0000
  O   O1        1.0  0.24499143967575074  0.42571888945202124  0.6070812184990968  1.0000
  O   O2        1.0  0.25500948241159455  0.07427946381687892  0.107080874477063  1.0000
  O   O3        1.0  0.754995822837806  0.5742742223056754  0.39291998623033914  1.0000
  O   O4        1.0  0.7450088138170801  0.9257301846724177  0.8929172775970639  1.0000
