data_image0
_chemical_formula_structural       Ba2H32C28S2O20
_chemical_formula_sum              "Ba2 H32 C28 S2 O20"
_cell_length_a       6.007957249165145
_cell_length_b       14.219153993476846
_cell_length_c       13.765492702179982
_cell_angle_alpha    113.94942029522959
_cell_angle_beta     86.59412898359814
_cell_angle_gamma    91.14078353083531

_space_group_name_H-M_alt    "P 1"
_space_group_IT_number       1

loop_
  _space_group_symop_operation_xyz
  'x, y, z'

loop_
  _atom_site_type_symbol
  _atom_site_label
  _atom_site_symmetry_multiplicity
  _atom_site_fract_x
  _atom_site_fract_y
  _atom_site_fract_z
  _atom_site_occupancy
  Ba  Ba1       1.0  0.259886013960383  0.628363561582873  0.013400551173589282  1.0000
  Ba  Ba2       1.0  0.7401082456897614  0.3716348217874597  0.9866009567837748  1.0000
  H   H1        1.0  0.7703589182365177  0.35579871640054966  0.273550184476882  1.0000
  H   H2        1.0  0.22963497955543505  0.6442033754455992  0.7264419249334679  1.0000
  H   H3        1.0  0.8867025237466066  0.4370666770829176  0.46046994378879447  1.0000
  H   H4        1.0  0.11328272243707005  0.5629378432316443  0.5395268364246277  1.0000
  H   H5        1.0  0.2760760570323201  0.33854964007214505  0.5690868704019323  1.0000
  H   H6        1.0  0.7239489954672894  0.6614414363630488  0.4309020455378344  1.0000
  H   H7        1.0  0.1575970887653426  0.25586682001528527  0.3815551717019118  1.0000
  H   H8        1.0  0.8424073212851015  0.7441314594191937  0.6184447857571839  1.0000
  H   H9        1.0  0.19777957931437845  0.0584091124593726  0.21851702624843475  1.0000
  H   H10       1.0  0.8022193433003723  0.9415939060354219  0.7814907078622537  1.0000
  H   H11       1.0  0.3477627366884306  0.8865324728823651  0.18511045726950195  1.0000
  H   H12       1.0  0.6522247484948879  0.11347524912125101  0.8148985243956302  1.0000
  H   H13       1.0  0.9653261845705929  0.9586605927049592  0.05637557617128412  1.0000
  H   H14       1.0  0.03466426338155774  0.04133247371528629  0.943626696938935  1.0000
  H   H15       1.0  0.8131693746294387  0.13231955184716782  0.08706281710451688  1.0000
  H   H16       1.0  0.1868351615374665  0.8676802561314149  0.9129370345545452  1.0000
  H   H17       1.0  0.7608895088564582  0.5569864454934789  0.8973284763881109  1.0000
  H   H18       1.0  0.23910842131775215  0.44301263875659913  0.10267038817575272  1.0000
  H   H19       1.0  0.592921965926955  0.4767457858953749  0.8266156482677117  1.0000
  H   H20       1.0  0.40708102438995303  0.5232501588605416  0.17338045700632415  1.0000
  H   H21       1.0  0.7717946226881695  0.6441268803933725  0.11658273902342124  1.0000
  H   H22       1.0  0.22819468129237214  0.355867677781582  0.8834157833417605  1.0000
  H   H23       1.0  0.8636038517582139  0.5921423736477038  0.18824995834233949  1.0000
  H   H24       1.0  0.13638697454334903  0.40785527840485963  0.8117519973677644  1.0000
  H   H25       1.0  0.9427303178881276  0.5503271186265835  0.7693365406160877  1.0000
  H   H26       1.0  0.05727596271783143  0.44967266526535365  0.23066256470642085  1.0000
  H   H27       1.0  0.9480960362015196  0.6682384193308838  0.8461664346941974  1.0000
  H   H28       1.0  0.05190503461628281  0.33176220616605423  0.15383522267807584  1.0000
  H   H29       1.0  0.3335682312204398  0.6849525531389205  0.2706575814866312  1.0000
  H   H30       1.0  0.666435792009061  0.3150434588444072  0.7293443643731691  1.0000
  H   H31       1.0  0.4241504002474629  0.7600332657529593  0.22282834916733657  1.0000
  H   H32       1.0  0.5758456358422492  0.23996354469460363  0.777171054493003  1.0000
  C   C1        1.0  0.6655266699820716  0.3506872329499303  0.338380594525951  1.0000
  C   C2        1.0  0.33447792784841135  0.6493301317154876  0.6616154933080479  1.0000
  C   C3        1.0  0.7291016041002507  0.39622902177347213  0.4429773948940792  1.0000
  C   C4        1.0  0.2708982352159169  0.6037754238053595  0.5570229146140021  1.0000
  C   C5        1.0  0.5915872739896457  0.3895415057124368  0.5256026813181336  1.0000
  C   C6        1.0  0.40841627443703743  0.6104674976174352  0.47439728187724467  1.0000
  C   C7        1.0  0.3843616897325149  0.340226112141309  0.5035397135252708  1.0000
  C   C8        1.0  0.6156418906946827  0.6597813423524387  0.4964588917096292  1.0000
  C   C9        1.0  0.3181953495338449  0.2942717043137719  0.39941558150900386  1.0000
  C   C10       1.0  0.6818192513889444  0.705722604167548  0.6005797964907629  1.0000
  C   C11       1.0  0.4622941019957808  0.29892563614928497  0.3177592238471902  1.0000
  C   C12       1.0  0.5377118689621199  0.7010795940340843  0.6822464640376323  1.0000
  C   C13       1.0  0.4979979996136807  0.1041020160944299  0.15447206807498753  1.0000
  C   C14       1.0  0.501987822074696  0.8958979959612351  0.845531602004577  1.0000
  C   C15       1.0  0.3657979000841749  0.03621371262350691  0.18294256941296538  1.0000
  C   C16       1.0  0.63419294127484  0.963787026955295  0.8170613703378249  1.0000
  C   C17       1.0  0.4518573495786742  0.9397465143660926  0.16412006727662734  1.0000
  C   C18       1.0  0.5481396554225881  0.060253460981130005  0.8358878928904403  1.0000
  C   C19       1.0  0.6688110086270528  0.911924650428816  0.11855304332699032  1.0000
  C   C20       1.0  0.3311851215786065  0.08807523739897502  0.881447612493794  1.0000
  C   C21       1.0  0.7975703556142553  0.981678967233215  0.09123846503013054  1.0000
  C   C22       1.0  0.2024298926180848  0.018323308559914195  0.9087718691051875  1.0000
  C   C23       1.0  0.7136023795928496  0.07797217321221692  0.10836516171043087  1.0000
  C   C24       1.0  0.28639093278911804  0.9220315384921065  0.891633428822196  1.0000
  C   C25       1.0  0.6670375249226694  0.43385541243662834  0.6378740998430102  1.0000
  C   C26       1.0  0.3329826151940908  0.5661488252704885  0.36212310866852687  1.0000
  C   C27       1.0  0.7685432096549226  0.8082584314503767  0.09720947046866261  1.0000
  C   C28       1.0  0.23144502094097422  0.19173992651445812  0.9027862402718084  1.0000
  S   S1        1.0  0.397018439626855  0.22945524509917453  0.18359607381406554  1.0000
  S   S2        1.0  0.6030159858599475  0.7705466402750503  0.8164059205125793  1.0000
  O   O1        1.0  0.6312314563128613  0.5151067598735396  0.9043377852455167  1.0000
  O   O2        1.0  0.36876978956500034  0.48488920896902243  0.09565906636507283  1.0000
  O   O3        1.0  0.8514471061782275  0.4808935045351817  0.6552660739186179  1.0000
  O   O4        1.0  0.1485665559479159  0.5191038140989477  0.3447247156558149  1.0000
  O   O5        1.0  0.8591686544935017  0.5828602574214728  0.11426008175426718  1.0000
  O   O6        1.0  0.14082049137005737  0.4171343210455021  0.8857399043714336  1.0000
  O   O7        1.0  0.5384184749806951  0.4175639662772215  0.7073191301145201  1.0000
  O   O8        1.0  0.46160484813732694  0.5824302217708565  0.2926725162024936  1.0000
  O   O9        1.0  0.6390261883986528  0.7424918506164178  0.11462666585403976  1.0000
  O   O10       1.0  0.3609694674560445  0.2575080980874134  0.8853783812482802  1.0000
  O   O11       1.0  0.9896771448679261  0.6001330086358794  0.8425437846626023  1.0000
  O   O12       1.0  0.010329159267016106  0.3998675446011077  0.15745563370001744  1.0000
  O   O13       1.0  0.9691888262656719  0.7912663824072016  0.06361228139426353  1.0000
  O   O14       1.0  0.030796758247220214  0.2087336600864873  0.9363935843260761  1.0000
  O   O15       1.0  0.28285197019469893  0.7332686584172238  0.2412470187344268  1.0000
  O   O16       1.0  0.7171486112146898  0.2667289404295161  0.7587570458786954  1.0000
  O   O17       1.0  0.5256340213069636  0.27081139982976055  0.11703020543169629  1.0000
  O   O18       1.0  0.4743545796186624  0.7291809314780837  0.8829732328552211  1.0000
  O   O19       1.0  0.1547725302321012  0.2236421681039573  0.17813886537023643  1.0000
  O   O20       1.0  0.8452360548082825  0.7763629263866891  0.8218580254952028  1.0000
