data_image0
_chemical_formula_structural       Cu2H32C44N4O12
_chemical_formula_sum              "Cu2 H32 C44 N4 O12"
_cell_length_a       8.202317770778821
_cell_length_b       8.202317937183441
_cell_length_c       15.141583870874765
_cell_angle_alpha    76.35642848991989
_cell_angle_beta     76.35632717247793
_cell_angle_gamma    74.62470883852204

_space_group_name_H-M_alt    "P 1"
_space_group_IT_number       1

loop_
  _space_group_symop_operation_xyz
  'x, y, z'

loop_
  _atom_site_type_symbol
  _atom_site_label
  _atom_site_symmetry_multiplicity
  _atom_site_fract_x
  _atom_site_fract_y
  _atom_site_fract_z
  _atom_site_occupancy
  Cu  Cu1       1.0  0.06779065190639241  0.9322071196146879  0.2499999137520775  1.0000
  Cu  Cu2       1.0  0.9322119105315848  0.06779145078392901  0.7499995680129887  1.0000
  H   H1        1.0  0.8371973673644815  0.7905321387157545  0.16190945737411516  1.0000
  H   H2        1.0  0.20946408565460212  0.16280491699635047  0.3380895807726462  1.0000
  H   H3        1.0  0.16280806833393768  0.2094703194529117  0.8380891952984444  1.0000
  H   H4        1.0  0.7905334270053076  0.8371935757490548  0.6619131716996238  1.0000
  H   H5        1.0  0.2569104552270858  0.669043494905374  0.5272192576372776  1.0000
  H   H6        1.0  0.33095566682499095  0.7430892192263768  0.9727807814447619  1.0000
  H   H7        1.0  0.7430861935947701  0.33095887759811404  0.47278180403008485  1.0000
  H   H8        1.0  0.6690397496933828  0.25691316400056513  0.027219109053724794  1.0000
  H   H9        1.0  0.3595512170526333  0.5235618728923442  0.4511736411655394  1.0000
  H   H10       1.0  0.4764374602228328  0.6404503276378083  0.048826525867788496  1.0000
  H   H11       1.0  0.640450441359242  0.4764405370820057  0.5488268015888667  1.0000
  H   H12       1.0  0.523559523431089  0.35955079849239263  0.9511720056412688  1.0000
  H   H13       1.0  0.20977870683849179  0.9518638882539249  0.5070944495514456  1.0000
  H   H14       1.0  0.04813733552923344  0.7902221986438106  0.9929053398683441  1.0000
  H   H15       1.0  0.790225131583341  0.048139796874721696  0.49290755095622546  1.0000
  H   H16       1.0  0.9518656119758616  0.2097751756094581  0.007088296995618709  1.0000
  H   H17       1.0  0.7656676251183824  0.7955474424488004  0.44285608276946703  1.0000
  H   H18       1.0  0.2044554744648579  0.23433265303499703  0.05714043500847771  1.0000
  H   H19       1.0  0.2343352455029617  0.20445493671090983  0.5571468570509313  1.0000
  H   H20       1.0  0.7955471783962124  0.7656660077739018  0.94285308021955  1.0000
  H   H21       1.0  0.5324085316960421  0.9055314788409133  0.13169308347546152  1.0000
  H   H22       1.0  0.09446575497886302  0.46759402734599576  0.3683033513982893  1.0000
  H   H23       1.0  0.4675982166819495  0.09447104896899108  0.8683014367775005  1.0000
  H   H24       1.0  0.9055307597395197  0.5324031292937196  0.6317023292323969  1.0000
  H   H25       1.0  0.3719961956570899  0.19122918919430987  0.16678908694029104  1.0000
  H   H26       1.0  0.8087665623215372  0.6280051153466746  0.3332094054120276  1.0000
  H   H27       1.0  0.6280044311799029  0.8087667692664342  0.8332122734502366  1.0000
  H   H28       1.0  0.1912344128868638  0.37199469205751257  0.6667927612395916  1.0000
  H   H29       1.0  0.3741805170609638  0.4658168796550015  0.22241544794698612  1.0000
  H   H30       1.0  0.5341788451287781  0.6258160597889743  0.27758507646638014  1.0000
  H   H31       1.0  0.6258178493899821  0.5341777232867458  0.777589658278757  1.0000
  H   H32       1.0  0.46581899231618706  0.3741811765375688  0.722415808796143  1.0000
  C   C1        1.0  0.20761998388384484  0.7579742085909731  0.3894350852924263  1.0000
  C   C2        1.0  0.2420232068913037  0.7923754889887321  0.11056558149703484  1.0000
  C   C3        1.0  0.7923766313046483  0.24202304850460626  0.6105639658526559  1.0000
  C   C4        1.0  0.7579780730081325  0.207623041905407  0.8894360438419544  1.0000
  C   C5        1.0  0.7603642289512534  0.9141351539752876  0.17799132878851515  1.0000
  C   C6        1.0  0.08586378832293208  0.239634577437748  0.3220065752394562  1.0000
  C   C7        1.0  0.23963841735513813  0.08586858205916309  0.8220068487560328  1.0000
  C   C8        1.0  0.9141318590650722  0.7603613736889018  0.6779934152183532  1.0000
  C   C9        1.0  0.4870762126852738  0.8547655438339491  0.47081560422039825  1.0000
  C   C10       1.0  0.14523454101960453  0.5129233683070852  0.0291828251429038  1.0000
  C   C11       1.0  0.5129231853405614  0.14523551062139722  0.5291885843692088  1.0000
  C   C12       1.0  0.8547665748469483  0.4870765797353229  0.9708100602288781  1.0000
  C   C13       1.0  0.32766513798592467  0.6600470926273514  0.4566680634945117  1.0000
  C   C14       1.0  0.33995071459944626  0.67233737165256  0.043333571963351886  1.0000
  C   C15       1.0  0.6723377527294403  0.33995530662352985  0.5433335504287699  1.0000
  C   C16       1.0  0.6600431347833718  0.3276662686711306  0.9566676775245714  1.0000
  C   C17       1.0  0.33789301409482425  0.9701942568551233  0.5039310382911495  1.0000
  C   C18       1.0  0.02980482725200768  0.6621065016529359  0.9960678116706636  1.0000
  C   C19       1.0  0.6621069933130881  0.029804244580134295  0.496072067673197  1.0000
  C   C20       1.0  0.9701978256090629  0.33789215915596316  0.0039257035573712126  1.0000
  C   C21       1.0  0.6485242787646897  0.885225646564102  0.46732925725083174  1.0000
  C   C22       1.0  0.11477446517745449  0.3514753368448709  0.0326697638537539  1.0000
  C   C23       1.0  0.35147724554371956  0.1147715475464679  0.5326758044668836  1.0000
  C   C24       1.0  0.8852297146311228  0.6485220266849367  0.9673250441790845  1.0000
  C   C25       1.0  0.7506738744046969  0.15980375371935202  0.23195160646679386  1.0000
  C   C26       1.0  0.8401966791672137  0.24932437100044774  0.26804583564872797  1.0000
  C   C27       1.0  0.24932308915520454  0.8401973523196703  0.76804825093938  1.0000
  C   C28       1.0  0.15980658656826566  0.7506768220594963  0.7319505963220013  1.0000
  C   C29       1.0  0.581257843291347  0.23600621883392137  0.21642062866840925  1.0000
  C   C30       1.0  0.7639921601370856  0.418740701223463  0.2835778038804834  1.0000
  C   C31       1.0  0.41874034252502673  0.7639948664360574  0.7835810628552056  1.0000
  C   C32       1.0  0.23600666520238886  0.5812578611631809  0.716420816172189  1.0000
  C   C33       1.0  0.5916144489121465  0.97866785740257  0.16141080818395892  1.0000
  C   C34       1.0  0.02133526271686043  0.40838420034435785  0.3385867117891693  1.0000
  C   C35       1.0  0.40839004912680815  0.021333324933919994  0.8385867949556529  1.0000
  C   C36       1.0  0.9786644500470201  0.5916155876465224  0.6614162725392492  1.0000
  C   C37       1.0  0.5016570741539537  0.1383689107755615  0.18109969901988884  1.0000
  C   C38       1.0  0.8616289940212452  0.49834141663965437  0.3188981293521493  1.0000
  C   C39       1.0  0.49834238415395044  0.861632203953306  0.8189005118783615  1.0000
  C   C40       1.0  0.138369516580191  0.5016584122114552  0.6811016949617186  1.0000
  C   C41       1.0  0.5046152874997888  0.40647814954110106  0.23472619728662644  1.0000
  C   C42       1.0  0.5935178058122192  0.49538163449111045  0.26527416786116487  1.0000
  C   C43       1.0  0.49538222516012087  0.593520343204311  0.7652765551856436  1.0000
  C   C44       1.0  0.40648036995715126  0.504619440733279  0.7347281866110082  1.0000
  N   N1        1.0  0.8367294315199061  0.0020228281057371013  0.2134261524952805  1.0000
  N   N2        1.0  0.9979745535664435  0.16326966471164178  0.28657078503911043  1.0000
  N   N3        1.0  0.16327128923251882  0.9979783060364369  0.7865732407261776  1.0000
  N   N4        1.0  0.0020246301914568525  0.8367327566640341  0.7134279783260953  1.0000
  O   O1        1.0  0.2690242988784277  0.8525058674034653  0.31452115289091864  1.0000
  O   O2        1.0  0.1474921771241355  0.7309710434449883  0.18548012873132794  1.0000
  O   O3        1.0  0.7309748547384415  0.14749652383544995  0.6854795993199618  1.0000
  O   O4        1.0  0.8525047025673514  0.2690248969582001  0.814521032895364  1.0000
  O   O5        1.0  0.4880389888437264  0.70818023343908  0.4409483548887893  1.0000
  O   O6        1.0  0.29182111845364017  0.5119603453340958  0.05905054091210362  1.0000
  O   O7        1.0  0.5119623246890724  0.2918234128629678  0.5590552809724799  1.0000
  O   O8        1.0  0.7081774524298582  0.4880395437905348  0.9409453057104007  1.0000
  O   O9        1.0  0.05636002235890197  0.7366121616648372  0.40955920920532674  1.0000
  O   O10       1.0  0.26338006066307423  0.9436419701539907  0.09044267658341451  1.0000
  O   O11       1.0  0.9436436985611534  0.26338124242006705  0.5904420850005752  1.0000
  O   O12       1.0  0.7366202815769042  0.056355284907972696  0.9095578992226268  1.0000
