data_image0
_chemical_formula_structural       Zn2H20C30N6O8
_chemical_formula_sum              "Zn2 H20 C30 N6 O8"
_cell_length_a       11.263901009210045
_cell_length_b       15.857947089381378
_cell_length_c       17.288786072506692
_cell_angle_alpha    86.61928914463103
_cell_angle_beta     86.43964542410978
_cell_angle_gamma    70.85826414400168

_space_group_name_H-M_alt    "P 1"
_space_group_IT_number       1

loop_
  _space_group_symop_operation_xyz
  'x, y, z'

loop_
  _atom_site_type_symbol
  _atom_site_label
  _atom_site_symmetry_multiplicity
  _atom_site_fract_x
  _atom_site_fract_y
  _atom_site_fract_z
  _atom_site_occupancy
  Zn  Zn1       1.0  0.4804992356291465  0.590680765192566  0.5027669850866661  1.0000
  Zn  Zn2       1.0  0.5202666576356165  0.4083209681292386  0.5021562224092693  1.0000
  H   H1        1.0  0.1303394599701306  0.42281048993776676  0.5082637435874703  1.0000
  H   H2        1.0  0.8686660326094469  0.5746015842981006  0.5153880055207339  1.0000
  H   H3        1.0  0.6589036222741739  0.25494113368867477  0.4052826771458484  1.0000
  H   H4        1.0  0.34090629474844303  0.745561594566787  0.5974569304878585  1.0000
  H   H5        1.0  0.05843853738472404  0.627436747287369  0.5151144510888912  1.0000
  H   H6        1.0  0.9426250300204018  0.37055106767306256  0.5022971132346755  1.0000
  H   H7        1.0  0.4988599648697729  0.6144556331555859  0.8932748209109395  1.0000
  H   H8        1.0  0.5792177365130157  0.3761064080851142  0.10959584716101742  1.0000
  H   H9        1.0  0.495954498962533  0.6605831849986287  0.1065282743556182  1.0000
  H   H10       1.0  0.5676890301655818  0.33144761472170353  0.8955512996248207  1.0000
  H   H11       1.0  0.48615968444421054  0.6557701766057418  0.2530564263355686  1.0000
  H   H12       1.0  0.5478812317327096  0.34034494981401753  0.7502386614307285  1.0000
  H   H13       1.0  0.6108140492779198  0.7044699583544726  0.4178332317520983  1.0000
  H   H14       1.0  0.3868219720093933  0.2942509693349533  0.5835232077545528  1.0000
  H   H15       1.0  0.6177921471634278  0.8623100352947685  0.42182296031316474  1.0000
  H   H16       1.0  0.3802881240026181  0.13653774373655378  0.577794467904461  1.0000
  H   H17       1.0  0.6630151915151573  0.09537854685342498  0.3909159700263417  1.0000
  H   H18       1.0  0.33661466186080735  0.9055228104379507  0.6097173748325062  1.0000
  H   H19       1.0  0.4783652666040722  0.6228633165925002  0.7485631466681044  1.0000
  H   H20       1.0  0.5691916729226422  0.3717180783034734  0.25561701336037873  1.0000
  C   C1        1.0  0.5156010317544002  0.5103900003902949  0.3496469287558029  1.0000
  C   C2        1.0  0.49942763855715805  0.48817950582271397  0.6551087075959573  1.0000
  C   C3        1.0  0.5067876463881547  0.5951395778623618  0.22098351464015314  1.0000
  C   C4        1.0  0.5370146322517896  0.39970357087289426  0.7823252629126218  1.0000
  C   C5        1.0  0.44673891200454824  0.24703742489916178  0.5425664826353939  1.0000
  C   C6        1.0  0.5516826825224471  0.7520825766032357  0.4587839729515438  1.0000
  C   C7        1.0  0.443147263187619  0.16077518468956234  0.5391960189227732  1.0000
  C   C8        1.0  0.5552533458473974  0.8384816932590835  0.4610629074020523  1.0000
  C   C9        1.0  0.523018109260441  0.10484794753767797  0.48417409563679575  1.0000
  C   C10       1.0  0.47601473315045695  0.8949457317963262  0.5159778679653615  1.0000
  C   C11       1.0  0.6016925858722998  0.1379236929111798  0.4343678519011435  1.0000
  C   C12       1.0  0.3975941603695147  0.862409145790053  0.5664967419226343  1.0000
  C   C13       1.0  0.5998044834501216  0.22520779422823975  0.44213442096888417  1.0000
  C   C14       1.0  0.3996009550062143  0.7749468947800862  0.559892061873015  1.0000
  C   C15       1.0  0.7458041754568826  0.4578474547662594  0.5032496537345852  1.0000
  C   C16       1.0  0.2551563647456307  0.5397833068242687  0.508060045317791  1.0000
  C   C17       1.0  0.8831446244212556  0.44024702802183646  0.5058188382035951  1.0000
  C   C18       1.0  0.11729335014037913  0.5574876046171794  0.5125423063169309  1.0000
  C   C19       1.0  0.9332805294782531  0.5061372868849642  0.5115811370843417  1.0000
  C   C20       1.0  0.06618492312185252  0.49148218990957554  0.5114082178510203  1.0000
  C   C21       1.0  0.5261469268766347  0.5135562229302337  0.2626058908199198  1.0000
  C   C22       1.0  0.5111601672328306  0.4822016517726124  0.7414133688347493  1.0000
  C   C23       1.0  0.5536278585670472  0.4344857473531859  0.2221184113298875  1.0000
  C   C24       1.0  0.4978555238302605  0.5595558954504155  0.7816728924942853  1.0000
  C   C25       1.0  0.5591525958031127  0.4366246535628235  0.1417319464618316  1.0000
  C   C26       1.0  0.5093944691307826  0.555121087554397  0.8612685174642112  1.0000
  C   C27       1.0  0.5364556515539364  0.5190660286007966  0.10015898903284183  1.0000
  C   C28       1.0  0.5344721466640792  0.47217223939711755  0.9022914756213397  1.0000
  C   C29       1.0  0.5121644830304533  0.5978701158230987  0.14031105778754951  1.0000
  C   C30       1.0  0.5483886792286653  0.3946925103606773  0.8622465475553158  1.0000
  N   N1        1.0  0.5326453923689626  0.5304399660671136  0.01860428653883871  1.0000
  N   N2        1.0  0.5442681957079502  0.459939679361625  0.983522536789444  1.0000
  N   N3        1.0  0.5241159664158915  0.2782504001569492  0.4953017953589695  1.0000
  N   N4        1.0  0.4750409371632927  0.7212845112611317  0.5070395618621505  1.0000
  N   N5        1.0  0.5299281707127718  0.015193258971443396  0.47389698276281694  1.0000
  N   N6        1.0  0.4693923587827199  0.9845783564092654  0.5258009169781559  1.0000
  O   O1        1.0  0.4965155156317707  0.5833984083795014  0.3832997840127278  1.0000
  O   O2        1.0  0.5164684321900166  0.41547296243714266  0.6214465472521553  1.0000
  O   O3        1.0  0.5255400920373604  0.43487064108411727  0.38335847903670134  1.0000
  O   O4        1.0  0.47437723897255063  0.5655779491349618  0.6219608934000718  1.0000
  O   O5        1.0  0.6739817856583344  0.5389798067399808  0.5044759437474724  1.0000
  O   O6        1.0  0.3266005323599687  0.45853029187157535  0.5076728029079051  1.0000
  O   O7        1.0  0.7101196107822147  0.38954827839221895  0.4998374765737665  1.0000
  O   O8        1.0  0.2917010664641567  0.6082835117186035  0.504319062951659  1.0000
