data_image0
_chemical_formula_structural       Zr6H20C51O34F10
_chemical_formula_sum              "Zr6 H20 C51 O34 F10"
_cell_length_a       14.790988920803779
_cell_length_b       14.811103782091717
_cell_length_c       14.80062976936486
_cell_angle_alpha    60.05678054212703
_cell_angle_beta     59.94720430591333
_cell_angle_gamma    60.007820042982935

_space_group_name_H-M_alt    "P 1"
_space_group_IT_number       1

loop_
  _space_group_symop_operation_xyz
  'x, y, z'

loop_
  _atom_site_type_symbol
  _atom_site_label
  _atom_site_symmetry_multiplicity
  _atom_site_fract_x
  _atom_site_fract_y
  _atom_site_fract_z
  _atom_site_occupancy
  Zr  Zr1       1.0  0.8780074072276635  0.884991732450338  0.619349034501127  1.0000
  Zr  Zr2       1.0  0.12030830703134404  0.1204640279759488  0.38095982221856417  1.0000
  Zr  Zr3       1.0  0.11759993444115913  0.8828463791795046  0.620368637532728  1.0000
  Zr  Zr4       1.0  0.8807670868223242  0.12273285516654672  0.37937236008866665  1.0000
  Zr  Zr5       1.0  0.11840210844587055  0.8826533071138557  0.38109418781226617  1.0000
  Zr  Zr6       1.0  0.879304450489002  0.12313661185028477  0.6190864657228161  1.0000
  H   H1        1.0  0.0916930281815667  0.7210973694851076  0.5942490930921024  1.0000
  H   H2        1.0  0.09653716304081428  0.09385654396625401  0.21781192909678276  1.0000
  H   H3        1.0  0.09322926175751435  0.09628755480592584  0.5949815669389054  1.0000
  H   H4        1.0  0.7161877444540253  0.09931655282113633  0.592695157011441  1.0000
  H   H5        1.0  0.13855845974998002  0.5940351297235367  0.3585456802264915  1.0000
  H   H6        1.0  0.8383432150996344  0.4322380445459758  0.6218062232450877  1.0000
  H   H7        1.0  0.6246325151771402  0.10164150926120628  0.9490759107512686  1.0000
  H   H8        1.0  0.3910499474321797  0.8843780281508415  0.07001767954128012  1.0000
  H   H9        1.0  0.8363589493521603  0.12073240025031845  0.11233949305372459  1.0000
  H   H10       1.0  0.13868632861271377  0.8603461451978448  0.9113414321281893  1.0000
  H   H11       1.0  0.5862567853454123  0.41160289481331386  0.3602989081396403  1.0000
  H   H12       1.0  0.4351442227334559  0.6167887355533354  0.6146997555899104  1.0000
  H   H13       1.0  0.16052263882833975  0.568533620373465  0.8954446696644565  1.0000
  H   H14       1.0  0.7325903887911521  0.6517120485479638  0.9809022760346123  1.0000
  H   H15       1.0  0.8004826279345849  0.5679716885305339  0.8962186870090675  1.0000
  H   H16       1.0  0.8015206866866935  0.39696212254323626  0.06607841991964171  1.0000
  H   H17       1.0  0.7350992853453349  0.4803171587375416  0.15113992727081876  1.0000
  H   H18       1.0  0.59722919718665  0.854941389485035  0.6331079634518773  1.0000
  H   H19       1.0  0.4242491540808047  0.12759301904866763  0.34321702834324697  1.0000
  H   H20       1.0  0.16124034348835187  0.4370684464737948  0.15925745734546135  1.0000
  C   C1        1.0  0.9889198799646196  0.7057752298678039  0.49813025615000606  1.0000
  C   C2        1.0  0.30970471715227177  0.9962607830509853  0.2047226226907812  1.0000
  C   C3        1.0  0.996720209910727  0.311506635858393  0.49137503845221897  1.0000
  C   C4        1.0  0.698806946299449  0.9981794205688672  0.8069406102486025  1.0000
  C   C5        1.0  0.9969039362040846  0.7027105801571594  0.8056646924427682  1.0000
  C   C6        1.0  0.7016449569072738  0.0016412873161542282  0.4896313520331503  1.0000
  C   C7        1.0  0.9996996346362936  0.3049449170917883  0.196263538259153  1.0000
  C   C8        1.0  0.3079394655088304  0.9929479422332651  0.49855941187612973  1.0000
  C   C9        1.0  0.30723907243211096  0.7041843057033716  0.4927667241299928  1.0000
  C   C10       1.0  0.9887389086458852  0.998896989087605  0.8101922010877871  1.0000
  C   C11       1.0  0.7042194134157145  0.3140976104507304  0.4934116408623126  1.0000
  C   C12       1.0  0.9964307521484983  0.9936024760666274  0.20262334847078736  1.0000
  C   C13       1.0  0.9931950498198179  0.4164417541544765  0.4868887657820124  1.0000
  C   C14       1.0  0.9847815186111933  0.6085969029483497  0.49470249471634997  1.0000
  C   C15       1.0  0.07549421823794941  0.4659708681988803  0.4120010362220938  1.0000
  C   C16       1.0  0.9001134129610477  0.5617547625752408  0.5669026097784666  1.0000
  C   C17       1.0  0.07233002031848905  0.5589083111814261  0.41605842532502635  1.0000
  C   C18       1.0  0.9042708873926699  0.46768645157781225  0.5638107754934794  1.0000
  C   C19       1.0  0.41387875373878563  0.9934582918380028  0.10709447308862247  1.0000
  C   C20       1.0  0.6013706351441712  0.9932518504648513  0.9112351087314535  1.0000
  C   C21       1.0  0.4826348907808652  0.05264907964122753  0.07183025211983823  1.0000
  C   C22       1.0  0.5343021625848291  0.9315128473495309  0.9485497210953397  1.0000
  C   C23       1.0  0.5738123323471456  0.053541999011081066  0.9755906092629586  1.0000
  C   C24       1.0  0.44257577470684556  0.931570653444247  0.04391889442442245  1.0000
  C   C25       1.0  0.9838382268704041  0.994594199666118  0.9156695313288598  1.0000
  C   C26       1.0  0.992676076073828  0.9882097003274168  0.10633166874437477  1.0000
  C   C27       1.0  0.8984299355647  0.0658849326159014  0.9757477517946072  1.0000
  C   C28       1.0  0.07581147746708443  0.9139583685837422  0.04885689414525271  1.0000
  C   C29       1.0  0.9027862405763332  0.0634290026653661  0.06835592459930954  1.0000
  C   C30       1.0  0.07197831967270185  0.9172470952893194  0.955623400638572  1.0000
  C   C31       1.0  0.41296854146659734  0.6082430494376682  0.48634900356628924  1.0000
  C   C32       1.0  0.6076661428940897  0.4192085084697723  0.48959726672435994  1.0000
  C   C33       1.0  0.4593558879881741  0.549641679213025  0.41361379968198264  1.0000
  C   C34       1.0  0.5639015067567784  0.48047768349186254  0.5591487908774653  1.0000
  C   C35       1.0  0.5538932659510606  0.4571350029386708  0.41545928281454536  1.0000
  C   C36       1.0  0.4684942145680892  0.5721933982421561  0.5583617369357796  1.0000
  C   C37       1.0  0.997674352450751  0.6010286529501414  0.9044895314840389  1.0000
  C   C38       1.0  0.0014485065003527022  0.4035756052081183  0.09488593649968638  1.0000
  C   C39       1.0  0.9107871324278495  0.5589323983246146  0.9623256145129561  1.0000
  C   C40       1.0  0.09311567026676225  0.4424663800190273  0.03325446536133112  1.0000
  C   C41       1.0  0.9125388004685323  0.46359482038619865  0.055429640217070766  1.0000
  C   C42       1.0  0.08945849561895607  0.5398356871290628  0.9418529672234185  1.0000
  C   C43       1.0  0.7989425481561769  0.5751351332119088  0.9674162339221866  1.0000
  C   C44       1.0  0.8002275522493251  0.4677655280321957  0.07358162525920163  1.0000
  C   C45       1.0  0.4137931215102812  0.9878105985374931  0.4936924461636068  1.0000
  C   C46       1.0  0.6057661080832802  0.9966767583844174  0.48459069764730595  1.0000
  C   C47       1.0  0.4664488915978353  0.9100512259200786  0.572992570303754  1.0000
  C   C48       1.0  0.5562127289616117  0.07118908597295358  0.4023531401365689  1.0000
  C   C49       1.0  0.5595890245292595  0.9145891790190177  0.5692258997365087  1.0000
  C   C50       1.0  0.46219538407005  0.06756612995179284  0.4068429373462337  1.0000
  C   C51       1.0  0.203874582428071  0.37366031472622313  0.05130829585743876  1.0000
  O   O1        1.0  0.9151168374500716  0.7435538627064132  0.5766538665466996  1.0000
  O   O2        1.0  0.2681217307215604  0.0738030295704348  0.2433962787144139  1.0000
  O   O3        1.0  0.07467759534470275  0.2694264696818606  0.4169731243460717  1.0000
  O   O4        1.0  0.7374851362797018  0.92401674509523  0.7645012979338618  1.0000
  O   O5        1.0  0.07520378826667677  0.7407816408903046  0.7652758675585358  1.0000
  O   O6        1.0  0.738514678031855  0.08100763989926224  0.4168345767149192  1.0000
  O   O7        1.0  0.9219192933217999  0.26672877602984374  0.23546778559518344  1.0000
  O   O8        1.0  0.2649119793313093  0.9195680575405731  0.5772412226743101  1.0000
  O   O9        1.0  0.26390851189346903  0.7416332844275575  0.41976812786757745  1.0000
  O   O10       1.0  0.9162137423231728  0.07862134563165317  0.7668078208930211  1.0000
  O   O11       1.0  0.7404531988774965  0.2709457530768731  0.5730520845728722  1.0000
  O   O12       1.0  0.07480349800496103  0.919966046592691  0.2405371327016894  1.0000
  O   O13       1.0  0.0678232282670804  0.9234142018205702  0.770147877309853  1.0000
  O   O14       1.0  0.7407915028951564  0.2739679451210364  0.4179214105120863  1.0000
  O   O15       1.0  0.9213650396154734  0.07330287919889132  0.23814077008419346  1.0000
  O   O16       1.0  0.26763560921432367  0.7401058390680434  0.572063376203154  1.0000
  O   O17       1.0  0.9188504390206448  0.7433443574878353  0.7676432028820701  1.0000
  O   O18       1.0  0.2672624885313013  0.07282694598191601  0.42412260060712015  1.0000
  O   O19       1.0  0.07527687206948032  0.26624601231805656  0.23700409509444853  1.0000
  O   O20       1.0  0.7376228826349587  0.926709064011135  0.5689240218942614  1.0000
  O   O21       1.0  0.735843140184798  0.07652683191632563  0.7676975736671993  1.0000
  O   O22       1.0  0.06843502850724527  0.7415444084966868  0.4227563214385768  1.0000
  O   O23       1.0  0.2681172688067691  0.9223302123852832  0.2398131197627364  1.0000
  O   O24       1.0  0.9217784561210963  0.2712727063864833  0.5712811019838996  1.0000
  O   O25       1.0  0.7965136830786081  0.07236689649797504  0.5661113343126872  1.0000
  O   O26       1.0  0.06624773517700787  0.06994400138214729  0.568079127019125  1.0000
  O   O27       1.0  0.06801767392179409  0.0683693728570915  0.2980436779622053  1.0000
  O   O28       1.0  0.06512695676599384  0.8012137478024074  0.5676556982203849  1.0000
  O   O29       1.0  0.1479903742011999  0.9520304487129536  0.4514539398597322  1.0000
  O   O30       1.0  0.9489677527962073  0.9539280434401364  0.4501467006243018  1.0000
  O   O31       1.0  0.950559533817206  0.15129256765986554  0.44984580027551146  1.0000
  O   O32       1.0  0.9485887212851482  0.9542954672388999  0.6485682363713324  1.0000
  O   O33       1.0  0.228268778158963  0.3940241043422148  0.11487221066791159  1.0000
  O   O34       1.0  0.27331496124201493  0.3080651507452501  0.0025119744283089063  1.0000
  F   F1        1.0  0.16286314293794402  0.42368745514689016  0.33251244009896647  1.0000
  F   F2        1.0  0.8108439051679283  0.6068187029298784  0.6430169845709414  1.0000
  F   F3        1.0  0.4632869601130309  0.10917219340390728  0.13207293124501268  1.0000
  F   F4        1.0  0.555218068956272  0.871440608822205  0.8905731280239308  1.0000
  F   F5        1.0  0.8082800879270879  0.14035343429661415  0.9450199999028257  1.0000
  F   F6        1.0  0.16456747429476348  0.8372027073206283  0.08113915338962135  1.0000
  F   F7        1.0  0.4120602283656468  0.5797909984122781  0.34010114547843534  1.0000
  F   F8        1.0  0.6134757282166848  0.4520516868469002  0.6299936338685157  1.0000
  F   F9        1.0  0.42694915131751543  0.8282260445436549  0.6576636456616568  1.0000
  F   F10       1.0  0.5981260472995518  0.15055790207324551  0.31563398719981  1.0000
