data_image0
_chemical_formula_structural       Cd6H60C48N24
_chemical_formula_sum              "Cd6 H60 C48 N24"
_cell_length_a       15.758863218038057
_cell_length_b       15.75534482769456
_cell_length_c       15.747104161490032
_cell_angle_alpha    109.45381952622513
_cell_angle_beta     109.46214478448577
_cell_angle_gamma    109.49215408475962

_space_group_name_H-M_alt    "P 1"
_space_group_IT_number       1

loop_
  _space_group_symop_operation_xyz
  'x, y, z'

loop_
  _atom_site_type_symbol
  _atom_site_label
  _atom_site_symmetry_multiplicity
  _atom_site_fract_x
  _atom_site_fract_y
  _atom_site_fract_z
  _atom_site_occupancy
  Cd  Cd1       1.0  0.5001204849445459  0.7501337843528902  0.2501730634533743  1.0000
  Cd  Cd2       1.0  0.49964802866986  0.24999648920133682  0.7500774197051285  1.0000
  Cd  Cd3       1.0  0.2499552102803479  0.4999445058962808  0.7502303113720714  1.0000
  Cd  Cd4       1.0  0.7500789362640463  0.5003620333136425  0.2504028250784813  1.0000
  Cd  Cd5       1.0  0.7499074022260148  0.24974488229847955  0.5000265499360381  1.0000
  Cd  Cd6       1.0  0.24992513132682612  0.7497406039350453  0.5000258300677629  1.0000
  H   H1        1.0  0.7605769879074915  0.8919525167699052  0.4063161718933727  1.0000
  H   H2        1.0  0.5147661633885434  0.10774435521518208  0.8686118647183464  1.0000
  H   H3        1.0  0.2395119067292556  0.6455774062913947  0.1312250334699882  1.0000
  H   H4        1.0  0.48524423689032425  0.35367403836610145  0.5932596949364141  1.0000
  H   H5        1.0  0.4065026769560591  0.7606790820953437  0.8919875209389971  1.0000
  H   H6        1.0  0.868541303889792  0.5142823376675096  0.10813251881226886  1.0000
  H   H7        1.0  0.1313666442559622  0.23954808790654883  0.6457532003492545  1.0000
  H   H8        1.0  0.5931702831474297  0.4853923652345317  0.35409111748181477  1.0000
  H   H9        1.0  0.8921169597454295  0.407059946708934  0.7608055286833205  1.0000
  H   H10       1.0  0.10814801660453814  0.868621513573615  0.5144614901940583  1.0000
  H   H11       1.0  0.6460123302422999  0.13146575508586994  0.2394548979037054  1.0000
  H   H12       1.0  0.3540719377495592  0.593408847506467  0.4855200747383961  1.0000
  H   H13       1.0  0.4064891971311086  0.8918017005854184  0.7604880788196127  1.0000
  H   H14       1.0  0.8685638846492199  0.10795169381287904  0.5144908505801311  1.0000
  H   H15       1.0  0.13144672510843253  0.6462542362511244  0.23916787032585765  1.0000
  H   H16       1.0  0.5936160159205528  0.35415956639569407  0.4855805861331176  1.0000
  H   H17       1.0  0.8921653830451179  0.7605692903147203  0.40685311157968584  1.0000
  H   H18       1.0  0.10797609065792124  0.5148774822089168  0.8686732755997751  1.0000
  H   H19       1.0  0.6453089060458481  0.23940110077839452  0.1312726372864573  1.0000
  H   H20       1.0  0.35421259819169404  0.4855891604028459  0.5937669692566275  1.0000
  H   H21       1.0  0.7605489922569862  0.40617874064044207  0.8919852828949573  1.0000
  H   H22       1.0  0.5145349868087052  0.8686540291425331  0.10808437425383478  1.0000
  H   H23       1.0  0.23924586335471806  0.1314881316946528  0.6460731086081283  1.0000
  H   H24       1.0  0.4855487151740406  0.5937480542012068  0.3543490325685426  1.0000
  H   H25       1.0  0.5250357999638169  0.06908560749806014  0.3828690491709494  1.0000
  H   H26       1.0  0.4558358772791776  0.9305448229045297  0.3130922887509086  1.0000
  H   H27       1.0  0.5020338274146212  0.0004439567686134442  0.2552860451977424  1.0000
  H   H28       1.0  0.26563247479625574  0.018020395296204743  0.5103985413267652  1.0000
  H   H29       1.0  0.29783870619641545  0.9241599951402506  0.4542855419053635  1.0000
  H   H30       1.0  0.3886962508109022  0.059330217690252596  0.518601410812103  1.0000
  H   H31       1.0  0.49363145740753844  0.7538566409635836  0.5030596547124659  1.0000
  H   H32       1.0  0.47801856125849457  0.8642580504357799  0.5426527997384626  1.0000
  H   H33       1.0  0.5450407519448249  0.8504527190152091  0.4719803003129073  1.0000
  H   H34       1.0  0.6497290669905098  0.11660293187273409  0.6087104685388525  1.0000
  H   H35       1.0  0.642455269704989  0.17648095064999594  0.721747274750193  1.0000
  H   H36       1.0  0.7566558209495114  0.23685689432293341  0.7164013901300024  1.0000
  H   H37       1.0  0.24678506222386448  0.49089926400841954  0.9791059503557875  1.0000
  H   H38       1.0  0.37196097547904144  0.53083557166066  0.07672038240312411  1.0000
  H   H39       1.0  0.3320915394969505  0.4601311876358381  0.942725447333558  1.0000
  H   H40       1.0  0.4639362205148248  0.3433566831813411  0.9522423032858995  1.0000
  H   H41       1.0  0.5330554746089291  0.3634831971651948  0.07887275780019104  1.0000
  H   H42       1.0  0.48417280338036783  0.2440124515845456  0.9669326134806512  1.0000
  H   H43       1.0  0.543156590093318  0.4770097741022  0.8620997597180918  1.0000
  H   H44       1.0  0.4729863659922274  0.5449492839213974  0.8528194685565679  1.0000
  H   H45       1.0  0.5014121457743599  0.49510665397237125  0.7534747119414645  1.0000
  H   H46       1.0  0.6200785810885777  0.6920396617345191  0.1471520640791297  1.0000
  H   H47       1.0  0.6809361278528103  0.6147897184845875  0.13785756143726496  1.0000
  H   H48       1.0  0.7478683209609969  0.7415455719198648  0.24643440082203225  1.0000
  H   H49       1.0  0.9354236017748438  0.32164353099816656  0.457388078533505  1.0000
  H   H50       1.0  0.9906219161856953  0.25081545953418805  0.4969744444718103  1.0000
  H   H51       1.0  0.07307982154583952  0.37845882992229485  0.5279988234321565  1.0000
  H   H52       1.0  0.9208042724343457  0.4549078155028783  0.2783613139616178  1.0000
  H   H53       1.0  0.04105013963553729  0.5079165618274999  0.39134147339233744  1.0000
  H   H54       1.0  0.040315500192534263  0.5205128339792396  0.2836054770302282  1.0000
  H   H55       1.0  0.8435690746564505  0.469862261285286  0.5457999632370374  1.0000
  H   H56       1.0  0.7552602788934096  0.5075997138309561  0.48963864751274844  1.0000
  H   H57       1.0  0.8701056403272321  0.5406949330628523  0.48141475408214524  1.0000
  H   H58       1.0  0.14271975148974303  0.617501297849259  0.6870320694584534  1.0000
  H   H59       1.0  0.1421955747025765  0.6862228740619828  0.617153255847235  1.0000
  H   H60       1.0  0.24667897799044183  0.7451283537853045  0.7447452220087669  1.0000
  C   C1        1.0  0.7326213445346712  0.9464848857628284  0.4082952789116163  1.0000
  C   C2        1.0  0.4618635972768673  0.05333552690545686  0.7861089123986673  1.0000
  C   C3        1.0  0.2674194490080027  0.6755917076648147  0.21375356118982577  1.0000
  C   C4        1.0  0.5379761246918805  0.32395546628644223  0.5915040818909035  1.0000
  C   C5        1.0  0.4084061494839237  0.732708827598167  0.9465466487667201  1.0000
  C   C6        1.0  0.7860386428138426  0.46177592091542163  0.05357202990411731  1.0000
  C   C7        1.0  0.21384611588477057  0.26748523348583586  0.6756835416345696  1.0000
  C   C8        1.0  0.5914973719264014  0.5381859142854283  0.3243767094503767  1.0000
  C   C9        1.0  0.9465355609046072  0.4085348796101373  0.7327424950625954  1.0000
  C   C10       1.0  0.053604124893312045  0.786105582957511  0.4619677663778318  1.0000
  C   C11       1.0  0.6757639894370087  0.2139381324641008  0.2674049407553056  1.0000
  C   C12       1.0  0.3243063990383348  0.5916346293353882  0.5382642973557239  1.0000
  C   C13       1.0  0.4083234900887834  0.9463595729349453  0.7325600429377275  1.0000
  C   C14       1.0  0.7860876209441587  0.053449957117976635  0.4617822452150478  1.0000
  C   C15       1.0  0.21390799725930518  0.6757837472729592  0.26723552229498176  1.0000
  C   C16       1.0  0.5915774610995328  0.3241385627101891  0.5381111834703844  1.0000
  C   C17       1.0  0.9466579073146946  0.7326160337052273  0.40862149854712726  1.0000
  C   C18       1.0  0.053477926601900046  0.4619809290259482  0.7861971038017116  1.0000
  C   C19       1.0  0.6754936902453821  0.2673957176038826  0.21384747048010405  1.0000
  C   C20       1.0  0.3242851618798639  0.5381458333715515  0.591792360189963  1.0000
  C   C21       1.0  0.7325774598882334  0.4082606745147076  0.946568185860876  1.0000
  C   C22       1.0  0.461895810627766  0.786172502739902  0.05354501267560605  1.0000
  C   C23       1.0  0.2672749768054459  0.21396842972483654  0.6757412336883206  1.0000
  C   C24       1.0  0.538107264804694  0.5917360307608207  0.32440692217006273  1.0000
  C   C25       1.0  0.5208015320229294  2.0545366796178603e-06  0.329043423184622  1.0000
  C   C26       1.0  0.620470772348945  0.9999956917527372  0.3739221194237172  1.0000
  C   C27       1.0  0.3291385084823446  0.0003133773212198156  0.5208710373576295  1.0000
  C   C28       1.0  0.3735979177121467  2.0217010536928345e-05  0.6204983524885321  1.0000
  C   C29       1.0  0.4790974407109304  0.8082654712004499  0.4793457554340392  1.0000
  C   C30       1.0  0.37947172872942053  0.7533224798730701  0.37954410587306586  1.0000
  C   C31       1.0  0.6711994454047314  0.19165732361771856  0.6708179932557172  1.0000
  C   C32       1.0  0.627124686138288  0.24764621285178404  0.6272013216402145  1.0000
  C   C33       1.0  0.3289047923299579  0.5206217203749122  0.9997574271162863  1.0000
  C   C34       1.0  0.37361786535807795  0.6205255416022838  5.635621131710116e-05  1.0000
  C   C35       1.0  0.5204572104144632  0.32878938638009464  0.9996345589976984  1.0000
  C   C36       1.0  0.6204648381832669  0.37314304136135956  7.064967204671703e-05  1.0000
  C   C37       1.0  0.4792909160647909  0.4792162041903935  0.8082453208303306  1.0000
  C   C38       1.0  0.37952135186967717  0.37959049915054544  0.75341688459487  1.0000
  C   C39       1.0  0.6709972444063012  0.6709164388092435  0.1917356038903008  1.0000
  C   C40       1.0  0.6261297378823798  0.6261808524110323  0.24667660895921986  1.0000
  C   C41       1.0  0.999799084403179  0.32892558471638  0.520673915247599  1.0000
  C   C42       1.0  0.9999248799643893  0.3737497568035123  0.6204871697468731  1.0000
  C   C43       1.0  0.00046911275985208326  0.5209306563010757  0.3292479102834349  1.0000
  C   C44       1.0  7.648705916821114e-05  0.6205601091791807  0.3729005147588396  1.0000
  C   C45       1.0  0.8083010021249706  0.4794179646918409  0.4791780523306102  1.0000
  C   C46       1.0  0.7531705236884819  0.3795612290160761  0.3795603487018867  1.0000
  C   C47       1.0  0.19174190006630454  0.6709608032109102  0.6710271650263734  1.0000
  C   C48       1.0  0.24654235169627023  0.626047616914484  0.6261706763024152  1.0000
  N   N1        1.0  0.6281440870196706  0.9132820347409595  0.35306786935723977  1.0000
  N   N2        1.0  0.439571432736912  0.08667239046367575  0.7149367487080697  1.0000
  N   N3        1.0  0.3718587726885474  0.7247033196249077  0.2851273050138515  1.0000
  N   N4        1.0  0.5607900921473007  0.2755854318638457  0.6475889531539282  1.0000
  N   N5        1.0  0.3528862811947422  0.6282478984250234  0.9133272496346976  1.0000
  N   N6        1.0  0.7147844893707784  0.43926749611112836  0.08681347838021472  1.0000
  N   N7        1.0  0.28517141321195555  0.3719542198304426  0.7248857810313754  1.0000
  N   N8        1.0  0.6468850962411352  0.5602996054667672  0.27523840470676925  1.0000
  N   N9        1.0  0.9132607607506529  0.35302857211819844  0.628230639616703  1.0000
  N   N10       1.0  0.08678442006586821  0.7149423614898327  0.43907050576359546  1.0000
  N   N11       1.0  0.7249111563714834  0.28520909583285453  0.3719473484409122  1.0000
  N   N12       1.0  0.2751263041637275  0.646912800312123  0.5603159938589926  1.0000
  N   N13       1.0  0.35280637068929394  0.913235760186872  0.6280796246546032  1.0000
  N   N14       1.0  0.7148482971260323  0.08666714413126901  0.43974216601957034  1.0000
  N   N15       1.0  0.28508013340606214  0.7249335994794566  0.3717920493876932  1.0000
  N   N16       1.0  0.6476688138129704  0.27588039024468014  0.5609957588468576  1.0000
  N   N17       1.0  0.9134126820445091  0.6281925223551356  0.35255933647329846  1.0000
  N   N18       1.0  0.08664864578074127  0.4396989504787002  0.7148832590830524  1.0000
  N   N19       1.0  0.7244748089289603  0.37185495493726967  0.28510568820770726  1.0000
  N   N20       1.0  0.2750306024668633  0.5601716143863555  0.6470540220575031  1.0000
  N   N21       1.0  0.628159716197935  0.3525059868958923  0.9133291881291967  1.0000
  N   N22       1.0  0.4395852171161466  0.714882283160215  0.08677496698095405  1.0000
  N   N23       1.0  0.37175183632041353  0.28517324233544633  0.7249053698240928  1.0000
  N   N24       1.0  0.5603020365455935  0.6470655102090391  0.2752193904353604  1.0000
