data_image0
_chemical_formula_structural       Ag4H42C34N12O10
_chemical_formula_sum              "Ag4 H42 C34 N12 O10"
_cell_length_a       10.246623465095029
_cell_length_b       9.949744037170563
_cell_length_c       11.67741519857959
_cell_angle_alpha    83.47383837229229
_cell_angle_beta     86.89662044602966
_cell_angle_gamma    59.27848914282769

_space_group_name_H-M_alt    "P 1"
_space_group_IT_number       1

loop_
  _space_group_symop_operation_xyz
  'x, y, z'

loop_
  _atom_site_type_symbol
  _atom_site_label
  _atom_site_symmetry_multiplicity
  _atom_site_fract_x
  _atom_site_fract_y
  _atom_site_fract_z
  _atom_site_occupancy
  Ag  Ag1       1.0  0.5406851974475303  0.39338058432233675  0.24982184382574257  1.0000
  Ag  Ag2       1.0  0.4593232074839976  0.6065986050357068  0.750191751001232  1.0000
  Ag  Ag3       1.0  0.339629179666332  0.8743848219128979  0.8852804663303788  1.0000
  Ag  Ag4       1.0  0.6603701488783571  0.1256250144024023  0.11471510110138183  1.0000
  H   H1        1.0  0.46158751555908845  0.2789472942505499  0.6898391947618806  1.0000
  H   H2        1.0  0.5384025194838316  0.7210894308408984  0.31018386578917057  1.0000
  H   H3        1.0  0.8724630943771888  0.9710382747075171  0.7713098836857669  1.0000
  H   H4        1.0  0.12752590272205566  0.028960592627861097  0.22869097550550074  1.0000
  H   H5        1.0  0.6987724815153343  0.9701332963675924  0.7797296563731708  1.0000
  H   H6        1.0  0.30122006787946287  0.02986857773073841  0.22027558440310469  1.0000
  H   H7        1.0  0.7057919665059771  0.12569139556741504  0.8314657536758221  1.0000
  H   H8        1.0  0.2942106687760244  0.874296127744131  0.1685552849261428  1.0000
  H   H9        1.0  0.3401434329245562  0.5417893380329134  0.42994762899299144  1.0000
  H   H10       1.0  0.6598344197746543  0.45825008301044795  0.5700688273427519  1.0000
  H   H11       1.0  0.2716868967769344  0.4636699321431977  0.5479739962570279  1.0000
  H   H12       1.0  0.7283001873234695  0.5363856042774557  0.45205524158850363  1.0000
  H   H13       1.0  0.3137495071766311  0.38309643983183156  0.41233499183874056  1.0000
  H   H14       1.0  0.6862185048641364  0.6169377713327223  0.5877011657822069  1.0000
  H   H15       1.0  0.9267318039198998  0.3356854688664086  0.6227520014175028  1.0000
  H   H16       1.0  0.07326548395460726  0.6643371228039285  0.37724908532106144  1.0000
  H   H17       1.0  0.17469001757476124  0.2806891570643728  0.35413475327580113  1.0000
  H   H18       1.0  0.8253089937896759  0.7193355906296263  0.6458572043322734  1.0000
  H   H19       1.0  0.001649894174647698  0.2835083666226978  0.38825708074272575  1.0000
  H   H20       1.0  0.9983625400741972  0.7164922127047362  0.6117333236882417  1.0000
  H   H21       1.0  0.021950149986778852  0.44169646615530683  0.4190670230307065  1.0000
  H   H22       1.0  0.9780431691838913  0.5583156779861298  0.5809276438810117  1.0000
  H   H23       1.0  0.0638242844687369  0.19237564430450502  0.9111099801300288  1.0000
  H   H24       1.0  0.9361464876423183  0.8076201329727299  0.0888848793158559  1.0000
  H   H25       1.0  0.8988024060745586  0.26622575165586687  0.824063122667795  1.0000
  H   H26       1.0  0.10118062875282174  0.7337560389830884  0.17591888958193647  1.0000
  H   H27       1.0  0.019455866786479706  0.059326818113028396  0.8602743285764165  1.0000
  H   H28       1.0  0.9805333969570711  0.9406500919291574  0.13970732424991178  1.0000
  H   H29       1.0  0.079340656790599  0.31504537181841397  0.17679476083008444  1.0000
  H   H30       1.0  0.9207096128757475  0.6848792894191007  0.823184020229782  1.0000
  H   H31       1.0  0.8462749893204062  0.18827248814120887  0.29447074636848225  1.0000
  H   H32       1.0  0.15370515643841304  0.8117288665878492  0.7055379802999939  1.0000
  H   H33       1.0  0.9820734439754303  0.05418391403556203  0.40062092760165785  1.0000
  H   H34       1.0  0.01790216191993472  0.9458125247498614  0.5993864211257289  1.0000
  H   H35       1.0  0.5445216237933437  0.8690234848500253  0.7283434761370133  1.0000
  H   H36       1.0  0.45546693597172083  0.13098631611840264  0.2716510727770612  1.0000
  H   H37       1.0  0.5660205594739625  0.9256774895874217  0.581918826029849  1.0000
  H   H38       1.0  0.43397475501485877  0.07434707181335651  0.4180794378324892  1.0000
  H   H39       1.0  0.3526809344812564  0.6430276758196741  0.05487105343040351  1.0000
  H   H40       1.0  0.6473364139245203  0.3569622743295753  0.9451123888706194  1.0000
  H   H41       1.0  0.5058456590141631  0.6429660145902929  0.06280208833695157  1.0000
  H   H42       1.0  0.49417574747258913  0.35700908179213536  0.9371778168671983  1.0000
  C   C1        1.0  0.7630049602843342  0.1771114070428013  0.4583130004029386  1.0000
  C   C2        1.0  0.23697186214879934  0.822901189568185  0.5416990246518909  1.0000
  C   C3        1.0  0.701031192763118  0.13563873582424432  0.6475012185682092  1.0000
  C   C4        1.0  0.29895557564415065  0.8643777653811712  0.35251374504741056  1.0000
  C   C5        1.0  0.5479007031199999  0.24963570804079893  0.6232470540381955  1.0000
  C   C6        1.0  0.4520855279814881  0.7503963479500015  0.3767685030851952  1.0000
  C   C7        1.0  0.5091696808588182  0.31904486313345615  0.5108176577998338  1.0000
  C   C8        1.0  0.49081040879333687  0.6809898867274954  0.4891995208024016  1.0000
  C   C9        1.0  0.7489322790699404  0.04545614637171983  0.7635257088636538  1.0000
  C   C10       1.0  0.2510570011955269  0.9545466890457419  0.23648559734436972  1.0000
  C   C11       1.0  0.34894098890250547  0.43393473959466183  0.47430038399480184  1.0000
  C   C12       1.0  0.6510358214490636  0.5661111234668824  0.5257192523274911  1.0000
  C   C13       1.0  0.34916218440783814  0.04174424621131579  0.6460732203675263  1.0000
  C   C14       1.0  0.6508333823102322  0.9582839068910901  0.35392522194943865  1.0000
  C   C15       1.0  0.14386765692553644  0.2287883569851132  0.5338879199792573  1.0000
  C   C16       1.0  0.8561272857634779  0.7712305643323207  0.4661045215869351  1.0000
  C   C17       1.0  0.0480721574862102  0.25263415074594064  0.6294542987784413  1.0000
  C   C18       1.0  0.9519185838686894  0.7473774008750099  0.37054409213277506  1.0000
  C   C19       1.0  0.1106518020050586  0.15996109078601964  0.7325894159334184  1.0000
  C   C20       1.0  0.8893375799821258  0.8400429115709116  0.26740615632557063  1.0000
  C   C21       1.0  0.08310829049061395  0.31345941598237204  0.41736040800520174  1.0000
  C   C22       1.0  0.9168910826625521  0.6865522210155248  0.5826313753722445  1.0000
  C   C23       1.0  0.016846998379662595  0.17111616601098234  0.8372491279986679  1.0000
  C   C24       1.0  0.9831376147742077  0.8288686717574335  0.16273738634787105  1.0000
  C   C25       1.0  0.9029879680118426  0.44795816528956334  0.049883852741373906  1.0000
  C   C26       1.0  0.0970370299683906  0.5520332769239007  0.9501255293007634  1.0000
  C   C27       1.0  0.8588032176546463  0.5514190519624549  0.9483475934660536  1.0000
  C   C28       1.0  0.14123958255483163  0.44853196228648073  0.051639704409630824  1.0000
  C   C29       1.0  0.04419196550657749  0.3968986265472765  0.09910326739640145  1.0000
  C   C30       1.0  0.9558628528675612  0.6030458426854396  0.9008887749073795  1.0000
  C   C31       1.0  0.7124241194480947  0.607869105242571  0.8858276115528343  1.0000
  C   C32       1.0  0.2876125412223444  0.3920614883074194  0.11415008882253377  1.0000
  C   C33       1.0  0.801175791464445  0.3958861299085257  0.11170693198459965  1.0000
  C   C34       1.0  0.19883403169815503  0.6041057630622291  0.8882887014358192  1.0000
  N   N1        1.0  0.8721655225486346  0.1423945141051917  0.3791842100204193  1.0000
  N   N2        1.0  0.1278073079212732  0.8576182919201472  0.6208288967242979  1.0000
  N   N3        1.0  0.807277511039949  0.1023485515997677  0.5662008385534137  1.0000
  N   N4        1.0  0.1927073060742615  0.8976554036649775  0.43380968744529014  1.0000
  N   N5        1.0  0.6159329082229734  0.2832096568851838  0.42755646061871755  1.0000
  N   N6        1.0  0.38404479105184214  0.7168176925763419  0.572458800253479  1.0000
  N   N7        1.0  0.49831435690982334  0.9426757952884657  0.6540568476179304  1.0000
  N   N8        1.0  0.5016769983028695  0.05735513999892562  0.3459439363323683  1.0000
  N   N9        1.0  0.29298689040335546  0.12670352797346143  0.5429141230738211  1.0000
  N   N10       1.0  0.7070088410771265  0.8733304035571906  0.4570832356423297  1.0000
  N   N11       1.0  0.26067571744140133  0.05220473975160191  0.7406789395089961  1.0000
  N   N12       1.0  0.7393170745947588  0.9478128072937579  0.2593199286221904  1.0000
  O   O1        1.0  0.8570686285537549  0.2513094546583261  0.1437696762199395  1.0000
  O   O2        1.0  0.14297690156897858  0.748679267625967  0.8562233687109287  1.0000
  O   O3        1.0  0.3968212193257374  0.7116976969345858  0.04015703928802588  1.0000
  O   O4        1.0  0.6031919925367504  0.2882952830987478  0.9598381725421705  1.0000
  O   O5        1.0  0.6650133519761994  0.5039002957108993  0.13245977895414282  1.0000
  O   O6        1.0  0.33497735918527366  0.49608390623264154  0.8675230111918284  1.0000
  O   O7        1.0  0.673825243271999  0.5074133975934102  0.8688584921967435  1.0000
  O   O8        1.0  0.3262377460438231  0.492493012906813  0.1311262995706599  1.0000
  O   O9        1.0  0.6388908390424108  0.7523442983997627  0.850594136645576  1.0000
  O   O10       1.0  0.36115221955041227  0.24757179586834613  0.14935912817432506  1.0000
