data_image0
_chemical_formula_structural       Na4H8C16N20O4
_chemical_formula_sum              "Na4 H8 C16 N20 O4"
_cell_length_a       3.68602874542978
_cell_length_b       9.67247197184539
_cell_length_c       20.330120997004425
_cell_angle_alpha    89.99995054733775
_cell_angle_beta     90.00006253506676
_cell_angle_gamma    96.72424425547368

_space_group_name_H-M_alt    "P 1"
_space_group_IT_number       1

loop_
  _space_group_symop_operation_xyz
  'x, y, z'

loop_
  _atom_site_type_symbol
  _atom_site_label
  _atom_site_symmetry_multiplicity
  _atom_site_fract_x
  _atom_site_fract_y
  _atom_site_fract_z
  _atom_site_occupancy
  Na  Na1       1.0  0.1694314649725257  0.6964958057224279  0.8757438005117488  1.0000
  Na  Na2       1.0  0.8305664950855133  0.803504504079605  0.3757433764336894  1.0000
  Na  Na3       1.0  0.8305672090506351  0.3035047285681927  0.12425653534435094  1.0000
  Na  Na4       1.0  0.16943217893629034  0.1964960302113994  0.6242564675414213  1.0000
  H   H1        1.0  0.7081152748630545  0.6916781877543625  0.7613151210900069  1.0000
  H   H2        1.0  0.291881715759253  0.8083212598520789  0.2613145886182692  1.0000
  H   H3        1.0  0.29188306483381876  0.3083213055285725  0.23868472288528148  1.0000
  H   H4        1.0  0.7081166239376272  0.19167823343085638  0.7386852553570262  1.0000
  H   H5        1.0  0.6737877706138349  0.5521064225802306  0.8018859821793637  1.0000
  H   H6        1.0  0.32620911086279153  0.9478919206199804  0.3018853990540292  1.0000
  H   H7        1.0  0.32621328028689334  0.4478930651507582  0.1981143536771838  1.0000
  H   H8        1.0  0.6737888945091585  0.0521065316548857  0.6981144449214438  1.0000
  C   C1        1.0  0.11778801949479602  0.3129440388933346  0.913946303133919  1.0000
  C   C2        1.0  0.8822099308214251  0.18705523174521232  0.4139459371770257  1.0000
  C   C3        1.0  0.882210320202077  0.6870554543896006  0.08605354084136957  1.0000
  C   C4        1.0  0.1177914544028695  0.812945296994222  0.586053906798355  1.0000
  C   C5        1.0  0.027066913958968514  0.2031968880420081  0.8690666035379238  1.0000
  C   C6        1.0  0.9729338327899699  0.2968034881844943  0.3690662103402785  1.0000
  C   C7        1.0  0.9729314257379044  0.7968026052409343  0.13093324043737195  1.0000
  C   C8        1.0  0.027070932285305112  0.7031991170198921  0.6309331417540205  1.0000
  C   C9        1.0  0.27883071418895605  0.3095724902973558  0.9765258784185274  1.0000
  C   C10       1.0  0.7211702946634446  0.19042667699945068  0.4765254792622569  1.0000
  C   C11       1.0  0.7211618687780047  0.6904259730806429  0.023473965556405595  1.0000
  C   C12       1.0  0.27883109056084987  0.8095738517399839  0.5234743647131167  1.0000
  C   C13       1.0  0.08566592174778978  0.062244215925986175  0.8737513128559794  1.0000
  C   C14       1.0  0.9143372278799403  0.43775510642035437  0.37375085008007847  1.0000
  C   C15       1.0  0.9143347948280155  0.9377542307969264  0.12624902300075289  1.0000
  C   C16       1.0  0.08566753719533443  0.562247498784032  0.6262485020142206  1.0000
  N   N1        1.0  0.8731251024417334  0.2586055146260264  0.8159287725801576  1.0000
  N   N2        1.0  0.12687772625486102  0.24139389807697853  0.31592823505416584  1.0000
  N   N3        1.0  0.1268762827811969  0.7413950141137916  0.18407057951423406  1.0000
  N   N4        1.0  0.8731260358442657  0.7586055841035916  0.6840706251596911  1.0000
  N   N5        1.0  0.8711526905837631  0.3937243720283377  0.827848988444735  1.0000
  N   N6        1.0  0.12884782739724437  0.10627606860670367  0.32784899879136015  1.0000
  N   N7        1.0  0.1288483603156081  0.6062751157030277  0.17215085553082324  1.0000
  N   N8        1.0  0.8711535578270501  0.893724460132731  0.6721508451840206  1.0000
  N   N9        1.0  0.017019025858388673  0.43049915890350116  0.8861756521790836  1.0000
  N   N10       1.0  0.9829784359997407  0.06949911412245058  0.3861758463840132  1.0000
  N   N11       1.0  0.9829766026359935  0.569500339931004  0.11382419179593478  1.0000
  N   N12       1.0  0.017022614902352007  0.9305003736081473  0.6138249813535238  1.0000
  N   N13       1.0  0.14077915289676213  0.9463148685704752  0.8783654719460116  1.0000
  N   N14       1.0  0.8592211985901417  0.5536843905750716  0.3783651563308154  1.0000
  N   N15       1.0  0.8592195211264056  0.053685665720145395  0.12163486391008856  1.0000
  N   N16       1.0  0.14077985230922252  0.446315097156301  0.6216346876447431  1.0000
  N   N17       1.0  0.4108624235463266  0.30417982770705265  0.02853546974526469  1.0000
  N   N18       1.0  0.5891388100402751  0.1958200340917102  0.5285354851287493  1.0000
  N   N19       1.0  0.5891328706231319  0.6958186301193832  0.9714643742299384  1.0000
  N   N20       1.0  0.4108619065341658  0.8041784126315931  0.471464358846994  1.0000
  O   O1        1.0  0.6392245191306288  0.6519828069016853  0.805451111615866  1.0000
  O   O2        1.0  0.36077576198728434  0.8480176071916077  0.30545106829892876  1.0000
  O   O3        1.0  0.3607765317700995  0.3480166808292964  0.19454922424068136  1.0000
  O   O4        1.0  0.6392198665084623  0.1519818916425137  0.6945492675570859  1.0000
