data_image0
_chemical_formula_structural       Co2H40C54Br8N8O8
_chemical_formula_sum              "Co2 H40 C54 Br8 N8 O8"
_cell_length_a       11.005396053987639
_cell_length_b       11.06337761304523
_cell_length_c       12.439778644190406
_cell_angle_alpha    76.70376573630581
_cell_angle_beta     79.73640690099903
_cell_angle_gamma    88.26701226228802

_space_group_name_H-M_alt    "P 1"
_space_group_IT_number       1

loop_
  _space_group_symop_operation_xyz
  'x, y, z'

loop_
  _atom_site_type_symbol
  _atom_site_label
  _atom_site_symmetry_multiplicity
  _atom_site_fract_x
  _atom_site_fract_y
  _atom_site_fract_z
  _atom_site_occupancy
  Co  Co1       1.0  0.7236317098439642  0.2731669248462155  0.2773149937333486  1.0000
  Co  Co2       1.0  0.27636828195384305  0.7268317479462285  0.7226852819431924  1.0000
  H   H1        1.0  0.48853570281986686  0.286189794383894  0.4727803049623701  1.0000
  H   H2        1.0  0.5114652693996931  0.7138125780648679  0.5272206872591028  1.0000
  H   H3        1.0  0.5099442628531321  0.47248162824852374  0.36858850295112683  1.0000
  H   H4        1.0  0.49005575371949556  0.5275189144670733  0.6314097892751177  1.0000
  H   H5        1.0  0.6555508456305503  0.2687244330713413  0.049163832117685005  1.0000
  H   H6        1.0  0.3444500559086592  0.731273307615439  0.9508364843224725  1.0000
  H   H7        1.0  0.8388003871999671  0.008357185597006406  0.37213005710172803  1.0000
  H   H8        1.0  0.16120241314267503  0.9916442760502523  0.627867610175947  1.0000
  H   H9        1.0  0.5578297043884674  0.8894337495114047  0.7492838868451697  1.0000
  H   H10       1.0  0.44217033206582806  0.11056769126928154  0.2507182431476949  1.0000
  H   H11       1.0  0.5193672962549982  0.3399615340533445  0.896908053880793  1.0000
  H   H12       1.0  0.4806327079302192  0.660038073700676  0.1030912300706035  1.0000
  H   H13       1.0  0.3690637414104074  0.3931203183904659  0.9376910865723926  1.0000
  H   H14       1.0  0.6309362801583871  0.6068801997274705  0.06231042531503307  1.0000
  H   H15       1.0  0.8694607845467102  0.8117619521445434  0.5104425020066615  1.0000
  H   H16       1.0  0.13054109741425177  0.18823948819855474  0.489558530978428  1.0000
  H   H17       1.0  0.3658910618891368  0.037888306834446404  0.7117773387688189  1.0000
  H   H18       1.0  0.6341071389478187  0.9621140816442378  0.2882232866760929  1.0000
  H   H19       1.0  0.35083154395239546  0.1968168476929649  0.6498074665481396  1.0000
  H   H20       1.0  0.6491675802624143  0.8031855374922191  0.3501930128505321  1.0000
  H   H21       1.0  0.30124281072978926  0.5679550293699266  0.38628155736937936  1.0000
  H   H22       1.0  0.6987600044983536  0.4320473549400817  0.6137167280137278  1.0000
  H   H23       1.0  0.29814898912407267  0.08006912870295932  0.8981008652718355  1.0000
  H   H24       1.0  0.7018510448321392  0.9199323243765608  0.1018996548904383  1.0000
  H   H25       1.0  0.2860469286916966  0.24099106899568318  0.8446912799253637  1.0000
  H   H26       1.0  0.7139530928771052  0.7590094491222528  0.15531023196206206  1.0000
  H   H27       1.0  0.7315286692088988  0.7525503568044343  0.6934839093559261  1.0000
  H   H28       1.0  0.2684732140011049  0.2474510773892504  0.30651792854445853  1.0000
  H   H29       1.0  0.23256602367896304  0.4655936180522105  0.08650388731968658  1.0000
  H   H30       1.0  0.767433996640797  0.5344069062151391  0.9134968196524439  1.0000
  H   H31       1.0  0.5098756938425807  0.2517900843703202  0.7530821451676886  1.0000
  H   H32       1.0  0.49012432647717924  0.7482104398970366  0.24691856180444197  1.0000
  H   H33       1.0  0.5258622323717929  0.09278179876618253  0.8155637035560941  1.0000
  H   H34       1.0  0.4741377730624733  0.9072178028384247  0.1844363853105975  1.0000
  H   H35       1.0  0.30483579300130254  0.17904444496090122  0.05078642047536162  1.0000
  H   H36       1.0  0.6951633175770553  0.8209570114121194  0.9492142457331595  1.0000
  H   H37       1.0  0.455059897793781  0.12449645559142652  0.011981957035047175  1.0000
  H   H38       1.0  0.5449392003971667  0.8755040658200173  0.9880197008986186  1.0000
  H   H39       1.0  0.16652093356221087  0.5663322584040387  0.2452248380147211  1.0000
  H   H40       1.0  0.8334800485466758  0.4336710613051339  0.7547735526510164  1.0000
  C   C1        1.0  0.9638030252218001  0.9659522595385823  0.9087385504706872  1.0000
  C   C2        1.0  0.036197002489195995  0.03404922428801171  0.09125794511511738  1.0000
  C   C3        1.0  0.8978005658119912  0.05551596230686332  0.9580251069293481  1.0000
  C   C4        1.0  0.10220036175108049  0.9444836421536569  0.04197403097580825  1.0000
  C   C5        1.0  0.05052764723388488  0.6195627254651513  0.4652543048754651  1.0000
  C   C6        1.0  0.9494704432623987  0.380432238665648  0.5347470101329819  1.0000
  C   C7        1.0  0.9329074790950214  0.09026848177087031  0.049618156003695964  1.0000
  C   C8        1.0  0.0670916153487937  0.909732058088814  0.9503810871840911  1.0000
  C   C9        1.0  0.9130531569016043  0.46289196633311763  0.44257014155801494  1.0000
  C   C10       1.0  0.08694682001070929  0.5371057837965837  0.5574295160130873  1.0000
  C   C11       1.0  0.8628404830219907  0.1881028596321883  0.10300367015452142  1.0000
  C   C12       1.0  0.13715951991418507  0.8118967542712527  0.8969948088815797  1.0000
  C   C13       1.0  0.9643225773182988  0.5827173294708601  0.40825025313688457  1.0000
  C   C14       1.0  0.035674617073041794  0.4172794955777591  0.5917508342980895  1.0000
  C   C15       1.0  0.6801290502438562  0.058253451141538924  0.4837315122506283  1.0000
  C   C16       1.0  0.31987003056351426  0.941746159905989  0.5162679177470152  1.0000
  C   C17       1.0  0.4851017563410664  0.40892444932933375  0.2216434415533256  1.0000
  C   C18       1.0  0.5148982317096084  0.5910742419113576  0.7783544193773366  1.0000
  C   C19       1.0  0.8170129057423452  0.4222000713099306  0.38428185623467204  1.0000
  C   C20       1.0  0.18298611677207785  0.5777958429371849  0.6157159062565043  1.0000
  C   C21       1.0  0.6023664084052598  0.024748810297190015  0.5901504365977671  1.0000
  C   C22       1.0  0.3976317477752076  0.9752508101932522  0.40984833453081376  1.0000
  C   C23       1.0  0.5428678545619191  0.20331209908525244  0.4929532903581943  1.0000
  C   C24       1.0  0.4571321806433345  0.7966893478448541  0.5070480347193751  1.0000
  C   C25       1.0  0.4480611374805362  0.4676429219265117  0.3102305200265647  1.0000
  C   C26       1.0  0.5519416913840587  0.5323603911956526  0.6897675785466858  1.0000
  C   C27       1.0  0.5845793409864014  0.3154172438121705  0.09655843896713631  1.0000
  C   C28       1.0  0.4154179091997959  0.6845832903356951  0.903442706143721  1.0000
  C   C29       1.0  0.7783322884738125  0.9824956021729254  0.45345621697977373  1.0000
  C   C30       1.0  0.22166680846809325  0.017504925387932208  0.5465446360385968  1.0000
  C   C31       1.0  0.4080472045053156  0.40870451065052293  0.14153792662143866  1.0000
  C   C32       1.0  0.591952839340216  0.5912978896894074  0.8584599919851  1.0000
  C   C33       1.0  0.6184264582456718  0.915195084603667  0.6680640366117243  1.0000
  C   C34       1.0  0.38157540758074754  0.08480543922609482  0.33193557335263074  1.0000
  C   C35       1.0  0.43778981578920906  0.3236382844062149  0.9637442784398684  1.0000
  C   C36       1.0  0.5622102032815022  0.6763622460105552  0.03625562361696673  1.0000
  C   C37       1.0  0.7940168347528314  0.8730375417425124  0.5311677786798654  1.0000
  C   C38       1.0  0.2059859544514424  0.126962978793749  0.4688316852382427  1.0000
  C   C39       1.0  0.41568381889680933  0.12750259601928354  0.6843707267451861  1.0000
  C   C40       1.0  0.5843152916815483  0.8724988603537369  0.31562993946333506  1.0000
  C   C41       1.0  0.33237782836236807  0.522973546170917  0.3171189818369341  1.0000
  C   C42       1.0  0.6676258693342662  0.4770260484090942  0.6828797179294952  1.0000
  C   C43       1.0  0.34995500095591575  0.1682822049310033  0.8764610676078914  1.0000
  C   C44       1.0  0.6500450057273922  0.8317173905241904  0.1235398261740954  1.0000
  C   C45       1.0  0.7154829569526625  0.839622922270266  0.6362387052472369  1.0000
  C   C46       1.0  0.28451704598350597  0.16037669163316792  0.36375977378886404  1.0000
  C   C47       1.0  0.2922581530169737  0.46462143498659014  0.14786520096190253  1.0000
  C   C48       1.0  0.7077400192980362  0.5353791020171814  0.8521349931874126  1.0000
  C   C49       1.0  0.45970378503915293  0.16240994946039686  0.7830990146879202  1.0000
  C   C50       1.0  0.5402962365296489  0.8375905686575467  0.21690249719950566  1.0000
  C   C51       1.0  0.3857285281043445  0.19248290176823704  0.9830412971050676  1.0000
  C   C52       1.0  0.6142714785789564  0.8075166936869493  0.016959596676919406  1.0000
  C   C53       1.0  0.25596855578721994  0.5213123068055054  0.2375873595170859  1.0000
  C   C54       1.0  0.7440324002978043  0.4786891491299203  0.7624122096836529  1.0000
  Br  Br1       1.0  0.12218272432033929  0.7809345632402653  0.4175287878319906  1.0000
  Br  Br2       1.0  0.8778162994431254  0.21906134485743686  0.5824697795744739  1.0000
  Br  Br3       1.0  0.913933986560643  0.9154230566345092  0.7870383509075793  1.0000
  Br  Br4       1.0  0.08606600273907358  0.08457562845676851  0.21296031493837825  1.0000
  Br  Br5       1.0  0.7572563781860426  0.13103172665292825  0.9014678075687071  1.0000
  Br  Br6       1.0  0.24274362599917504  0.8689678811010924  0.09853147638268915  1.0000
  Br  Br7       1.0  0.9178933620077814  0.6923864862105236  0.28079624254785057  1.0000
  Br  Br8       1.0  0.08210198687689288  0.30761033927569065  0.7192059418949056  1.0000
  N   N1        1.0  0.47500499014700637  0.3487203546687497  0.06348537427754754  1.0000
  N   N2        1.0  0.5249941204313515  0.651281101704271  0.9365152919309663  1.0000
  N   N3        1.0  0.5945036495001831  0.3482938067777398  0.1912950639267733  1.0000
  N   N4        1.0  0.40549634104857546  0.6517048721641177  0.8087044068344792  1.0000
  N   N5        1.0  0.639757226148852  0.17093428329788204  0.42500144845248394  1.0000
  N   N6        1.0  0.3602418435201429  0.8290643866386491  0.5749997781855994  1.0000
  N   N7        1.0  0.5162477191228305  0.11925600109720594  0.5925090369622052  1.0000
  N   N8        1.0  0.4837522999478878  0.8807445293195645  0.4074908650946368  1.0000
  O   O1        1.0  0.7901031875656555  0.14274239635367542  0.19743631268992354  1.0000
  O   O2        1.0  0.20989493759477537  0.8572553849606808  0.8025604173124846  1.0000
  O   O3        1.0  0.8781222837768822  0.2994631006136786  0.055990047652286934  1.0000
  O   O4        1.0  0.12187863264782103  0.7005355627358513  0.9440108868933094  1.0000
  O   O5        1.0  0.8591607118536826  0.3577052425414352  0.3118458377653325  1.0000
  O   O6        1.0  0.14084014877615658  0.6422897117088553  0.6881550391043872  1.0000
  O   O7        1.0  0.7065737764508028  0.4493452931546146  0.41099796194804117  1.0000
  O   O8        1.0  0.29342995840806196  0.5506571063101334  0.5889977626429468  1.0000
