data_image0
_chemical_formula_structural       Zn16H48C96O52
_chemical_formula_sum              "Zn16 H48 C96 O52"
_cell_length_a       18.37569707092416
_cell_length_b       18.375694778932285
_cell_length_c       18.37569626914258
_cell_angle_alpha    60.241279565765986
_cell_angle_beta     60.24126686322287
_cell_angle_gamma    60.24127467363553

_space_group_name_H-M_alt    "P 1"
_space_group_IT_number       1

loop_
  _space_group_symop_operation_xyz
  'x, y, z'

loop_
  _atom_site_type_symbol
  _atom_site_label
  _atom_site_symmetry_multiplicity
  _atom_site_fract_x
  _atom_site_fract_y
  _atom_site_fract_z
  _atom_site_occupancy
  Zn  Zn1       1.0  0.6095330839080974  0.7828406515612728  0.6095337103377146  1.0000
  Zn  Zn2       1.0  0.19599317992985735  0.02238003860093581  0.19599343055183735  1.0000
  Zn  Zn3       1.0  0.60953306658336  0.6095331599254407  0.7828411629947212  1.0000
  Zn  Zn4       1.0  0.19599319726852119  0.19599346912181673  0.02238016000656263  1.0000
  Zn  Zn5       1.0  0.7828408349825937  0.6095335697847942  0.609533356174445  1.0000
  Zn  Zn6       1.0  0.0223804147905113  0.19599326197349853  0.19599322526099167  1.0000
  Zn  Zn7       1.0  0.6088601355056513  0.6088605571556158  0.6088607518020126  1.0000
  Zn  Zn8       1.0  0.19654718647217348  0.19654753543002101  0.19654752350355412  1.0000
  Zn  Zn9       1.0  0.21715880312352456  0.390466465644991  0.3904669490532057  1.0000
  Zn  Zn10      1.0  0.9776198878033284  0.8040065530823168  0.804006859592633  1.0000
  Zn  Zn11      1.0  0.3904665715227652  0.3904668755043446  0.21715914223292282  1.0000
  Zn  Zn12      1.0  0.8040064409125448  0.804006566382782  0.9776196009497016  1.0000
  Zn  Zn13      1.0  0.39046655419802795  0.21715938386851263  0.39046659488993635  1.0000
  Zn  Zn14      1.0  0.8040071225890345  0.9776197763800739  0.8040071985731744  1.0000
  Zn  Zn15      1.0  0.391139502600474  0.39113947827417667  0.39113955342563866  1.0000
  Zn  Zn16      1.0  0.8034524517088926  0.8034525000745774  0.80345223745271  1.0000
  H   H1        1.0  0.8342617930536562  0.06734553383778048  0.35321051386552677  1.0000
  H   H2        1.0  0.7380573782107477  0.9712527577296727  0.4488587398153285  1.0000
  H   H3        1.0  0.35321024185223143  0.8342620219367519  0.0673456015076964  1.0000
  H   H4        1.0  0.44885887930716006  0.7380574259153933  0.9712525445795916  1.0000
  H   H5        1.0  0.0673449432944508  0.35321043979651995  0.8342620434080318  1.0000
  H   H6        1.0  0.9712521711641247  0.4488589980797639  0.7380580009126944  1.0000
  H   H7        1.0  0.0673449913747319  0.8342617472355585  0.3532109033541815  1.0000
  H   H8        1.0  0.9712522001426506  0.7380577757414598  0.4488587895668204  1.0000
  H   H9        1.0  0.8342618216558507  0.3532103297370171  0.06734559607406933  1.0000
  H   H10       1.0  0.7380573259768964  0.4488589484850039  0.9712525230476887  1.0000
  H   H11       1.0  0.3532101652131772  0.06734529171792052  0.834261970396213  1.0000
  H   H12       1.0  0.4488589026374328  0.9712524575731719  0.7380574284217188  1.0000
  H   H13       1.0  0.3552740298105164  0.06758520013145392  0.3552740539796844  1.0000
  H   H14       1.0  0.45113216333074047  0.9716729351347552  0.4511326713060202  1.0000
  H   H15       1.0  0.35403777128767183  0.8347348344242533  0.35403750282954854  1.0000
  H   H16       1.0  0.4503391608464468  0.7383707204446568  0.4503397989318785  1.0000
  H   H17       1.0  0.35527405849713034  0.3552737177874334  0.06758612566486726  1.0000
  H   H18       1.0  0.45113277575762817  0.4511327197092854  0.9716725096967594  1.0000
  H   H19       1.0  0.35403772324946914  0.3540377390399244  0.8347343824556646  1.0000
  H   H20       1.0  0.4503391320419611  0.45033990221273257  0.7383706351396029  1.0000
  H   H21       1.0  0.06758536916167661  0.3552737101967622  0.35527416530439376  1.0000
  H   H22       1.0  0.9716727543528593  0.451132594335533  0.45113248091269037  1.0000
  H   H23       1.0  0.8347344982325638  0.3540377827770271  0.3540376027896595  1.0000
  H   H24       1.0  0.7383707130539037  0.4503390591250421  0.45033981642729515  1.0000
  H   H25       1.0  0.9326546467748288  0.16573766131366338  0.6467897129166715  1.0000
  H   H26       1.0  0.0287474380384154  0.26194225976313845  0.5511409713894437  1.0000
  H   H27       1.0  0.1657378164937029  0.6467890788122119  0.9326550201967908  1.0000
  H   H28       1.0  0.2619423121292215  0.5511410869447816  0.028747782179962572  1.0000
  H   H29       1.0  0.6467894728929481  0.9326547437118649  0.16573833483143824  1.0000
  H   H30       1.0  0.551141399956407  0.028747357482643617  0.2619426564319125  1.0000
  H   H31       1.0  0.16573784505246894  0.9326545015920048  0.6467897913621243  1.0000
  H   H32       1.0  0.261942259926883  0.028747904655489286  0.5511407100977267  1.0000
  H   H33       1.0  0.6467900607416084  0.1657377931190638  0.9326544833459279  1.0000
  H   H34       1.0  0.5511414232866797  0.2619423891404225  0.02874754027403975  1.0000
  H   H35       1.0  0.9326546948116742  0.6467895956332655  0.1657382618196195  1.0000
  H   H36       1.0  0.0287474669420007  0.5511410373500213  0.26194230431495663  1.0000
  H   H37       1.0  0.9324142689878772  0.6447256983524596  0.6447264509664661  1.0000
  H   H38       1.0  0.028327548197545096  0.548867847600846  0.5488672928977323  1.0000
  H   H39       1.0  0.165265804361276  0.6459620322787886  0.6459624820639718  1.0000
  H   H40       1.0  0.2616295895833716  0.549660129050217  0.5496605794695455  1.0000
  H   H41       1.0  0.6447262440651971  0.6447254703130126  0.9324148145033603  1.0000
  H   H42       1.0  0.5488675267927833  0.5488677222270935  0.028327264113663275  1.0000
  H   H43       1.0  0.6459619148566561  0.6459622963898608  0.16526592277197957  1.0000
  H   H44       1.0  0.5496605060641642  0.549660133217053  0.26162967008804816  1.0000
  H   H45       1.0  0.6447262727833234  0.9324146149243616  0.6447260308739402  1.0000
  H   H46       1.0  0.5488681392630994  0.028326879921060304  0.5488674135476117  1.0000
  H   H47       1.0  0.6459618667750177  0.16526582788609553  0.6459624913548864  1.0000
  H   H48       1.0  0.5496604772596784  0.26162931498512876  0.5496605062957656  1.0000
  C   C1        1.0  0.863504788787637  0.9952239715047217  0.374747186458172  1.0000
  C   C2        1.0  0.8101307293619868  0.9418661398046315  0.427855074844146  1.0000
  C   C3        1.0  0.37474672604165704  0.863505098674942  0.9952239845812586  1.0000
  C   C4        1.0  0.42785511997613673  0.810130902592036  0.9418661968045399  1.0000
  C   C5        1.0  0.9952236013679111  0.3747467948251357  0.863505455018469  1.0000
  C   C6        1.0  0.9418661654551669  0.42785520762622314  0.8101311918961898  1.0000
  C   C7        1.0  0.9952236502972626  0.8635042518907026  0.37474759549962017  1.0000
  C   C8        1.0  0.9418662037594744  0.8101308807523608  0.427854951226436  1.0000
  C   C9        1.0  0.8635053912798298  0.37474643159106336  0.9952239233107533  1.0000
  C   C10       1.0  0.8101306779097399  0.4278555579487532  0.9418660423294581  1.0000
  C   C11       1.0  0.37474740371392573  0.9952241139693425  0.8635044332713091  1.0000
  C   C12       1.0  0.42785513319903157  0.9418658113965819  0.8101309257175942  1.0000
  C   C13       1.0  0.2916333754427357  0.014230603332471444  0.2916339037375053  1.0000
  C   C14       1.0  0.3490484309455013  0.9567468813566579  0.3490478613362027  1.0000
  C   C15       1.0  0.37625028724804827  0.995566997423289  0.37625050058164067  1.0000
  C   C16       1.0  0.4296463015980975  0.9421342598253445  0.4296462865091686  1.0000
  C   C17       1.0  0.37570238675654377  0.8639283583583149  0.37570277875364866  1.0000
  C   C18       1.0  0.42907647666044824  0.8105054044388637  0.42907683501029226  1.0000
  C   C19       1.0  0.45634676227134463  0.8493065706272844  0.4563468913367145  1.0000
  C   C20       1.0  0.5137459651240378  0.7917546652347838  0.5137456557107852  1.0000
  C   C21       1.0  0.2916340677092393  0.2916335859376815  0.014230193531389547  1.0000
  C   C22       1.0  0.3490490345719763  0.3490491866087453  0.9567457961468976  1.0000
  C   C23       1.0  0.3762515543670801  0.37624904651965346  0.9955670396548585  1.0000
  C   C24       1.0  0.429646250318541  0.42964647633449715  0.9421343073853876  1.0000
  C   C25       1.0  0.37570300243126553  0.3757023125159265  0.8639283274638814  1.0000
  C   C26       1.0  0.4290771030720962  0.42907648537747184  0.8105048386211778  1.0000
  C   C27       1.0  0.45634672295321377  0.4563468591077821  0.8493067743829813  1.0000
  C   C28       1.0  0.5137459373327218  0.5137458537399695  0.7917544052590061  1.0000
  C   C29       1.0  0.014230131969007704  0.29163379284438656  0.2916339658088418  1.0000
  C   C30       1.0  0.956746602508332  0.3490483809423565  0.34904849139343236  1.0000
  C   C31       1.0  0.9955669001401901  0.37625030906761486  0.376250459229766  1.0000
  C   C32       1.0  0.9421342575893092  0.42964618042157826  0.4296462825422648  1.0000
  C   C33       1.0  0.8639281081754789  0.37570249935773575  0.3757027849045541  1.0000
  C   C34       1.0  0.8105047735778895  0.42907648287449274  0.4290770964363303  1.0000
  C   C35       1.0  0.8493064485129126  0.4563466299290937  0.4563469676032312  1.0000
  C   C36       1.0  0.7917545848910236  0.5137457501181688  0.5137463110915232  1.0000
  C   C37       1.0  0.0137548315808473  0.013755271003297799  0.2911947919330231  1.0000
  C   C38       1.0  0.956322299099206  0.9563223121222181  0.3481785865085739  1.0000
  C   C39       1.0  0.8490532477422051  0.8490534698363775  0.4551047570200097  1.0000
  C   C40       1.0  0.7917475852512155  0.7917473927885084  0.5135251058487782  1.0000
  C   C41       1.0  0.29119465130575156  0.013755077101556901  0.013755248681768249  1.0000
  C   C42       1.0  0.34817817475843793  0.956322607507481  0.9563224839265556  1.0000
  C   C43       1.0  0.4551053831317162  0.849052841244486  0.849053254927476  1.0000
  C   C44       1.0  0.5135249626419522  0.7917476044383207  0.791747618339187  1.0000
  C   C45       1.0  0.013754859313685601  0.291194835523754  0.013755300639061824  1.0000
  C   C46       1.0  0.9563222382852103  0.34817846796703833  0.9563224442691762  1.0000
  C   C47       1.0  0.8490532083438963  0.45510509922084463  0.8490531635251699  1.0000
  C   C48       1.0  0.7917475574315845  0.5135248002099716  0.7917476868657188  1.0000
  C   C49       1.0  0.004775987927239101  0.13649515673333207  0.6252524764998456  1.0000
  C   C50       1.0  0.05813409890931351  0.1898689343782607  0.5721445893558084  1.0000
  C   C51       1.0  0.13649491131400995  0.6252533834647523  0.004776161542878228  1.0000
  C   C52       1.0  0.18986896019638516  0.5721444774810325  0.058134262898192804  1.0000
  C   C53       1.0  0.625252234348764  0.004776548341006039  0.13649556091312587  1.0000
  C   C54       1.0  0.5721445049070938  0.05813422403320354  0.18986937951004992  1.0000
  C   C55       1.0  0.1364955138377155  0.004776470506463707  0.625252043080863  1.0000
  C   C56       1.0  0.1898689088190864  0.05813389569996019  0.5721446861121181  1.0000
  C   C57       1.0  0.6252522475333181  0.1364957840093766  0.004776229977203074  1.0000
  C   C58       1.0  0.5721451826177031  0.18986891246377988  0.058133888049091725  1.0000
  C   C59       1.0  0.0047760367382067995  0.6252532406046569  0.13649485020917496  1.0000
  C   C60       1.0  0.0581341371386728  0.5721446074295926  0.18986889295743478  1.0000
  C   C61       1.0  0.985770170624832  0.7083660222114291  0.7083661190447826  1.0000
  C   C62       1.0  0.043253035597793116  0.6509516544874289  0.6509518138342187  1.0000
  C   C63       1.0  0.004432737954012101  0.6237509801981033  0.6237486796400803  1.0000
  C   C64       1.0  0.0578660450045305  0.5703536346342375  0.5703538023113668  1.0000
  C   C65       1.0  0.13607152993063917  0.6242975360720492  0.6242975203230969  1.0000
  C   C66       1.0  0.1894948645282355  0.5709235525552929  0.5709232087913205  1.0000
  C   C67       1.0  0.15069385408092734  0.5436531851267217  0.5436531172503936  1.0000
  C   C68       1.0  0.20824571770281614  0.486254064937647  0.48625377376210105  1.0000
  C   C69       1.0  0.7083662348846005  0.708366229118134  0.9857698913222421  1.0000
  C   C70       1.0  0.6509512680099406  0.650951882283003  0.043253122348929106  1.0000
  C   C71       1.0  0.6237487483017078  0.623750768610968  0.004432500927386105  1.0000
  C   C72       1.0  0.5703533877441488  0.5703541859758517  0.05786568679905448  1.0000
  C   C73       1.0  0.6242973001625742  0.6242975025398891  0.13607175738974314  1.0000
  C   C74       1.0  0.5709231995966916  0.5709233297531497  0.18949470196106688  1.0000
  C   C75       1.0  0.5436535796406263  0.5436529559480331  0.1506933104706504  1.0000
  C   C76       1.0  0.48625370084834435  0.4862541817646289  0.20824535569725808  1.0000
  C   C77       1.0  0.708366262619954  0.9857700589778772  0.7083660904469371  1.0000
  C   C78       1.0  0.6509512072355648  0.043253154147933556  0.6509518996200613  1.0000
  C   C79       1.0  0.6237486862954071  0.004433258305660167  0.6237505692914169  1.0000
  C   C80       1.0  0.5703540009957422  0.05786555523047104  0.5703537983444633  1.0000
  C   C81       1.0  0.6242972513495744  0.13607167707147746  0.6242975264740025  1.0000
  C   C82       1.0  0.5709231614022415  0.18949525787148505  0.5709231591741499  1.0000
  C   C83       1.0  0.543653540322495  0.1506932444285313  0.5436531935169172  1.0000
  C   C84       1.0  0.48625367305703554  0.20824537026980758  0.48625410524547147  1.0000
  C   C85       1.0  0.9862454709380444  0.9862445439777122  0.7088058371919882  1.0000
  C   C86       1.0  0.04367800349463379  0.043677502933604714  0.6518214983450507  1.0000
  C   C87       1.0  0.15094705488314727  0.15094697217481476  0.5448944725190259  1.0000
  C   C88       1.0  0.20825271741757231  0.20825242234211322  0.48647443473346635  1.0000
  C   C89       1.0  0.9862454431617776  0.7088056063378191  0.986245017442741  1.0000
  C   C90       1.0  0.0436773998209077  0.6518215674627469  0.043677860958474986  1.0000
  C   C91       1.0  0.15094709432489142  0.5448947159097771  0.15094637705706762  1.0000
  C   C92       1.0  0.2082527451622553  0.4864750148458441  0.20825239798791279  1.0000
  C   C93       1.0  0.708805651244653  0.986245364834822  0.9862445251286543  1.0000
  C   C94       1.0  0.6518214633476873  0.04367742792230443  0.0436778213010953  1.0000
  C   C95       1.0  0.5448949194621235  0.15094697381132968  0.15094682992614844  1.0000
  C   C96       1.0  0.4864753399518876  0.208252210617495  0.2082524665144446  1.0000
  O   O1        1.0  0.7077182205125894  0.8312109377894289  0.5363841531728751  1.0000
  O   O2        1.0  0.9741490196189346  0.09768725050322771  0.2691927786120443  1.0000
  O   O3        1.0  0.5363840598328762  0.7077185049084918  0.8312106762483111  1.0000
  O   O4        1.0  0.2691926035630843  0.9741489298609523  0.09768742971910155  1.0000
  O   O5        1.0  0.8312103259587929  0.5363845092645647  0.7077182263665733  1.0000
  O   O6        1.0  0.09768760343308712  0.26919223468090797  0.9741492659495066  1.0000
  O   O7        1.0  0.8312103430873989  0.707718444216141  0.5363843215539318  1.0000
  O   O8        1.0  0.09768767398789892  0.9741488143319754  0.26919223765800376  1.0000
  O   O9        1.0  0.7077181910473057  0.5363842636453454  0.8312107090562433  1.0000
  O   O10       1.0  0.9741490368064732  0.26919233574277984  0.09768741985296003  1.0000
  O   O11       1.0  0.5363840722129896  0.831210617220435  0.7077183362207861  1.0000
  O   O12       1.0  0.269192515895682  0.0976872650451384  0.974149272498309  1.0000
  O   O13       1.0  0.5361744686902057  0.8313146914525547  0.5361750230031888  1.0000
  O   O14       1.0  0.5357025165128988  0.7077774273962093  0.5357022594943429  1.0000
  O   O15       1.0  0.26975057301376637  0.09815139738078933  0.2697514308921142  1.0000
  O   O16       1.0  0.2692831925029679  0.9745895320950735  0.26928291641095825  1.0000
  O   O17       1.0  0.5361744391641492  0.5361751822135762  0.8313146281498263  1.0000
  O   O18       1.0  0.5357024994286946  0.5357018414959852  0.7077769543227177  1.0000
  O   O19       1.0  0.2697512547257332  0.26975092779437654  0.09815098835246523  1.0000
  O   O20       1.0  0.2692831219767626  0.2692831289272704  0.974589306470804  1.0000
  O   O21       1.0  0.8313143751136991  0.5361745619196725  0.5361756403578821  1.0000
  O   O22       1.0  0.7077775858442196  0.5357022335123247  0.5357022994049601  1.0000
  O   O23       1.0  0.0981512989085829  0.269750975057086  0.2697513020900573  1.0000
  O   O24       1.0  0.9745891624861828  0.2692831948189535  0.26928300892718926  1.0000
  O   O25       1.0  0.6525773642408766  0.6525774867086584  0.652577544166135  1.0000
  O   O26       1.0  0.152812687534869  0.15281314588196437  0.15281259182256693  1.0000
  O   O27       1.0  0.16878929505023882  0.2922822181690137  0.4636151283591161  1.0000
  O   O28       1.0  0.902312628605941  0.02585100072383986  0.7308078471956279  1.0000
  O   O29       1.0  0.2922821115465339  0.46361555141047034  0.1687893757973881  1.0000
  O   O30       1.0  0.025850601299652  0.7308076996870129  0.9023128853746911  1.0000
  O   O31       1.0  0.4636155658931358  0.16878941820935017  0.2922819690068649  1.0000
  O   O32       1.0  0.730807122210443  0.902312770384647  0.025851032729342055  1.0000
  O   O33       1.0  0.2922820821561985  0.16878887734119266  0.46361538740936936  1.0000
  O   O34       1.0  0.025851282974905104  0.902312564552588  0.7308073062415872  1.0000
  O   O35       1.0  0.4636155782732486  0.29228153052129363  0.16878962897934002  1.0000
  O   O36       1.0  0.7308076990307556  0.025850885194863275  0.9023126551345229  1.0000
  O   O37       1.0  0.1687893121473323  0.4636155261652277  0.29228207886107777  1.0000
  O   O38       1.0  0.9023120346730379  0.7308078007488776  0.02585103927814441  1.0000
  O   O39       1.0  0.168685927523569  0.46382462625557963  0.4638247555389513  1.0000
  O   O40       1.0  0.2922227167496203  0.46429758154349093  0.4642977854486715  1.0000
  O   O41       1.0  0.9018490036852569  0.7302488399987372  0.7302487827635743  1.0000
  O   O42       1.0  0.025410475694890505  0.7307168406856376  0.7307167520290748  1.0000
  O   O43       1.0  0.46382519901691677  0.4638248532910226  0.16868513280643782  1.0000
  O   O44       1.0  0.46429780328352166  0.4642973467540801  0.2922228973027357  1.0000
  O   O45       1.0  0.7302490478681066  0.730248887261439  0.9018490965011593  1.0000
  O   O46       1.0  0.7307171806170771  0.7307166861285453  0.025410778382827535  1.0000
  O   O47       1.0  0.46382516949086033  0.16868534405204375  0.4638247379530752  1.0000
  O   O48       1.0  0.46429778608094097  0.2922223876596064  0.46429782535928876  1.0000
  O   O49       1.0  0.7302490650923587  0.9018486380490032  0.7302488743355369  1.0000
  O   O50       1.0  0.7307171100908717  0.025410282960741902  0.7307171684426734  1.0000
  O   O51       1.0  0.3474229383529632  0.3474223283471575  0.34742254068749634  1.0000
  O   O52       1.0  0.8471869505278209  0.8471875164283845  0.8471874023618751  1.0000
