data_image0
_chemical_formula_structural       ZnH20C32N4O8F8
_chemical_formula_sum              "Zn1 H20 C32 N4 O8 F8"
_cell_length_a       6.248637358482005
_cell_length_b       9.545044579084502
_cell_length_c       13.648590170785148
_cell_angle_alpha    104.46070638875217
_cell_angle_beta     94.39425266717686
_cell_angle_gamma    94.84845136304483

_space_group_name_H-M_alt    "P 1"
_space_group_IT_number       1

loop_
  _space_group_symop_operation_xyz
  'x, y, z'

loop_
  _atom_site_type_symbol
  _atom_site_label
  _atom_site_symmetry_multiplicity
  _atom_site_fract_x
  _atom_site_fract_y
  _atom_site_fract_z
  _atom_site_occupancy
  Zn  Zn1       1.0  0.9999991550598751  0.4999992829625909  0.49999967774983395  1.0000
  H   H1        1.0  0.9872933463073679  0.9043079223683388  0.4072390861182171  1.0000
  H   H2        1.0  0.012706163027743899  0.09569067539229077  0.5927585739346101  1.0000
  H   H3        1.0  0.8347080569027767  0.9942151957297797  0.3296979401273319  1.0000
  H   H4        1.0  0.16529019872903922  0.005785579986508098  0.6703000496914484  1.0000
  H   H5        1.0  0.10190421708552579  0.8572309174425423  0.2314240510181165  1.0000
  H   H6        1.0  0.8980938586297071  0.14276877330558338  0.7685744778730808  1.0000
  H   H7        1.0  0.8375479070268738  0.7807106815696441  0.17871718571741715  1.0000
  H   H8        1.0  0.1624517735066036  0.21928900767230886  0.8212814014340993  1.0000
  H   H9        1.0  0.9937628848097262  0.6918061415830008  0.2559334540956968  1.0000
  H   H10       1.0  0.006236444608802604  0.30819137120946033  0.7440647450295473  1.0000
  H   H11       1.0  0.5754167934255534  0.0881070662168852  0.9744683755798533  1.0000
  H   H12       1.0  0.4245828827488083  0.9118926262816487  0.02553094465721983  1.0000
  H   H13       1.0  0.8481345285871742  0.12737691011928828  0.9516740495044118  1.0000
  H   H14       1.0  0.15186495895238042  0.8726217039242242  0.04832727597617748  1.0000
  H   H15       1.0  0.5845923018358193  0.23328019363552233  0.8447161362996171  1.0000
  H   H16       1.0  0.41541093073085733  0.7667216755567379  0.15528442156993802  1.0000
  H   H17       1.0  0.7619575603508936  0.37377165505598237  0.9307940838224767  1.0000
  H   H18       1.0  0.23804371192348842  0.6262280424495328  0.06920676084602208  1.0000
  H   H19       1.0  0.4916711843428913  0.335543987143076  0.9579355890448797  1.0000
  H   H20       1.0  0.5083304434055408  0.6644578835553503  0.04206491056434906  1.0000
  C   C1        1.0  0.25415104962719687  0.7366168243987231  0.6764869367748787  1.0000
  C   C2        1.0  0.7458518405427627  0.26338286183089105  0.3235117668972904  1.0000
  C   C3        1.0  0.4487920130991228  0.8375228807980262  0.6993103770214829  1.0000
  C   C4        1.0  0.5512090836177848  0.16247572848273956  0.3006902736338759  1.0000
  C   C5        1.0  0.5466239622904397  0.8220135841141952  0.6120849532195578  1.0000
  C   C6        1.0  0.453373924789986  0.17798502817890943  0.3879155809151555  1.0000
  C   C7        1.0  0.4187946447558275  0.708080047108005  0.534558508434742  1.0000
  C   C8        1.0  0.5812064476019716  0.2919185654293415  0.4654428753061737  1.0000
  C   C9        1.0  0.4701486093803595  0.6551685384658157  0.4345785577300276  1.0000
  C   C10       1.0  0.5298512423514766  0.34483224225746056  0.5654209565201782  1.0000
  C   C11       1.0  0.3498831733501576  0.5438195729578792  0.3585574857425939  1.0000
  C   C12       1.0  0.650118283199916  0.456181206259231  0.6414420867679382  1.0000
  C   C13       1.0  0.4037173475070972  0.4912610812684831  0.2554156440829233  1.0000
  C   C14       1.0  0.5962796413440827  0.50874188217319  0.7445848747584662  1.0000
  C   C15       1.0  0.24222884714147602  0.3875437519655874  0.2047828377575058  1.0000
  C   C16       1.0  0.7577727936842891  0.6124581089631177  0.7952154625950598  1.0000
  C   C17       1.0  0.08792106079479113  0.3727081388724897  0.2765625941522174  1.0000
  C   C18       1.0  0.9120786066613464  0.6272915601391914  0.7234381922559621  1.0000
  C   C19       1.0  0.8968418517974754  0.27775736606930923  0.2548359320905931  1.0000
  C   C20       1.0  0.10315621084041741  0.7222423344485376  0.74516479605726  1.0000
  C   C21       1.0  0.6826254257070445  0.718690560142484  0.41050307501177496  1.0000
  C   C22       1.0  0.3173763775988618  0.28131239878069175  0.5894976186105936  1.0000
  C   C23       1.0  0.8725155940774131  0.8885448497008  0.3395541973645066  1.0000
  C   C24       1.0  0.12748265283617852  0.11145593252864217  0.6604452586253801  1.0000
  C   C25       1.0  0.9547491131867079  0.7973965475257427  0.2456545533514856  1.0000
  C   C26       1.0  0.0452489668876339  0.20260313996580237  0.7543432424541552  1.0000
  C   C27       1.0  0.8497291251353333  0.18086478642482715  0.14779699535232993  1.0000
  C   C28       1.0  0.15026877066330974  0.819133819355123  0.852202072611277  1.0000
  C   C29       1.0  0.7040668528489961  0.17609961284859565  0.9794950223211103  1.0000
  C   C30       1.0  0.2959358574043733  0.8238989884128499  0.02050422042347578  1.0000
  C   C31       1.0  0.6316062710348335  0.28661796044399773  0.9254235990865922  1.0000
  C   C32       1.0  0.3683951811561245  0.713382822029679  0.07457670650949667  1.0000
  N   N1        1.0  0.2429070598027536  0.6596998912571478  0.5762417760230534  1.0000
  N   N2        1.0  0.757092607653384  0.3402998077545334  0.4237590103851261  1.0000
  N   N3        1.0  0.16040755395219722  0.46747755162263616  0.3689934808698609  1.0000
  N   N4        1.0  0.8395937226812934  0.5325221426263056  0.6310066307130882  1.0000
  O   O1        1.0  0.8560581386040694  0.6800507279078187  0.4363291515630934  1.0000
  O   O2        1.0  0.143941717486868  0.31995004955888345  0.5636696296015629  1.0000
  O   O3        1.0  0.6652579155514857  0.8223953177696115  0.36149720341444447  1.0000
  O   O4        1.0  0.33474033136210585  0.1776054644598304  0.6385022525754422  1.0000
  O   O5        1.0  0.8926069205655552  0.05519522837912657  0.1228409165257887  1.0000
  O   O6        1.0  0.1073957896878213  0.9448033728823189  0.8771583262187903  1.0000
  O   O7        1.0  0.7552467089029165  0.2532044364188194  0.0870401956200908  1.0000
  O   O8        1.0  0.244752791713978  0.7467941678549649  0.9129589306038426  1.0000
  F   F1        1.0  0.5200142963599106  0.9311825130907322  0.789360005791977  1.0000
  F   F2        1.0  0.4799868047161128  0.06881609293346  0.21063991177783242  1.0000
  F   F3        1.0  0.7286931823831752  0.8994345341507497  0.6005647787480157  1.0000
  F   F4        1.0  0.2713079012563995  0.10056408489974437  0.39943807116401336  1.0000
  F   F5        1.0  0.5818578697995705  0.5359249878863678  0.2177084194450316  1.0000
  F   F6        1.0  0.4181389565714753  0.464076877560835  0.7822897061265621  1.0000
  F   F7        1.0  0.2292813663098485  0.31215886866979753  0.10674064380560107  1.0000
  F   F8        1.0  0.7707168631672944  0.6878419265859461  0.893261744526491  1.0000
