data_image0
_chemical_formula_structural       Zn16H40C112S8Cl8O52F8
_chemical_formula_sum              "Zn16 H40 C112 S8 Cl8 O52 F8"
_cell_length_a       18.541688860814812
_cell_length_b       19.735732278173998
_cell_length_c       32.81943593172681
_cell_angle_alpha    85.96653310084946
_cell_angle_beta     73.59800820465806
_cell_angle_gamma    61.98363880821783

_space_group_name_H-M_alt    "P 1"
_space_group_IT_number       1

loop_
  _space_group_symop_operation_xyz
  'x, y, z'

loop_
  _atom_site_type_symbol
  _atom_site_label
  _atom_site_symmetry_multiplicity
  _atom_site_fract_x
  _atom_site_fract_y
  _atom_site_fract_z
  _atom_site_occupancy
  Zn  Zn1       1.0  0.8721685230799144  0.5562287115773755  0.5189256690088229  1.0000
  Zn  Zn2       1.0  0.03819843450597928  0.4841560020666264  0.4389026877270794  1.0000
  Zn  Zn3       1.0  0.04220676249006063  0.39916761827156216  0.5241984523376004  1.0000
  Zn  Zn4       1.0  0.04690449693303843  0.560382462419433  0.5176487862324777  1.0000
  Zn  Zn5       1.0  0.626215336239966  0.19195854579508156  0.7324915857051693  1.0000
  Zn  Zn6       1.0  0.463422053984047  0.3504536654340455  0.725562045482299  1.0000
  Zn  Zn7       1.0  0.4574719937548579  0.2647718783581823  0.8126016402186167  1.0000
  Zn  Zn8       1.0  0.45408027794204037  0.19286290462576966  0.7293147639003054  1.0000
  Zn  Zn9       1.0  0.46254068539111887  0.7629891999853838  0.312533393606209  1.0000
  Zn  Zn10      1.0  0.45344855568411896  0.6914126176840226  0.23148900543714757  1.0000
  Zn  Zn11      1.0  0.6262240950207668  0.6937436067256187  0.22949859518097784  1.0000
  Zn  Zn12      1.0  0.45741869092592696  0.85118911720901  0.2261298979590123  1.0000
  Zn  Zn13      1.0  0.036995443825098846  0.8994555496877934  0.024518999022468794  1.0000
  Zn  Zn14      1.0  0.04988561198332769  0.05666471553038829  0.018771505824183504  1.0000
  Zn  Zn15      1.0  0.8754289408329043  0.058375489217304684  0.019567945076211436  1.0000
  Zn  Zn16      1.0  0.03778737370551283  0.9851473441121642  0.937475753676516  1.0000
  H   H1        1.0  0.811371611202489  0.24370930620275294  0.6529654254655881  1.0000
  H   H2        1.0  0.5427878525701287  0.4854154368097595  0.6205838916432711  1.0000
  H   H3        1.0  0.5480859989477693  0.525601603126958  0.6658891276476098  1.0000
  H   H4        1.0  0.6476314119908865  0.570483887948285  0.6177384937191519  1.0000
  H   H5        1.0  0.6420896189269598  0.5304917616139234  0.5724642881503075  1.0000
  H   H6        1.0  0.29244727266424075  0.6017898384828227  0.29595063609850314  1.0000
  H   H7        1.0  0.3514219234412579  0.6737073177497165  0.4331572581931624  1.0000
  H   H8        1.0  0.2608224393278321  0.7619543488101855  0.4305382835443083  1.0000
  H   H9        1.0  0.16410837017959806  0.7126455698959686  0.47704046010753126  1.0000
  H   H10       1.0  0.2546081348619824  0.6243805905484406  0.47963284066963746  1.0000
  H   H11       1.0  0.8107940671948061  0.6015531409058922  0.2956402154798994  1.0000
  H   H12       1.0  0.5468456030921447  0.7621403549257693  0.4298870203327283  1.0000
  H   H13       1.0  0.5417246508735475  0.6739936637374484  0.43245942450820957  1.0000
  H   H14       1.0  0.6409014751921236  0.6246043163314355  0.479137011287186  1.0000
  H   H15       1.0  0.6460925255101273  0.712674527007664  0.476576860654724  1.0000
  H   H16       1.0  0.3061316018091775  0.4570080751460778  0.6461584734911414  1.0000
  H   H17       1.0  0.3316057833137692  0.17820821663522682  0.6303124688339423  1.0000
  H   H18       1.0  0.24093729553616336  0.2183939545590263  0.6756970153720445  1.0000
  H   H19       1.0  0.144804997922492  0.2696693656943338  0.6274020617282191  1.0000
  H   H20       1.0  0.23554029899005266  0.2294166479860209  0.5821020937756884  1.0000
  H   H21       1.0  0.6894119761778867  0.14844431329234448  0.9547539045271806  1.0000
  H   H22       1.0  0.9571096014032818  0.07661563723171132  0.8174165659053261  1.0000
  H   H23       1.0  0.9520590475705152  0.988423778962172  0.8198928056289461  1.0000
  H   H24       1.0  0.8523138877800421  0.03817800356875979  0.7735411192273107  1.0000
  H   H25       1.0  0.857345234152561  0.12631420618492226  0.7710785184044225  1.0000
  H   H26       1.0  0.19410092966832343  0.05207918146648889  0.8445693183111231  1.0000
  H   H27       1.0  0.1684981685784308  0.21541225055203483  0.976077306033254  1.0000
  H   H28       1.0  0.259366540582576  0.12734997466716183  0.9785640548814457  1.0000
  H   H29       1.0  0.35515964085955437  0.174261735711994  0.9287199292086612  1.0000
  H   H30       1.0  0.2643251335233359  0.262356104978096  0.926342480767211  1.0000
  H   H31       1.0  0.19418146100107256  0.7934614956036653  0.10361296073801901  1.0000
  H   H32       1.0  0.25924504186811964  0.03223897574894611  0.07422748158312228  1.0000
  H   H33       1.0  0.16830506362565253  0.07243231833901119  0.11950231854868319  1.0000
  H   H34       1.0  0.26404616026002264  0.0213643949032942  0.1678814038766703  1.0000
  H   H35       1.0  0.35495629851205  0.9811195928221256  0.12266163406893331  1.0000
  H   H36       1.0  0.6887072247387778  0.006297312750362499  0.0971201228634087  1.0000
  H   H37       1.0  0.9521898936878872  0.7243692183453874  0.08413968684365614  1.0000
  H   H38       1.0  0.9570730428615234  0.7646225823110272  0.12955721330067865  1.0000
  H   H39       1.0  0.8576809005817909  0.7195689231240789  0.1774492229805773  1.0000
  H   H40       1.0  0.8529030783253263  0.6790793044014264  0.13209157778014466  1.0000
  C   C1        1.0  0.8613741908967614  0.5685312340534594  0.43118135235174276  1.0000
  C   C2        1.0  0.12348919778648348  0.3158797812640513  0.4388474353116081  1.0000
  C   C3        1.0  0.8629682323787832  0.43008003966635033  0.5686000500938704  1.0000
  C   C4        1.0  0.13870979639255415  0.43173701512433377  0.5685295096223015  1.0000
  C   C5        1.0  0.8754171303575405  0.683848687849121  0.5607201831365174  1.0000
  C   C6        1.0  0.13788976001669087  0.5692375801196262  0.43110087889822774  1.0000
  C   C7        1.0  0.6390245126133891  0.3182160813538174  0.681268917017839  1.0000
  C   C8        1.0  0.3771957006630233  0.43424200471935837  0.8106248290684448  1.0000
  C   C9        1.0  0.6366210804499703  0.1814296609286146  0.8197142113962173  1.0000
  C   C10       1.0  0.36138593374990075  0.18125383273771686  0.818428235462676  1.0000
  C   C11       1.0  0.6242071689705712  0.0663527662103505  0.6887593207164215  1.0000
  C   C12       1.0  0.36293742477106156  0.3192808430984612  0.680687738660751  1.0000
  C   C13       1.0  0.3627100740316252  0.6805455438379155  0.31924451020658756  1.0000
  C   C14       1.0  0.6225995024618386  0.5662080376459926  0.18865250686672405  1.0000
  C   C15       1.0  0.6384173466530786  0.6807147417553947  0.3184722388442225  1.0000
  C   C16       1.0  0.6368766114745842  0.8193773823458484  0.18069369859990297  1.0000
  C   C17       1.0  0.37685191491908665  0.9326354886416867  0.3118772395733558  1.0000
  C   C18       1.0  0.36138285277728266  0.8189750242489992  0.181154108608645  1.0000
  C   C19       1.0  0.13807840388302867  0.9308157088881899  0.06876207388823019  1.0000
  C   C20       1.0  0.8796560342530241  0.1836369534718116  0.061114072484549795  1.0000
  C   C21       1.0  0.8611461369230683  0.9319212493965239  0.06909547877528874  1.0000
  C   C22       1.0  0.8617595942863829  0.0692223767087867  0.9313764139171496  1.0000
  C   C23       1.0  0.12168956439091289  0.8158212828395219  0.939344613285165  1.0000
  C   C24       1.0  0.138234836917384  0.06823066388962222  0.9307358362689159  1.0000
  C   C25       1.0  0.7382912840980823  0.8032547512781676  0.6010073494803552  1.0000
  C   C26       1.0  0.7612426011096431  0.9466003118904  0.6490167692139082  1.0000
  C   C27       1.0  0.8258767558661051  0.7583095773063988  0.5859132134072595  1.0000
  C   C28       1.0  0.6736133964405655  0.99167197290938  0.6639432832462191  1.0000
  C   C29       1.0  0.7856121989706394  0.8778357762538819  0.6259796736957952  1.0000
  C   C30       1.0  0.7139600561015841  0.8720547546595084  0.6239929144064362  1.0000
  C   C31       1.0  0.2019757509903713  0.2258687782658555  0.3701023092157243  1.0000
  C   C32       1.0  0.29834889316851587  0.022799994750144492  0.3806150451846975  1.0000
  C   C33       1.0  0.17272414964801194  0.2412718000926048  0.41399253115204004  1.0000
  C   C34       1.0  0.32763925089603424  0.007260715444417101  0.3367538057472572  1.0000
  C   C35       1.0  0.25252243598609436  0.1022237731728382  0.3931499427491758  1.0000
  C   C36       1.0  0.2479097070087235  0.14639608296352688  0.35756550033345763  1.0000
  C   C37       1.0  0.6957071635216964  0.34646383218219506  0.6526957441897566  1.0000
  C   C38       1.0  0.8091463249201781  0.3988371462004068  0.5972889382371848  1.0000
  C   C39       1.0  0.6651371923013158  0.418534314549902  0.6362948441705711  1.0000
  C   C40       1.0  0.8398934953508288  0.3252753084121025  0.6142920932278955  1.0000
  C   C41       1.0  0.7203364297522725  0.4430893030715167  0.6096490650748478  1.0000
  C   C42       1.0  0.7846160056029492  0.3005171777829361  0.6409341696072203  1.0000
  C   C43       1.0  0.5858565982000385  0.4921818911166654  0.6351011648008225  1.0000
  C   C44       1.0  0.6480837342950495  0.5202939162294413  0.6049621102794162  1.0000
  C   C45       1.0  0.30564304144793664  0.652536793312052  0.347585217310737  1.0000
  C   C46       1.0  0.19436390096654335  0.5965020057278065  0.40127388177131  1.0000
  C   C47       1.0  0.2801491030476485  0.6642441019506931  0.3918018568739399  1.0000
  C   C48       1.0  0.22050223044196565  0.58489273045479  0.35597341613410555  1.0000
  C   C49       1.0  0.2265657296574659  0.6370244004177011  0.41732846873905777  1.0000
  C   C50       1.0  0.27431372430993434  0.6121668084038203  0.3303745682549746  1.0000
  C   C51       1.0  0.2870724040283293  0.6990808418361921  0.4292480758245246  1.0000
  C   C52       1.0  0.22648011245402716  0.6682134405773325  0.45833041852463907  1.0000
  C   C53       1.0  0.6949129193260719  0.6525098720178518  0.3469920618935518  1.0000
  C   C54       1.0  0.8078734298123468  0.5961573642336331  0.4011239364396816  1.0000
  C   C55       1.0  0.6640894375233019  0.6642522417092208  0.39122485345622954  1.0000
  C   C56       1.0  0.8390300791375437  0.5846132011029538  0.35582089327005656  1.0000
  C   C57       1.0  0.7190846076485968  0.6368633293967604  0.4169212700535496  1.0000
  C   C58       1.0  0.7838457777147242  0.6120069791924081  0.3300483771248608  1.0000
  C   C59       1.0  0.5846877024185417  0.6992694332754256  0.42861007752446784  1.0000
  C   C60       1.0  0.6467653985736991  0.668330770017924  0.45782460043425033  1.0000
  C   C61       1.0  0.3056059939376113  0.3478908159008895  0.6525974178405676  1.0000
  C   C62       1.0  0.19525488505509975  0.40623189605956606  0.5971537990136397  1.0000
  C   C63       1.0  0.27264292003799545  0.30494675712675695  0.6400194040185311  1.0000
  C   C64       1.0  0.22901550349762817  0.4498756367060607  0.6102852069662248  1.0000
  C   C65       1.0  0.21958244493139745  0.3335821121281413  0.6133395792848546  1.0000
  C   C66       1.0  0.2821193362592852  0.4212573648607004  0.6370621960866885  1.0000
  C   C67       1.0  0.27000959445147293  0.22921060385954206  0.6435072202497523  1.0000
  C   C68       1.0  0.20989429303313772  0.2613186112506654  0.6133112645074874  1.0000
  C   C69       1.0  0.2984000723357031  0.5824765982882949  0.8215242002665022  1.0000
  C   C70       1.0  0.20160718819756326  0.6676333525187844  0.9284529870242934  1.0000
  C   C71       1.0  0.32793513212593695  0.5088256344790665  0.8355762818793195  1.0000
  C   C72       1.0  0.1717521253512758  0.7412889007012708  0.9143977816679226  1.0000
  C   C73       1.0  0.2478413093492975  0.6092825521208808  0.8948931525649257  1.0000
  C   C74       1.0  0.2522431188643283  0.6408227835388373  0.8550807710321351  1.0000
  C   C75       1.0  0.8048489747371124  0.0974977008939746  0.9030622903532688  1.0000
  C   C76       1.0  0.6907727800461743  0.1541943486936646  0.849510761849011  1.0000
  C   C77       1.0  0.8350534587471117  0.0860182929779612  0.8588305301454326  1.0000
  C   C78       1.0  0.6603888525467169  0.16552376595600996  0.8947825236004903  1.0000
  C   C79       1.0  0.7795901722188956  0.1136360015324485  0.833364562339483  1.0000
  C   C80       1.0  0.7159555804597773  0.13803470224875974  0.9203278890669253  1.0000
  C   C81       1.0  0.9141559329695996  0.05131419258748339  0.8213197669975044  1.0000
  C   C82       1.0  0.8516769736199096  0.0824482177327468  0.7923206975280196  1.0000
  C   C83       1.0  0.19479130963078722  0.0968238082579091  0.9023387326945667  1.0000
  C   C84       1.0  0.3045941895625148  0.1513471293471724  0.8454450651183122  1.0000
  C   C85       1.0  0.22742006837503947  0.1374968678222004  0.9175179887464254  1.0000
  C   C86       1.0  0.27094278333692773  0.1097213183265708  0.8301672607107022  1.0000
  C   C87       1.0  0.28020765517780444  0.16344595215358737  0.889853046071849  1.0000
  C   C88       1.0  0.21806331771771434  0.08365908269030341  0.857883748633796  1.0000
  C   C89       1.0  0.23007551516943894  0.1702102932403662  0.9571107488781081  1.0000
  C   C90       1.0  0.2900109413548649  0.19959490070428385  0.9259277133959501  1.0000
  C   C91       1.0  0.6443118020331938  0.44681728523897135  0.14901409005417318  1.0000
  C   C92       1.0  0.8581326165446157  0.30285998491047644  0.10082624542513952  1.0000
  C   C93       1.0  0.6725407383957533  0.491547730170339  0.16380338431392966  1.0000
  C   C94       1.0  0.8299490436902557  0.258185095128674  0.085972465569796  1.0000
  C   C95       1.0  0.7910936942247203  0.37175766553988154  0.12384271304342326  1.0000
  C   C96       1.0  0.7114416810469708  0.37791332293244295  0.1260089915259712  1.0000
  C   C97       1.0  0.19486605359633571  0.9024903442610891  0.09708212391124252  1.0000
  C   C98       1.0  0.3047040529838796  0.8445014788529831  0.1526830551756788  1.0000
  C   C99       1.0  0.22749678732980538  0.9456367860532994  0.109762226855338  1.0000
  C   C100      1.0  0.2711597847167157  0.8006188585916545  0.13953148270755378  1.0000
  C   C101      1.0  0.2802764719068378  0.9171630215437504  0.13655932659906972  1.0000
  C   C102      1.0  0.21817529671371028  0.8292184754561163  0.11269453606505654  1.0000
  C   C103      1.0  0.22995623477799407  0.021454958745579195  0.106377244143566  1.0000
  C   C104      1.0  0.28986464011556745  0.9894349394116728  0.1366769501538911  1.0000
  C   C105      1.0  0.8043823583047425  0.9034350780204292  0.09733816774335233  1.0000
  C   C106      1.0  0.6908392254742215  0.8507387127501358  0.15226244396943392  1.0000
  C   C107      1.0  0.8349065505075473  0.8312570158823221  0.11360386080053791  1.0000
  C   C108      1.0  0.6601479627093955  0.9244740292241003  0.13546833112511794  1.0000
  C   C109      1.0  0.7796742811531842  0.8065169931401854  0.1400289210583807  1.0000
  C   C110      1.0  0.7154662856206784  0.9493762432813638  0.1090234348430528  1.0000
  C   C111      1.0  0.9142149948804886  0.7577612659766544  0.11491784172969942  1.0000
  C   C112      1.0  0.8519854950305259  0.7294851838816994  0.14490045996529233  1.0000
  S   S1        1.0  0.8804219691458286  0.8004807006442434  0.6000509539220857  1.0000
  S   S2        1.0  0.619110172712503  0.9495109697890953  0.64974691696127  1.0000
  S   S3        1.0  0.2015821192399373  0.15726442518241157  0.4408170101391349  1.0000
  S   S4        1.0  0.29883989383331067  0.09129161834555789  0.3099131746661357  1.0000
  S   S5        1.0  0.2991815319549931  0.510264469529936  0.8909953562407722  1.0000
  S   S6        1.0  0.20060301839942005  0.7398402611791964  0.8589727655132364  1.0000
  S   S7        1.0  0.783352233635391  0.4490103025101817  0.14948539903877384  1.0000
  S   S8        1.0  0.7190792686996517  0.3007773068865873  0.10031991217335455  1.0000
  Cl  Cl1       1.0  0.9471775180683579  0.2600930022390812  0.6039245986459322  1.0000
  Cl  Cl2       1.0  0.1884547195422712  0.537205038362494  0.3285706740921555  1.0000
  Cl  Cl3       1.0  0.9462364944958565  0.5366008592234762  0.32856180186521305  1.0000
  Cl  Cl4       1.0  0.20821826711180344  0.5413522207916299  0.5945070105349757  1.0000
  Cl  Cl5       1.0  0.5532042579777253  0.21378809976997815  0.9223136251985907  1.0000
  Cl  Cl6       1.0  0.2915191185616024  0.0878194405778103  0.7765532588413322  1.0000
  Cl  Cl7       1.0  0.2919103849941964  0.7092785468391013  0.15528438956406626  1.0000
  Cl  Cl8       1.0  0.5528933660542991  0.9897499777149363  0.14593981275720577  1.0000
  O   O1        1.0  0.9977296062477167  0.5009775822964216  0.50122268862102  1.0000
  O   O2        1.0  0.8213625759298042  0.5847020779630084  0.47092692162106425  1.0000
  O   O3        1.0  0.10274883380449054  0.3756528670189353  0.4178782439589597  1.0000
  O   O4        1.0  0.9432569670937384  0.38829657801851164  0.55815045543482  1.0000
  O   O5        1.0  0.9416117574680317  0.531268662918059  0.41543620207208687  1.0000
  O   O6        1.0  0.8225077009096184  0.4976397729085562  0.556782105154454  1.0000
  O   O7        1.0  0.10624682259304313  0.31346632072450126  0.4793906891449708  1.0000
  O   O8        1.0  0.11725634809437231  0.38267590321004963  0.5597927292120559  1.0000
  O   O9        1.0  0.9564141491069124  0.6567468481264099  0.5507394890669914  1.0000
  O   O10       1.0  0.11630010354954841  0.4985522356760156  0.5550881867925312  1.0000
  O   O11       1.0  0.8339861108919919  0.6539018594937785  0.5513164908536793  1.0000
  O   O12       1.0  0.11353731520851822  0.5291822352477665  0.4155259915331868  1.0000
  O   O13       1.0  0.11858120693742795  0.5885329957767171  0.470747137917229  1.0000
  O   O14       1.0  0.5009685133365239  0.25003625479040176  0.7500724757307822  1.0000
  O   O15       1.0  0.6743695294498053  0.2514259339063045  0.6945867403147047  1.0000
  O   O16       1.0  0.3982846580206285  0.4355536457646139  0.7702344079268926  1.0000
  O   O17       1.0  0.5562888893324002  0.21846017626961609  0.8352791411464153  1.0000
  O   O18       1.0  0.5591774033107272  0.3642170111851258  0.6899173551945239  1.0000
  O   O19       1.0  0.6769870025813705  0.1646278469164884  0.7800339870373847  1.0000
  O   O20       1.0  0.39395682845238894  0.37490792388075517  0.8323101047914534  1.0000
  O   O21       1.0  0.38246101255015225  0.21940019565836613  0.8384773599924884  1.0000
  O   O22       1.0  0.5431379688904768  0.0953742843656187  0.6971968825912215  1.0000
  O   O23       1.0  0.38456401161551684  0.16715393566689576  0.7783369065269099  1.0000
  O   O24       1.0  0.6655949466444896  0.09504246655615838  0.6994813029144995  1.0000
  O   O25       1.0  0.3882907823528826  0.36432982468495817  0.6903330998984458  1.0000
  O   O26       1.0  0.3818681668533517  0.25142258582824445  0.692640722294243  1.0000
  O   O27       1.0  0.5011058119289445  0.7500472070709705  0.2500348324534016  1.0000
  O   O28       1.0  0.3876621333190543  0.7171286738443571  0.337625215884195  1.0000
  O   O29       1.0  0.5418719543359815  0.5945596999780705  0.19891417886607604  1.0000
  O   O30       1.0  0.6739176698097253  0.6670243912233644  0.2784237738149785  1.0000
  O   O31       1.0  0.38180645136100133  0.6657680996086626  0.2792481431925964  1.0000
  O   O32       1.0  0.5585657554233381  0.7165072990942958  0.3370962721148345  1.0000
  O   O33       1.0  0.6655854214628221  0.5954295706660061  0.19756040238576134  1.0000
  O   O34       1.0  0.6772466571746637  0.7510784365880027  0.19171441418897933  1.0000
  O   O35       1.0  0.3941105584856575  0.9356147186638988  0.2713647498498091  1.0000
  O   O36       1.0  0.5566249076984136  0.8615184572400024  0.19177667875037943  1.0000
  O   O37       1.0  0.3974590067744474  0.8726073534097478  0.33267214896243763  1.0000
  O   O38       1.0  0.38456875729001183  0.7517224847565913  0.1940266173892695  1.0000
  O   O39       1.0  0.38247108598222485  0.8680212969926868  0.19034737689793954  1.0000
  O   O40       1.0  0.0002877010129439766  0.9999506886968701  0.9999315714057458  1.0000
  O   O41       1.0  0.1115278379489767  0.8862384392767737  0.0597965396788567  1.0000
  O   O42       1.0  0.9605102487704189  0.15411429003376037  0.05113284539226728  1.0000
  O   O43       1.0  0.8257875654037151  0.9994852709601929  0.05660885641454172  1.0000
  O   O44       1.0  0.12085644274416299  0.9978854963275269  0.055917945328793905  1.0000
  O   O45       1.0  0.9409494868090109  0.88560592678121  0.05982930696944775  1.0000
  O   O46       1.0  0.8359720368785093  0.1555101725376389  0.051856495561196383  1.0000
  O   O47       1.0  0.82642703892234  0.08489075872680017  0.9713541009958603  1.0000
  O   O48       1.0  0.10281368349949112  0.8752265782126685  0.9176356130262491  1.0000
  O   O49       1.0  0.9415442799857632  0.031531348468306006  0.9128600006340336  1.0000
  O   O50       1.0  0.10185919081720127  0.8145660765684255  0.979739475504843  1.0000
  O   O51       1.0  0.12076183248005633  0.0829652118198396  0.9706468523289972  1.0000
  O   O52       1.0  0.11223150950149832  0.0318308767895275  0.9130144508126747  1.0000
  F   F1        1.0  0.6807956197907997  0.7848430216387996  0.5948215804666364  1.0000
  F   F2        1.0  0.8185981837477815  0.9651008880325025  0.6552600148466183  1.0000
  F   F3        1.0  0.18916008280464083  0.2795944835791602  0.341677493911007  1.0000
  F   F4        1.0  0.31112973156614776  0.9690118820928858  0.40909132259141495  1.0000
  F   F5        1.0  0.31112958368129995  0.5985110078558122  0.7804444213588297  1.0000
  F   F6        1.0  0.18876779774951316  0.6516524441131892  0.969529982674686  1.0000
  F   F7        1.0  0.562233852437636  0.4655011650543415  0.15530749536963379  1.0000
  F   F8        1.0  0.9403969419145002  0.28397549389411836  0.09444266620157288  1.0000
