data_image0
_chemical_formula_structural       H30Pb2C40N6O10
_chemical_formula_sum              "H30 Pb2 C40 N6 O10"
_cell_length_a       8.224182681398455
_cell_length_b       9.910152661385501
_cell_length_c       11.660251196141974
_cell_angle_alpha    95.84074976123058
_cell_angle_beta     101.93749195744734
_cell_angle_gamma    96.48584980482383

_space_group_name_H-M_alt    "P 1"
_space_group_IT_number       1

loop_
  _space_group_symop_operation_xyz
  'x, y, z'

loop_
  _atom_site_type_symbol
  _atom_site_label
  _atom_site_symmetry_multiplicity
  _atom_site_fract_x
  _atom_site_fract_y
  _atom_site_fract_z
  _atom_site_occupancy
  H   H1        1.0  0.9845674379617008  0.850074773094548  0.6510850531176118  1.0000
  H   H2        1.0  0.015430158188749512  0.14992525533239842  0.3489118785148406  1.0000
  H   H3        1.0  0.974584738275375  0.09400950699306071  0.7246488482112381  1.0000
  H   H4        1.0  0.025417999028135834  0.9059915238818875  0.2753471971417767  1.0000
  H   H5        1.0  0.18838120783077977  0.2779790916952933  0.6914837693040565  1.0000
  H   H6        1.0  0.8116236622850009  0.7220198771959332  0.30851497623856966  1.0000
  H   H7        1.0  0.40633800992752356  0.2163568638359975  0.5832594802860738  1.0000
  H   H8        1.0  0.5936697033542016  0.7836441416230073  0.4167398532244134  1.0000
  H   H9        1.0  0.6377659443844691  0.781728465917304  0.6855171415634941  1.0000
  H   H10       1.0  0.3622314836702998  0.2182705354047699  0.3144831065337641  1.0000
  H   H11       1.0  0.8582141648720238  0.9305062886443736  0.8395392879095239  1.0000
  H   H12       1.0  0.14178255779513188  0.0694957914271583  0.16046026992627557  1.0000
  H   H13       1.0  0.9110544398513554  0.8809489035313054  0.04804625362773156  1.0000
  H   H14       1.0  0.08893925694996338  0.11905011666295451  0.95195174284445  1.0000
  H   H15       1.0  0.7420085270117693  0.6801360349891611  0.10196199583361927  1.0000
  H   H16       1.0  0.2579890662178456  0.319863994196858  0.8980340778267218  1.0000
  H   H17       1.0  0.9213366574133132  0.485512077238923  0.26571934011213466  1.0000
  H   H18       1.0  0.07866361672823531  0.5144889598918497  0.7342823539251027  1.0000
  H   H19       1.0  0.07486537103554984  0.5515335160756722  0.20864395186645618  1.0000
  H   H20       1.0  0.9251345347853785  0.4484654751951922  0.7913549374071421  1.0000
  H   H21       1.0  0.29970191183102907  0.7598182212834814  0.295674998519189  1.0000
  H   H22       1.0  0.7002914283330313  0.24017875001457165  0.7043236250778122  1.0000
  H   H23       1.0  0.4648663907666801  0.932383924793378  0.21323647332384604  1.0000
  H   H24       1.0  0.5351287393009726  0.06761611064846561  0.7867652490207105  1.0000
  H   H25       1.0  0.20240060997850412  0.738151545099271  0.8638747240623061  1.0000
  H   H26       1.0  0.7976025073289889  0.2618515285992871  0.1361275579427925  1.0000
  H   H27       1.0  0.04157626865480781  0.5783168767267243  0.9605652285615561  1.0000
  H   H28       1.0  0.9584277192151446  0.4216841460863137  0.03943356926807695  1.0000
  H   H29       1.0  0.4033619196712408  0.9340663198151732  0.8754552559210109  1.0000
  H   H30       1.0  0.5966399529114879  0.06593676042713532  0.12454598955169156  1.0000
  Pb  Pb1       1.0  0.23132654962805077  0.46174688908942596  0.4540016458474483  1.0000
  Pb  Pb2       1.0  0.7686753033844198  0.5382490176473029  0.5459981122478936  1.0000
  C   C1        1.0  0.19738998117541945  0.7492924156484836  0.5300127615717756  1.0000
  C   C2        1.0  0.8026101161079281  0.2507075966546424  0.46998967501392735  1.0000
  C   C3        1.0  0.1955632024648111  0.8960055451198343  0.5737219076660905  1.0000
  C   C4        1.0  0.8044455816043052  0.10399442820869352  0.42628006289737636  1.0000
  C   C5        1.0  0.07560623942413976  0.9316609520771382  0.6364910532736161  1.0000
  C   C6        1.0  0.924397928224863  0.06834109480447381  0.3635078599796698  1.0000
  C   C7        1.0  0.0719142194175433  0.0677587947067408  0.678872294583577  1.0000
  C   C8        1.0  0.9280885324901644  0.9322422323728219  0.32112804063000056  1.0000
  C   C9        1.0  0.19068410874259456  0.1708522713905012  0.6601527300874677  1.0000
  C   C10       1.0  0.8093229049931877  0.8291518112998091  0.3398476291057974  1.0000
  C   C11       1.0  0.31258368058048797  0.13757060457124484  0.5991850309482841  1.0000
  C   C12       1.0  0.6874187234524954  0.8624283713348793  0.4008185053064465  1.0000
  C   C13       1.0  0.3150305815365186  0.0007992422662468006  0.5552635317651137  1.0000
  C   C14       1.0  0.6849746402504591  0.9991945982202284  0.444737389135902  1.0000
  C   C15       1.0  0.44817868721695925  0.5477403856631327  0.711628472217221  1.0000
  C   C16       1.0  0.5518180296085049  0.4522616959265522  0.2883693696743562  1.0000
  C   C17       1.0  0.571881076372172  0.6442876180557208  0.8059422124170225  1.0000
  C   C18       1.0  0.42810977726320226  0.35570936557076044  0.19405519608729088  1.0000
  C   C19       1.0  0.6640194088498177  0.7583892412865583  0.7765659093219597  1.0000
  C   C20       1.0  0.3359854808362214  0.2416169011102483  0.22343432359802048  1.0000
  C   C21       1.0  0.7855861777182015  0.8429532100211435  0.8633547050244132  1.0000
  C   C22       1.0  0.21440342827156658  0.1570437809081682  0.13664080897539319  1.0000
  C   C23       1.0  0.8147188259754614  0.8155048166996935  0.9806665881623076  1.0000
  C   C24       1.0  0.18528411155298838  0.18449723293029052  0.019335578419145304  1.0000
  C   C25       1.0  0.7216556602379499  0.7045272561792901  0.011560146106326467  1.0000
  C   C26       1.0  0.27834302714578735  0.29547173480364824  0.9884454283838976  1.0000
  C   C27       1.0  0.5995515843791351  0.6188076760120823  0.9244288214834029  1.0000
  C   C28       1.0  0.4004440537720413  0.3811882611661945  0.0755683278662929  1.0000
  C   C29       1.0  0.2798356391348733  0.7588536894936058  0.20003388941001526  1.0000
  C   C30       1.0  0.7201553913587162  0.2411443189605223  0.7999627765458326  1.0000
  C   C31       1.0  0.3732545740588122  0.8555400878423787  0.15304950511735874  1.0000
  C   C32       1.0  0.6267419775918127  0.14446096588336135  0.8469525112111285  1.0000
  C   C33       1.0  0.34828427911703835  0.8519794892557541  0.029536919082708744  1.0000
  C   C34       1.0  0.6517104884716785  0.14801849880802823  0.9704637144424452  1.0000
  C   C35       1.0  0.22700706127007214  0.7482738182919989  0.960120653535796  1.0000
  C   C36       1.0  0.7729935724295771  0.2517292669759144  0.039881271348733045  1.0000
  C   C37       1.0  0.13783606320223638  0.6566538019207471  0.014690512788142486  1.0000
  C   C38       1.0  0.8621632974398636  0.34334211866256237  0.9853063142702965  1.0000
  C   C39       1.0  0.4393519862845849  0.9487655597609861  0.9719948679233638  1.0000
  C   C40       1.0  0.5606488330357989  0.0512385480573414  0.02800888832904037  1.0000
  N   N1        1.0  0.42573518355445117  0.9711183303889543  0.48066797083793483  1.0000
  N   N2        1.0  0.5742698780237419  0.028881659534533796  0.519334322016789  1.0000
  N   N3        1.0  0.5059911256615307  0.4997986121817846  0.9468625316069178  1.0000
  N   N4        1.0  0.49400559700562496  0.5002034678897473  0.053137026228881674  1.0000
  N   N5        1.0  0.16218765632790882  0.6605900418332028  0.13260393239345797  1.0000
  N   N6        1.0  0.8378122582555463  0.339408947160436  0.8673975307964807  1.0000
  O   O1        1.0  0.06520886435875892  0.6635409530152714  0.5180890745759682  1.0000
  O   O2        1.0  0.934795143957082  0.33646006448423554  0.48191572905845687  1.0000
  O   O3        1.0  0.33193354830698507  0.7132109015197232  0.5052190301338156  1.0000
  O   O4        1.0  0.6680677790969226  0.28678910803503044  0.4947801531237133  1.0000
  O   O5        1.0  0.2935970282151743  0.533211856917177  0.7105430590665306  1.0000
  O   O6        1.0  0.7064039337889482  0.4667861060185886  0.2894541773994773  1.0000
  O   O7        1.0  0.5097645062874676  0.48549144078130985  0.6317460408157557  1.0000
  O   O8        1.0  0.49023239031704696  0.5145116648769419  0.36825191649946726  1.0000
  O   O9        1.0  0.03861366962951253  0.4812816949152038  0.2602558959898076  1.0000
  O   O10       1.0  0.961386604512043  0.5187193422155688  0.7397457980474298  1.0000
