data_image0
_chemical_formula_structural       Zn2H52C54N2Cl2O8
_chemical_formula_sum              "Zn2 H52 C54 N2 Cl2 O8"
_cell_length_a       13.929791336836827
_cell_length_b       15.30142857518461
_cell_length_c       16.13967637230276
_cell_angle_alpha    90.209062829543
_cell_angle_beta     89.92357713361795
_cell_angle_gamma    89.85328687423517

_space_group_name_H-M_alt    "P 1"
_space_group_IT_number       1

loop_
  _space_group_symop_operation_xyz
  'x, y, z'

loop_
  _atom_site_type_symbol
  _atom_site_label
  _atom_site_symmetry_multiplicity
  _atom_site_fract_x
  _atom_site_fract_y
  _atom_site_fract_z
  _atom_site_occupancy
  Zn  Zn1       1.0  0.5991064746508101  0.5027652341782272  0.4998905972540442  1.0000
  Zn  Zn2       1.0  0.4011938568306945  0.4983292521196532  0.49933669474192727  1.0000
  H   H1        1.0  0.24968764954475384  0.429110395765818  0.6102323243098837  1.0000
  H   H2        1.0  0.933385829202372  0.5774846879861144  0.6101909527099278  1.0000
  H   H3        1.0  0.24796425021566648  0.5694523799495241  0.3912652691724005  1.0000
  H   H4        1.0  0.7524746066465722  0.5771771975507249  0.6059246152792069  1.0000
  H   H5        1.0  0.4366965515294439  0.7448873018463331  0.9623759193706292  1.0000
  H   H6        1.0  0.32807283764154954  0.6853416209043174  0.9551071919512919  1.0000
  H   H7        1.0  0.3382849645842398  0.7727504662275847  0.0272038177561171  1.0000
  H   H8        1.0  0.3527159405223301  0.6324707955990336  0.10378895196858197  1.0000
  H   H9        1.0  0.4635541083390465  0.6868709020496053  0.1070963256506872  1.0000
  H   H10       1.0  0.6720737613632082  0.30863930907366927  0.0436951808692214  1.0000
  H   H11       1.0  0.5630298430068309  0.24980016572072836  0.0359672423006572  1.0000
  H   H12       1.0  0.7503907096717128  0.4245798777947344  0.3934270854946077  1.0000
  H   H13       1.0  0.6611980138490097  0.2219549884094221  0.9709104169505236  1.0000
  H   H14       1.0  0.5365898543357375  0.30914383860444156  0.8917022626317106  1.0000
  H   H15       1.0  0.6477261214876293  0.36285751514972725  0.8953593712473378  1.0000
  H   H16       1.0  0.6032481320317657  0.7333210686354192  0.04065445086166619  1.0000
  H   H17       1.0  0.7009830711618577  0.6593166014803559  0.0473476690417911  1.0000
  H   H18       1.0  0.7052403606223338  0.7475578003019762  0.9762710961692561  1.0000
  H   H19       1.0  0.6685026990001222  0.6115090114519787  0.8978463508196055  1.0000
  H   H20       1.0  0.5676373056714397  0.6805570248410077  0.8953372394578237  1.0000
  H   H21       1.0  0.299003971491679  0.3365922727858787  0.9531144113397687  1.0000
  H   H22       1.0  0.396766362347698  0.2625454026383379  0.9591023890102051  1.0000
  H   H23       1.0  0.3343103222896957  0.509674344438352  0.9509212915277132  1.0000
  H   H24       1.0  0.295249597172024  0.24823685428195566  0.0240723883388085  1.0000
  H   H25       1.0  0.4333674678040822  0.3150073477891127  0.10441953015950389  1.0000
  H   H26       1.0  0.33270080266131424  0.3842976391743989  0.10235262036727019  1.0000
  H   H27       1.0  0.5959344533772892  0.9331608642608842  0.2705020569444726  1.0000
  H   H28       1.0  0.5822848399098889  0.037653990278101894  0.3174464071731648  1.0000
  H   H29       1.0  0.6961229183896548  0.0044653171519187  0.2790229633551036  1.0000
  H   H30       1.0  0.68889489622466  0.9937965914933147  0.433821129864043  1.0000
  H   H31       1.0  0.7115446251528326  0.8915993361999028  0.3868253856889793  1.0000
  H   H32       1.0  0.41735433038555664  0.06714391817605761  0.266933939206389  1.0000
  H   H33       1.0  0.42751525351341974  0.9627786513483513  0.3139461967341503  1.0000
  H   H34       1.0  0.666563027714666  0.48569698357778884  0.04861390880225259  1.0000
  H   H35       1.0  0.3163428432991608  0.9964245627903806  0.2708315305208515  1.0000
  H   H36       1.0  0.3143016564173636  0.0075387251245758015  0.42582513320444787  1.0000
  H   H37       1.0  0.29508947790870377  0.10966386037589612  0.378338444894382  1.0000
  H   H38       1.0  0.25954907249098363  0.7233333283525739  0.4982491281247761  1.0000
  H   H39       1.0  0.2248853633712713  0.831239551111814  0.5277152108821497  1.0000
  H   H40       1.0  0.1997576503372969  0.74182385526165  0.5944735631144978  1.0000
  H   H41       1.0  0.3743777960096182  0.7173835425390395  0.6178216104801422  1.0000
  H   H42       1.0  0.3417567402434685  0.8252214441455267  0.6464382350337485  1.0000
  H   H43       1.0  0.6412309697791799  0.27995910589306305  0.7255749483554224  1.0000
  H   H44       1.0  0.5380395585630994  0.3048836705389632  0.6661869876152551  1.0000
  H   H45       1.0  0.6238996328946483  0.770421430127314  0.42083116434291407  1.0000
  H   H46       1.0  0.5506752237375423  0.1994175639109272  0.7104426996755747  1.0000
  H   H47       1.0  0.6942333918351197  0.17010842490531528  0.6186496011922741  1.0000
  H   H48       1.0  0.6808375354142624  0.2753536046549812  0.5740261067117416  1.0000
  H   H49       1.0  0.3818172536701426  0.23059200135347166  0.41582270315916486  1.0000
  H   H50       1.0  0.3771606162896362  0.9494512624800463  0.560403478660831  1.0000
  H   H51       1.0  0.6189449018814129  0.051113523172055905  0.5651059898584379  1.0000
  H   H52       1.0  0.0670613163853773  0.5713397224047371  0.38728925717833107  1.0000
  C   C1        1.0  0.4998586712365878  0.6712031200539387  0.49825905816755517  1.0000
  C   C2        1.0  0.5683779340613527  0.09138791863487938  0.5302159105573025  1.0000
  C   C3        1.0  0.5002382462616026  0.9517420091254111  0.4806571992636463  1.0000
  C   C4        1.0  0.5000045323982577  0.048974495205356995  0.4808279687707254  1.0000
  C   C5        1.0  0.1049881168636233  0.5389798167847814  0.4376198455574567  1.0000
  C   C6        1.0  0.8953473998420592  0.5428591437388235  0.5611804017746067  1.0000
  C   C7        1.0  0.20459891964772237  0.5388273265839629  0.43935095066535707  1.0000
  C   C8        1.0  0.7957330290084955  0.543427188383454  0.559335801357804  1.0000
  C   C9        1.0  0.20629729375719558  0.4594727585531828  0.5619638382877951  1.0000
  C   C10       1.0  0.7938619288843752  0.457388818256483  0.4402865540117702  1.0000
  C   C11       1.0  0.1061234161201696  0.456923713491129  0.5639262500592748  1.0000
  C   C12       1.0  0.5017265417717809  0.3297487683884412  0.4984948563656957  1.0000
  C   C13       1.0  0.8940382948666963  0.4541619345640697  0.43838718969688256  1.0000
  C   C14       1.0  0.0532681316180046  0.49743006410198387  0.5006459751552936  1.0000
  C   C15       1.0  0.9469957452980963  0.49771569550003397  0.49991472192353104  1.0000
  C   C16       1.0  0.49944772345559574  0.4992351995129098  0.33669895183285786  1.0000
  C   C17       1.0  0.4999385853335455  0.5006395499421714  0.6627918680565655  1.0000
  C   C18       1.0  0.5526014527126861  0.5675380615992296  0.971708294099521  1.0000
  C   C19       1.0  0.44823992232711873  0.42794635313588003  0.027874956810677493  1.0000
  C   C20       1.0  0.4602398598186355  0.5737226153122066  0.028991624534533897  1.0000
  C   C21       1.0  0.5405413486420514  0.4217231273108126  0.9704918349825957  1.0000
  C   C22       1.0  0.5005122121271698  0.4981833569122712  0.24744649968193497  1.0000
  C   C23       1.0  0.5686588062828903  0.8111468625813388  0.4497474866933686  1.0000
  C   C24       1.0  0.4994831190493016  0.49972453230864033  0.7520352137997506  1.0000
  C   C25       1.0  0.5926132597869297  0.49107956278524517  0.026006532059305698  1.0000
  C   C26       1.0  0.4082527087461756  0.5043512250067224  0.9735183044830933  1.0000
  C   C27       1.0  0.5026787518673858  0.49709718775193323  0.0844879951514557  1.0000
  C   C28       1.0  0.4981443307736982  0.49848911332579604  0.9150273970885578  1.0000
  C   C29       1.0  0.5025396413172132  0.4973219011102259  0.1719316805541524  1.0000
  C   C30       1.0  0.49804988125131905  0.49896749525336753  0.8275864969103138  1.0000
  C   C31       1.0  0.5731167999308794  0.9018863323479493  0.4417314805369229  1.0000
  C   C32       1.0  0.4300045834715931  0.09893854599563671  0.43902110190372656  1.0000
  C   C33       1.0  0.41323165911700954  0.6539302431568572  0.0646451448348202  1.0000
  C   C34       1.0  0.4348533674863049  0.18983881774737904  0.4472148403578585  1.0000
  C   C35       1.0  0.3771558240981037  0.7177526248120288  0.9987287374587909  1.0000
  C   C36       1.0  0.5870930877886592  0.3414868170782909  0.9344149487371993  1.0000
  C   C37       1.0  0.6227437140234855  0.27692413507614333  0.999832837001634  1.0000
  C   C38       1.0  0.6120301622831692  0.6407070275021949  0.9373049321050927  1.0000
  C   C39       1.0  0.6578297988068513  0.6984008100479925  0.004056163164349898  1.0000
  C   C40       1.0  0.3888156862513553  0.35493517380501777  0.06261455946724938  1.0000
  C   C41       1.0  0.34247640951984687  0.2973876883631945  0.9960681755264601  1.0000
  C   C42       1.0  0.6562487078226341  0.942384534237533  0.395263011990444  1.0000
  C   C43       1.0  0.6309898378990723  0.9816195422953983  0.31071865457884934  1.0000
  C   C44       1.0  0.3495116795947339  0.0586771742756653  0.3889282828106602  1.0000
  C   C45       1.0  0.4965539906267935  0.7688755383186318  0.49507608250004137  1.0000
  C   C46       1.0  0.37960121352689674  0.019030764995427798  0.30540878017276896  1.0000
  C   C47       1.0  0.35026200207577324  0.7804816728837596  0.5932637314309872  1.0000
  C   C48       1.0  0.25268461893289645  0.7685825196255605  0.5508265034790084  1.0000
  C   C49       1.0  0.6415648894398769  0.2207725761458619  0.601929164328979  1.0000
  C   C50       1.0  0.5899655823863625  0.2530382131478959  0.6805729175991644  1.0000
  C   C51       1.0  0.5044418705892043  0.2319264502080857  0.49549146827730073  1.0000
  C   C52       1.0  0.4258349579582728  0.8184567168782877  0.5366157886750926  1.0000
  C   C53       1.0  0.572464918259982  0.18209813081403334  0.5397854819000043  1.0000
  C   C54       1.0  0.42963243190504835  0.9092306448725083  0.5272139715920616  1.0000
  N   N1        1.0  0.25346077972801606  0.49955254480650507  0.5006662619598643  1.0000
  N   N2        1.0  0.7467939172644051  0.5012278685876908  0.49970337687138766  1.0000
  Cl  Cl1       1.0  0.0507445023361655  0.40168847938186764  0.6435250993504269  1.0000
  Cl  Cl2       1.0  0.9492948449014663  0.3944499332097635  0.3611068131119382  1.0000
  O   O1        1.0  0.5825305963506011  0.6352315309924991  0.4968507913071107  1.0000
  O   O2        1.0  0.4191954756742078  0.365926544704223  0.49629936078993336  1.0000
  O   O3        1.0  0.4199962344701902  0.6307193954273416  0.500731056016157  1.0000
  O   O4        1.0  0.5816374052112677  0.37007314780832695  0.5016036512456594  1.0000
  O   O5        1.0  0.5809611159577415  0.4974952746426596  0.3725874046041112  1.0000
  O   O6        1.0  0.41847692395217  0.4950057418305391  0.6270568790376245  1.0000
  O   O7        1.0  0.4172794821241864  0.5018954050188283  0.3716150434576376  1.0000
  O   O8        1.0  0.5815940091281818  0.5068871612896403  0.6274847232358454  1.0000
