data_image0
_chemical_formula_structural       Cu4H24C28S12I4O16
_chemical_formula_sum              "Cu4 H24 C28 S12 I4 O16"
_cell_length_a       4.031661936149106
_cell_length_b       9.123150850058748
_cell_length_c       31.76924052980434
_cell_angle_alpha    89.99984040170666
_cell_angle_beta     89.99916707689924
_cell_angle_gamma    89.99957552498574

_space_group_name_H-M_alt    "P 1"
_space_group_IT_number       1

loop_
  _space_group_symop_operation_xyz
  'x, y, z'

loop_
  _atom_site_type_symbol
  _atom_site_label
  _atom_site_symmetry_multiplicity
  _atom_site_fract_x
  _atom_site_fract_y
  _atom_site_fract_z
  _atom_site_occupancy
  Cu  Cu1       1.0  0.42549293025481927  0.6569936347755885  0.4804530515110342  1.0000
  Cu  Cu2       1.0  0.92551395434252  0.8430105097982689  0.5195513222897716  1.0000
  Cu  Cu3       1.0  0.5744804442530622  0.1569873886592461  0.019549427854499892  1.0000
  Cu  Cu4       1.0  0.07448595241933019  0.3430049710719842  0.9804506743994137  1.0000
  H   H1        1.0  0.049694333908689714  0.44931058473827784  0.2512084818891935  1.0000
  H   H2        1.0  0.54965232684021  0.0506873456849632  0.7487935565519022  1.0000
  H   H3        1.0  0.9503813334151019  0.9493138459940268  0.24879564834360923  1.0000
  H   H4        1.0  0.4503519430141906  0.5506891121592261  0.7512036414671852  1.0000
  H   H5        1.0  0.05204319882759731  0.6318022556764546  0.27230617137129787  1.0000
  H   H6        1.0  0.551976451562254  0.8682065342306513  0.7276923083927967  1.0000
  H   H7        1.0  0.9480570505586599  0.13179705101418898  0.22769255111390405  1.0000
  H   H8        1.0  0.4480156382483926  0.368202720441431  0.7723058905805755  1.0000
  H   H9        1.0  0.6773156137134534  0.5571186904960471  0.250904083435401  1.0000
  H   H10       1.0  0.1772557981895844  0.9428885481460155  0.7490951004363351  1.0000
  H   H11       1.0  0.32278823092054404  0.05711116891815489  0.24909060775568992  1.0000
  H   H12       1.0  0.8227475787520006  0.44288248099825006  0.7509049264308485  1.0000
  H   H13       1.0  0.37457713870690407  0.8142911092862875  0.3025136237353791  1.0000
  H   H14       1.0  0.8745710073394122  0.6857044514371395  0.6974877000215469  1.0000
  H   H15       1.0  0.6254310935427086  0.3142873648029578  0.1974906163340933  1.0000
  H   H16       1.0  0.12544364909837208  0.18570700201637888  0.8025119063790527  1.0000
  H   H17       1.0  0.2464494053924398  0.7198708854222319  0.3500531650206185  1.0000
  H   H18       1.0  0.7464446158751556  0.7801382941509161  0.6499499782496156  1.0000
  H   H19       1.0  0.7535552753227464  0.21985397566042048  0.14995304043935678  1.0000
  H   H20       1.0  0.25356119005765976  0.2801311567668493  0.8500508104693763  1.0000
  H   H21       1.0  0.6777458326902847  0.7510216701888766  0.3395668098944283  1.0000
  H   H22       1.0  0.17774083445910094  0.7489757017657296  0.6604348912629021  1.0000
  H   H23       1.0  0.32225590273852583  0.2510117079223022  0.16043842593070676  1.0000
  H   H24       1.0  0.8222654365964245  0.24897427101318217  0.8395646637086143  1.0000
  C   C1        1.0  0.4451571098518343  0.3443989592497232  0.4357372654736692  1.0000
  C   C2        1.0  0.9451437654212002  0.15561068769017086  0.5642640146791107  1.0000
  C   C3        1.0  0.554825869706562  0.8443834958590202  0.0642625433691535  1.0000
  C   C4        1.0  0.05484157574822039  0.6556055537582779  0.9357368752980901  1.0000
  C   C5        1.0  0.5798654589180643  0.3142066735898226  0.3563323545943503  1.0000
  C   C6        1.0  0.07987813082585402  0.18581854994127409  0.6436674225442899  1.0000
  C   C7        1.0  0.42009564819217354  0.8141755964729072  0.1436652754325962  1.0000
  C   C8        1.0  0.9200869166054914  0.6858077416531073  0.8563334428960585  1.0000
  C   C9        1.0  0.5320987866588637  0.17494449655644218  0.3710466897650163  1.0000
  C   C10       1.0  0.032138283539381994  0.3250863810478393  0.628950031234119  1.0000
  C   C11       1.0  0.4678445561918778  0.6749013290919521  0.12894885011314727  1.0000
  C   C12       1.0  0.967859410593171  0.8250741627282921  0.8710488323332084  1.0000
  C   C13       1.0  0.6452227782272573  0.35651999970217213  0.3117523610710719  1.0000
  C   C14       1.0  0.1451989305836179  0.1435115630879835  0.6882532714122787  1.0000
  C   C15       1.0  0.3547773831399965  0.856494215179616  0.18824617882570743  1.0000
  C   C16       1.0  0.8547642676538344  0.6434926486010255  0.8117532942860206  1.0000
  C   C17       1.0  0.9058260793477756  0.5321355966684391  0.2680578886197296  1.0000
  C   C18       1.0  0.4057727392958057  0.9678741000711284  0.7319433752603288  1.0000
  C   C19       1.0  0.0942582949617332  0.0321279728774257  0.23194154444919945  1.0000
  C   C20       1.0  0.5942228235757697  0.46786979563921693  0.768057575610321  1.0000
  C   C21       1.0  0.5876762817315041  0.0398212434736749  0.34577570643731537  1.0000
  C   C22       1.0  0.087701059426486  0.46020395166793543  0.6542218523241841  1.0000
  C   C23       1.0  0.4122864401550217  0.5397868056669209  0.1542227762011663  1.0000
  C   C24       1.0  0.9123194217819374  0.9601921763023213  0.8457765866023194  1.0000
  C   C25       1.0  0.42637790422117655  0.7947822448958703  0.3359270342093409  1.0000
  C   C26       1.0  0.9263825998052867  0.7052240887339778  0.6640738754407137  1.0000
  C   C27       1.0  0.5736231782500667  0.29476695019955207  0.16407596265262464  1.0000
  C   C28       1.0  0.0736268046149107  0.2052232204186097  0.8359254003272125  1.0000
  S   S1        1.0  0.3821675380698437  0.4120596797470029  0.48362481391267653  1.0000
  S   S2        1.0  0.8821604734390789  0.0879403310187072  0.5163769017834097  1.0000
  S   S3        1.0  0.6177921083501445  0.9120554055838781  0.016373680861129  1.0000
  S   S4        1.0  0.11781843655307261  0.5879388958160375  0.9836243579835011  1.0000
  S   S5        1.0  0.540141809327487  0.4539806492775611  0.39293912848812335  1.0000
  S   S6        1.0  0.04015563499449119  0.04603375743217699  0.6070641872881735  1.0000
  S   S7        1.0  0.4598246524795044  0.9539552576419722  0.10706310944505046  1.0000
  S   S8        1.0  0.9598214200669232  0.5460246477808824  0.8929383656326804  1.0000
  S   S9        1.0  0.42870191749109665  0.15841724757655126  0.4238733653369237  1.0000
  S   S10       1.0  0.9287142563430065  0.3415913630081135  0.5761238543342413  1.0000
  S   S11       1.0  0.57125159334538  0.6583961307178257  0.076121873189102  1.0000
  S   S12       1.0  0.07128567175276862  0.8415884747506013  0.9238749958088018  1.0000
  I   I1        1.0  0.9224258922448029  0.7737037046324887  0.4388959786853233  1.0000
  I   I2        1.0  0.4224420850452901  0.7262807210780976  0.5611061976196792  1.0000
  I   I3        1.0  0.0775407796474497  0.27370982860061593  0.06110483194836289  1.0000
  I   I4        1.0  0.5775422012912514  0.22628142390529862  0.9388955792119373  1.0000
  O   O1        1.0  0.5365948112113229  0.2931617516026464  0.2808559387151917  1.0000
  O   O2        1.0  0.0365616577529551  0.2068526681107912  0.719140773739653  1.0000
  O   O3        1.0  0.4634410208724304  0.7931396620112139  0.21914265265535698  1.0000
  O   O4        1.0  0.963422918698548  0.7068511914266364  0.7808585007283071  1.0000
  O   O5        1.0  0.8309964398324609  0.4798060223017942  0.3103577022914975  1.0000
  O   O6        1.0  0.33096435748290526  0.0202204811202549  0.6896447410724704  1.0000
  O   O7        1.0  0.16903908696319553  0.9797754187866871  0.18964231119271344  1.0000
  O   O8        1.0  0.6690155632837075  0.520209927610253  0.8103565737525782  1.0000
  O   O9        1.0  0.7891878728832394  0.030356081736052  0.31725516266232745  1.0000
  O   O10       1.0  0.28920689057793686  0.4696650929714822  0.6827382324916228  1.0000
  O   O11       1.0  0.21079483326322898  0.5303297766971865  0.1827411242596  1.0000
  O   O12       1.0  0.7108258515542475  0.9696554179101539  0.8172545328726598  1.0000
  O   O13       1.0  0.3932800759067234  0.9298429876507726  0.3593276333897818  1.0000
  O   O14       1.0  0.8932744802913247  0.5701700429318777  0.6406714511095614  1.0000
  O   O15       1.0  0.6067239517278084  0.42982121930653955  0.1406727355102433  1.0000
  O   O16       1.0  0.1067245380896793  0.0701600621652929  0.8593266753897735  1.0000
