data_image0
_chemical_formula_structural       Hf6H32C50O32
_chemical_formula_sum              "Hf6 H32 C50 O32"
_cell_length_a       9.280790348841274
_cell_length_b       17.75216302383487
_cell_length_c       28.995550807556835
_cell_angle_alpha    93.57610820278869
_cell_angle_beta     96.76337298918065
_cell_angle_gamma    91.00751447470445

_space_group_name_H-M_alt    "P 1"
_space_group_IT_number       1

loop_
  _space_group_symop_operation_xyz
  'x, y, z'

loop_
  _atom_site_type_symbol
  _atom_site_label
  _atom_site_symmetry_multiplicity
  _atom_site_fract_x
  _atom_site_fract_y
  _atom_site_fract_z
  _atom_site_occupancy
  Hf  Hf1       1.0  0.0335211809001592  0.8862671055380388  0.0465244523763886  1.0000
  Hf  Hf2       1.0  0.9732809185021765  0.10377996656305301  0.9564541060236424  1.0000
  Hf  Hf3       1.0  0.8757438680594872  0.054891473417647815  0.06038041030838311  1.0000
  Hf  Hf4       1.0  0.13677114055375483  0.9284593355957543  0.9385846628830594  1.0000
  Hf  Hf5       1.0  0.7620817984665607  0.9358971272539948  0.959794085114709  1.0000
  Hf  Hf6       1.0  0.25617747162088017  0.051149640587944106  0.03992795632341031  1.0000
  H   H1        1.0  0.9514529438895138  0.8118600661890486  0.9574978957600994  1.0000
  H   H2        1.0  0.6854393102500893  0.09078096476726931  0.9798838788532085  1.0000
  H   H3        1.0  0.2672168741692857  0.07756986404116621  0.945893055600138  1.0000
  H   H4        1.0  0.1349511811485868  0.005876539378356  0.11745591647997602  1.0000
  H   H5        1.0  0.4649888921612799  0.9267834005083343  0.9704273760494576  1.0000
  H   H6        1.0  0.9751090508881078  0.1957486567756277  0.08743903999280894  1.0000
  H   H7        1.0  0.30450969885433915  0.1549534637800249  0.10745257994395983  1.0000
  H   H8        1.0  0.718190523218766  0.8172334071122835  0.8904605243711361  1.0000
  H   H9        1.0  0.8866719547168884  0.8571733698606893  0.8857570067469782  1.0000
  H   H10       1.0  0.41668995579299656  0.9537107199594531  0.9132566808561509  1.0000
  H   H11       1.0  0.5396247991762451  0.10025764168494791  0.032027145235979014  1.0000
  H   H12       1.0  0.6283935694925445  0.969139316491038  0.8818732399597382  1.0000
  H   H13       1.0  0.8406175469950625  0.1549431640511543  0.8755122563297139  1.0000
  H   H14       1.0  0.20823130158915157  0.7951296677101212  0.09919792269357693  1.0000
  H   H15       1.0  0.4636224208796236  0.9922161883837503  0.09333267784404602  1.0000
  H   H16       1.0  0.051855271016265185  0.8668852502509666  0.853426740013177  1.0000
  H   H17       1.0  0.7668930443199997  0.19231910215914644  0.9185327192589627  1.0000
  H   H18       1.0  0.6488032683297503  0.11462440458973328  0.09816400314588952  1.0000
  H   H19       1.0  0.5159101280555377  0.941882987934676  0.0268201317738459  1.0000
  H   H20       1.0  0.4984984101709458  0.030884731082551305  0.9968942208362821  1.0000
  H   H21       1.0  0.9244327335560458  0.168434289767994  0.13471379392829164  1.0000
  H   H22       1.0  0.09903971696746788  0.8338466968340229  0.13220599108360895  1.0000
  H   H23       1.0  0.7638448955965487  0.5077220677256803  0.013191402055632294  1.0000
  H   H24       1.0  0.22431061777704286  0.4887247725750754  0.9880725887074322  1.0000
  H   H25       1.0  0.13803490022106502  0.9455357452444562  0.28942789488350945  1.0000
  H   H26       1.0  0.9481187285669461  0.9654723263620254  0.4182347030930274  1.0000
  H   H27       1.0  0.6713791849306147  0.9481679431989959  0.2874857263590301  1.0000
  H   H28       1.0  0.3000487949851873  0.0537085217999476  0.7139367084906783  1.0000
  H   H29       1.0  0.0269760428132244  0.03448177779518601  0.5824589296007262  1.0000
  H   H30       1.0  0.8331029583398433  0.0571118799911758  0.7104482610694094  1.0000
  H   H31       1.0  0.7523706868914389  0.0009625088688097003  0.4983102091617655  1.0000
  H   H32       1.0  0.21978814202510924  0.9989713064686683  0.5025267204781799  1.0000
  C   C1        1.0  0.7586479868354985  0.7778731408034716  0.010468307386332806  1.0000
  C   C2        1.0  0.21687311369880297  0.7680415089471353  0.9913422668362206  1.0000
  C   C3        1.0  0.8757041117641503  0.9452830674293579  0.1421350218374116  1.0000
  C   C4        1.0  0.8539902351928389  0.2567283882580967  0.016030932237256903  1.0000
  C   C5        1.0  0.2244980139636468  0.21968366640084722  0.9952104648842667  1.0000
  C   C6        1.0  0.08925045720408781  0.051414565748956406  0.8581199776721535  1.0000
  C   C7        1.0  0.5662228915808641  0.569521947037508  0.0037812760320364027  1.0000
  C   C8        1.0  0.41119779334959355  0.5643670052648561  0.9962288063250287  1.0000
  C   C9        1.0  0.3423652987705239  0.49310132875054796  0.9932042303676101  1.0000
  C   C10       1.0  0.42224811455621847  0.42677738379006774  0.9968732653669294  1.0000
  C   C11       1.0  0.5771742256175472  0.4320909874153145  0.003662600302028803  1.0000
  C   C12       1.0  0.6458343828258322  0.5035783532866062  0.007394174657967798  1.0000
  C   C13       1.0  0.9028918594435638  0.9454393832232245  0.2833504076047505  1.0000
  C   C14       1.0  0.043089915690252716  0.9481062328748353  0.30816865416404243  1.0000
  C   C15       1.0  0.059739292615695716  0.9558538854094538  0.35705462891451856  1.0000
  C   C16       1.0  0.9354833280555113  0.9594059586938927  0.3803916499498359  1.0000
  C   C17       1.0  0.7953077728342494  0.9565581467892484  0.35593636112511734  1.0000
  C   C18       1.0  0.7790245965124073  0.949548438115812  0.30707707542492113  1.0000
  C   C19       1.0  0.0680936009783437  0.05701461761267269  0.7173176615999923  1.0000
  C   C20       1.0  0.1929126579227258  0.0522850307769502  0.6940213772039956  1.0000
  C   C21       1.0  0.17809403626653617  0.044448393904900706  0.6451538836387769  1.0000
  C   C22       1.0  0.03846360829553671  0.041301080819565114  0.6202787960664865  1.0000
  C   C23       1.0  0.9135047159534366  0.045483946553837015  0.6432201291687821  1.0000
  C   C24       1.0  0.9286915344899357  0.054137926452497716  0.6920218219864227  1.0000
  C   C25       1.0  0.5435231182222182  0.9861013752579594  0.4574810516387375  1.0000
  C   C26       1.0  0.39047930914346546  0.9855605168951417  0.45864955086607057  1.0000
  C   C27       1.0  0.3367048357529967  0.9994053469297701  0.5015709477479506  1.0000
  C   C28       1.0  0.4286545262294865  0.013885509808503102  0.543356508096082  1.0000
  C   C29       1.0  0.581678046477883  0.014496816206339205  0.542133997029062  1.0000
  C   C30       1.0  0.6354528573145756  0.0005255980872008002  0.49924410388322854  1.0000
  C   C31       1.0  0.6815284665405626  0.0282030165521192  0.5824016930791347  1.0000
  C   C32       1.0  0.7796105511355194  0.03820771659119521  0.6142507437684801  1.0000
  C   C33       1.0  0.2930852805489224  0.0367479782216193  0.6172405414722563  1.0000
  C   C34       1.0  0.3651059316238587  0.0271194088435109  0.5848363602718722  1.0000
  C   C35       1.0  0.290968374018  0.9722446432076313  0.4182134771939304  1.0000
  C   C36       1.0  0.19395191725298844  0.9627275042476527  0.3859662693522808  1.0000
  C   C37       1.0  0.6806854279502234  0.9637456981442653  0.3839722030883551  1.0000
  C   C38       1.0  0.6075752919259827  0.9730585685610296  0.416107534950399  1.0000
  C   C39       1.0  0.2792449925723944  0.6939250430577033  0.9910005529915015  1.0000
  C   C40       1.0  0.33368997105386455  0.6320734657706596  0.9929588331272614  1.0000
  C   C41       1.0  0.6647804344570432  0.36783751153469524  0.006878257040597201  1.0000
  C   C42       1.0  0.7503750686002277  0.31659501859916633  0.01021433802394971  1.0000
  C   C43       1.0  0.2890672990885648  0.2942360769581498  0.9945182952483836  1.0000
  C   C44       1.0  0.3500043232086725  0.3556877688296325  0.9950020606692367  1.0000
  C   C45       1.0  0.6925743771853661  0.7039951217045299  0.010599315173884299  1.0000
  C   C46       1.0  0.6368944086861674  0.6410110138850057  0.007688863897307397  1.0000
  C   C47       1.0  0.0805527537329027  0.06116848547917901  0.7666753853599177  1.0000
  C   C48       1.0  0.0871811588208118  0.06121674864598958  0.8088786221155007  1.0000
  C   C49       1.0  0.886821088007146  0.9413494498971533  0.23395474155439194  1.0000
  C   C50       1.0  0.8736333377554287  0.9406030850841492  0.19162315106191846  1.0000
  O   O1        1.0  0.17046402924497533  0.8430390174323605  0.11062929760890233  1.0000
  O   O2        1.0  0.8687415032962491  0.7937491986584465  0.04057080636481911  1.0000
  O   O3        1.0  0.9229347614544777  0.8894982745924979  0.11957476413414983  1.0000
  O   O4        1.0  0.22130869463253328  0.8063019715590017  0.9565918448289001  1.0000
  O   O5        1.0  0.8343522992009227  0.007928804195415801  0.12565149136278825  1.0000
  O   O6        1.0  0.15992777197229202  0.7873995385108404  0.02882494840053341  1.0000
  O   O7        1.0  0.7027413592302025  0.8196139514815072  0.9791837135934149  1.0000
  O   O8        1.0  0.8547707637327379  0.9494130369841687  0.030679825118696217  1.0000
  O   O9        1.0  0.9650432567388236  0.863567210579305  0.9704068679967082  1.0000
  O   O10       1.0  0.08960764589230762  0.9970370903649982  0.08553366213216414  1.0000
  O   O11       1.0  0.1660184899731121  0.9440866583533422  0.010682288024426589  1.0000
  O   O12       1.0  0.3488911421418734  0.9264515744691129  0.9305590699491905  1.0000
  O   O13       1.0  0.5542306750191627  0.9422947029027215  0.99516773190247  1.0000
  O   O14       1.0  0.9396665835876233  0.9915247348643776  0.937921310741054  1.0000
  O   O15       1.0  0.7734709503778134  0.06243746349152702  0.9868424724560189  1.0000
  O   O16       1.0  0.033686876078746805  0.09170696791019142  0.024528959426291408  1.0000
  O   O17       1.0  0.1940346379292279  0.05308651583248291  0.9615927907910733  1.0000
  O   O18       1.0  0.6854914004037767  0.10827204050210071  0.06816020749710823  1.0000
  O   O19       1.0  0.9387756602190362  0.2589308084716108  0.0532280835000165  1.0000
  O   O20       1.0  0.8480181015666872  0.20686384814791137  0.9815392594137012  1.0000
  O   O21       1.0  0.40533873850583996  0.9709091078339187  0.0653241723779985  1.0000
  O   O22       1.0  0.12392527218017338  0.20021853946358456  0.9619577856458579  1.0000
  O   O23       1.0  0.9772223500140028  0.1520117961948699  0.10899644273818863  1.0000
  O   O24       1.0  0.3177089385557608  0.10090626480373292  0.10349696430802882  1.0000
  O   O25       1.0  0.459938563782984  0.08141513971740008  0.006416884835274996  1.0000
  O   O26       1.0  0.2741438415464472  0.18004122437605471  0.027797236006932707  1.0000
  O   O27       1.0  0.7908973740518945  0.1444931796623123  0.9024433032551402  1.0000
  O   O28       1.0  0.02777906955859071  0.8550171301350532  0.8839159352796673  1.0000
  O   O29       1.0  0.036983895378135394  0.10419290659285002  0.8828461112576422  1.0000
  O   O30       1.0  0.1413561814330677  0.9902438572756652  0.8720071261989235  1.0000
  O   O31       1.0  0.7714339960827488  0.8652161375184164  0.893260573841751  1.0000
  O   O32       1.0  0.6082015079748402  0.9806908274804088  0.913645360092133  1.0000
