data_image0
_chemical_formula_structural       Zn4H40C44N24O8
_chemical_formula_sum              "Zn4 H40 C44 N24 O8"
_cell_length_a       9.235336880011584
_cell_length_b       9.9289883140053
_cell_length_c       13.979486435009933
_cell_angle_alpha    89.99999752539229
_cell_angle_beta     90.00013656073521
_cell_angle_gamma    89.99988102285943

_space_group_name_H-M_alt    "P 1"
_space_group_IT_number       1

loop_
  _space_group_symop_operation_xyz
  'x, y, z'

loop_
  _atom_site_type_symbol
  _atom_site_label
  _atom_site_symmetry_multiplicity
  _atom_site_fract_x
  _atom_site_fract_y
  _atom_site_fract_z
  _atom_site_occupancy
  Zn  Zn1       1.0  0.1276410677281916  0.5779499819061726  0.8513604048196016  1.0000
  Zn  Zn2       1.0  0.3723558297418421  0.42204968070202403  0.35135725427628733  1.0000
  Zn  Zn3       1.0  0.8723601655502194  0.0779516955895474  0.6486403929984874  1.0000
  Zn  Zn4       1.0  0.6276450005735654  0.9220500250227487  0.1486418430392717  1.0000
  H   H1        1.0  0.3169820298130972  0.487780494289879  0.6500491547514642  1.0000
  H   H2        1.0  0.1830076443809077  0.5122282399919625  0.1500464175994907  1.0000
  H   H3        1.0  0.6830172105153451  0.9877787094961761  0.8499530560842814  1.0000
  H   H4        1.0  0.8169908476797972  0.0122270324221034  0.349951266694724  1.0000
  H   H5        1.0  0.8155617356250531  0.5617512903150158  0.7882677847842317  1.0000
  H   H6        1.0  0.6844341892104423  0.43824438233195195  0.2882707757295222  1.0000
  H   H7        1.0  0.18443845083169208  0.06174930161027698  0.7117315830629637  1.0000
  H   H8        1.0  0.3155666051364037  0.9382463374447807  0.2117276055547208  1.0000
  H   H9        1.0  0.780572000990091  0.47978124397639016  0.6186027279634914  1.0000
  H   H10       1.0  0.7194157319806821  0.5202154419821384  0.11860433978427662  1.0000
  H   H11       1.0  0.21942509149898368  0.9797853939049262  0.8813980525471905  1.0000
  H   H12       1.0  0.2805827423442723  0.020213260451626497  0.3813940594998471  1.0000
  H   H13       1.0  0.37909065768354827  0.6438648093007373  0.9922348751384007  1.0000
  H   H14       1.0  0.1209099965514753  0.3561449197155824  0.4922334776150947  1.0000
  H   H15       1.0  0.6209115120139046  0.1438619805425603  0.5077666351758907  1.0000
  H   H16       1.0  0.8790920629321235  0.8561367237232033  0.0077649072058179  1.0000
  H   H17       1.0  0.8459996399988797  0.34278735896194235  0.9116078236929185  1.0000
  H   H18       1.0  0.653999978322375  0.6572113306653762  0.411607180628245  1.0000
  H   H19       1.0  0.1539999223295041  0.8427886250892981  0.5883943933868707  1.0000
  H   H20       1.0  0.3460003573516773  0.1572130613539997  0.08839192809165301  1.0000
  H   H21       1.0  0.8457431282605726  0.17405617135692347  0.8694417573803221  1.0000
  H   H22       1.0  0.654255255095336  0.8259435269523864  0.3694411074523529  1.0000
  H   H23       1.0  0.15425680878905007  0.674057435457037  0.6305604669658537  1.0000
  H   H24       1.0  0.3457447058552603  0.325945256608179  0.1305579940011228  1.0000
  H   H25       1.0  0.1008986501881708  0.3118725447415541  0.973564449566581  1.0000
  H   H26       1.0  0.39910193668453087  0.6881271134321878  0.4735649063342962  1.0000
  H   H27       1.0  0.8991009807955803  0.8118733735883981  0.5264370535106977  1.0000
  H   H28       1.0  0.600899413130577  0.18812835145938314  0.0264349163889435  1.0000
  H   H29       1.0  0.1003736031172124  0.1432743014694253  0.9306243918026452  1.0000
  H   H30       1.0  0.3996289943908806  0.8567263654112054  0.4306255574719344  1.0000
  H   H31       1.0  0.899628567888712  0.6432741205855307  0.5693771185370196  1.0000
  H   H32       1.0  0.6003730637946563  0.3567265957522067  0.069374257991484  1.0000
  H   H33       1.0  0.9800387943183184  0.19220493456320037  0.023527382571771203  1.0000
  H   H34       1.0  0.5199626719138094  0.8077937691331201  0.5235282077086794  1.0000
  H   H35       1.0  0.0199625464453774  0.6922054397148117  0.47647458597745646  1.0000
  H   H36       1.0  0.4800391337175398  0.30779623265633654  0.9764711495443379  1.0000
  H   H37       1.0  0.6501289112970738  0.6212449211120158  0.9530798594300194  1.0000
  H   H38       1.0  0.8498697738853025  0.37875275986063167  0.45307667535302437  1.0000
  H   H39       1.0  0.3498722258335647  0.12124563863553563  0.5469216518574598  1.0000
  H   H40       1.0  0.1501311525845921  0.8787520207005741  0.046921708493272304  1.0000
  C   C1        1.0  0.548522005383454  0.4800110997645461  0.6257995192871562  1.0000
  C   C2        1.0  0.9514700847365276  0.5199926359925514  0.1257986350703533  1.0000
  C   C3        1.0  0.451478334989723  0.9800158065574108  0.8742026918838945  1.0000
  C   C4        1.0  0.0485273072920833  0.0199858695179813  0.3742004795564711  1.0000
  C   C5        1.0  0.5361324932018761  0.4407321873871836  0.5224881329058206  1.0000
  C   C6        1.0  0.9638538101057392  0.559271552121338  0.022487266496121098  1.0000
  C   C7        1.0  0.463866851610689  0.9407318306201088  0.9775140799560235  1.0000
  C   C8        1.0  0.03614349468835341  0.059268834552945286  0.4775125617729401  1.0000
  C   C9        1.0  0.42413571181766235  0.5032462151450404  0.6806447833065974  1.0000
  C   C10       1.0  0.0758529899947007  0.49675748226866273  0.18064116280866926  1.0000
  C   C11       1.0  0.575863521773151  0.0032454768550636004  0.8193567330608076  1.0000
  C   C12       1.0  0.9241455088155844  0.9967522089559606  0.3193557852864473  1.0000
  C   C13       1.0  0.443643514606606  0.546229425669054  0.7749401072325243  1.0000
  C   C14       1.0  0.0563541898775455  0.4537722540130744  0.274937173218099  1.0000
  C   C15       1.0  0.5563556235272317  0.0462267143702917  0.7250606919499988  1.0000
  C   C16       1.0  0.9436454871950846  0.9537659391075695  0.2250604920629016  1.0000
  C   C17       1.0  0.5847418244049508  0.5655867486055896  0.8123078280788576  1.0000
  C   C18       1.0  0.9152509387822011  0.4344059017170919  0.3123033138627562  1.0000
  C   C19       1.0  0.4152572707406037  0.06558330546449301  0.6876929702700636  1.0000
  C   C20       1.0  0.0847498640952438  0.9344012557885152  0.1876943522530752  1.0000
  C   C21       1.0  0.7090609834247203  0.543970126476296  0.7578495595902764  1.0000
  C   C22       1.0  0.790935914431742  0.4560255472726666  0.2578498560848033  1.0000
  C   C23       1.0  0.2909381597226782  0.043970951344988386  0.7421512396894627  1.0000
  C   C24       1.0  0.2090626748364954  0.9560216651553476  0.2421478090982561  1.0000
  C   C25       1.0  0.6881964386544014  0.49982567104382253  0.6646844621211514  1.0000
  C   C26       1.0  0.8117936262038938  0.5001710132416831  0.1646833588857675  1.0000
  C   C27       1.0  0.3118006093200236  0.9998306504399108  0.8353170328601606  1.0000
  C   C28       1.0  0.18820489263794832  0.00016599128575479997  0.3353143259277758  1.0000
  C   C29       1.0  0.4224945069006054  0.613234255976785  0.9235413993320664  1.0000
  C   C30       1.0  0.07750373384722312  0.38676943262080943  0.4235392168293188  1.0000
  C   C31       1.0  0.5775066480229826  0.11323251615326765  0.5764601123004454  1.0000
  C   C32       1.0  0.9224971748202435  0.886764171317715  0.0764570206702615  1.0000
  C   C33       1.0  0.9734274024337922  0.3089610318785105  0.7896120268043632  1.0000
  C   C34       1.0  0.526568527241679  0.6910406836314987  0.2896126123556186  1.0000
  C   C35       1.0  0.026570069421019603  0.8089605266929001  0.7103887610627666  1.0000
  C   C36       1.0  0.4734306505085329  0.19104014817479964  0.2103864949066221  1.0000
  C   C37       1.0  0.9150085310457569  0.261707531431945  0.8831068327486022  1.0000
  C   C38       1.0  0.584989901625228  0.7382931735337905  0.3831075082278304  1.0000
  C   C39       1.0  0.08499012854942121  0.7617069162097039  0.6168946724882005  1.0000
  C   C40       1.0  0.4150113367809212  0.2382937620471353  0.11689231233502541  1.0000
  C   C41       1.0  0.03166680740385171  0.22527365848360867  0.9568212926001181  1.0000
  C   C42       1.0  0.4683348018460336  0.7747260002961835  0.4568225699555413  1.0000
  C   C43       1.0  0.9683340987001756  0.7252723379985607  0.5431802142074247  1.0000
  C   C44       1.0  0.5316674384461066  0.2747273721371498  0.04317724903918219  1.0000
  N   N1        1.0  0.34456222163749567  0.5777463267008186  0.8471994784918948  1.0000
  N   N2        1.0  0.15543574361053203  0.4222573646650217  0.3471967018050178  1.0000
  N   N3        1.0  0.6554390121007287  0.0777424184929885  0.6528020346689516  1.0000
  N   N4        1.0  0.8445650862458295  0.9222522519058246  0.1528002495001317  1.0000
  N   N5        1.0  0.5662705033442422  0.6074319143055289  0.9057132468140879  1.0000
  N   N6        1.0  0.933729093703036  0.3925657683836121  0.40571090948370175  1.0000
  N   N7        1.0  0.4337295816685653  0.10742944583837041  0.594288265067469  1.0000
  N   N8        1.0  0.06627288488992632  0.8925611617175874  0.0942860431009578  1.0000
  N   N9        1.0  0.04866942924311251  0.42328676985532354  0.7750614057590326  1.0000
  N   N10       1.0  0.4513239444912145  0.5767159169785286  0.2750605188684716  1.0000
  N   N11       1.0  0.9513299543100686  0.9232874900975855  0.7249400925202139  1.0000
  N   N12       1.0  0.5486754871525222  0.0767162420519725  0.2249385933171268  1.0000
  N   N13       1.0  0.07264779653038292  0.4338427079584334  0.6795250106594537  1.0000
  N   N14       1.0  0.4273484808226726  0.5661640109443623  0.1795226558120646  1.0000
  N   N15       1.0  0.9273548119810472  0.9338404498338376  0.8204793485032624  1.0000
  N   N16       1.0  0.5726520570560397  0.06616227169838139  0.3204771721627111  1.0000
  N   N17       1.0  0.0160987338058618  0.33031862123485206  0.6371493058148587  1.0000
  N   N18       1.0  0.4839028046154965  0.6696870920472832  0.1371484661987665  1.0000
  N   N19       1.0  0.9839041046110782  0.8303152446267249  0.862852911804552  1.0000
  N   N20       1.0  0.5160985861512017  0.1696874753731947  0.36285064198474976  1.0000
  N   N21       1.0  0.9540950463831805  0.2496931810548446  0.7038821110133426  1.0000
  N   N22       1.0  0.5459059879036658  0.7503085375585384  0.2038834397825084  1.0000
  N   N23       1.0  0.04590363989213841  0.7496916280723054  0.7961179640731615  1.0000
  N   N24       1.0  0.45409522381975626  0.2503080365369001  0.2961163802629372  1.0000
  O   O1        1.0  0.40476311359768863  0.4333881634579127  0.4893823785994229  1.0000
  O   O2        1.0  0.09522886797313392  0.5666175370623774  0.9893840479449169  1.0000
  O   O3        1.0  0.5952398571331231  0.9333875685506214  0.0106167182295707  1.0000
  O   O4        1.0  0.9047680592866315  0.06661314991148969  0.5106153196902028  1.0000
  O   O5        1.0  0.6476562399949444  0.4213433977184452  0.4728554965214826  1.0000
  O   O6        1.0  0.8523371025650661  0.578659318302094  0.9728554240761511  1.0000
  O   O7        1.0  0.3523456746918541  0.9213412595072936  0.0271450314931201  1.0000
  O   O8        1.0  0.14766304633953814  0.0786584148446323  0.5271432277090184  1.0000
