data_image0
_chemical_formula_structural       Zn4H28C40N44O2
_chemical_formula_sum              "Zn4 H28 C40 N44 O2"
_cell_length_a       8.38960907148393
_cell_length_b       8.842360728466726
_cell_length_c       20.07481477244328
_cell_angle_alpha    83.71108181554071
_cell_angle_beta     77.9270257453229
_cell_angle_gamma    61.66960965646501

_space_group_name_H-M_alt    "P 1"
_space_group_IT_number       1

loop_
  _space_group_symop_operation_xyz
  'x, y, z'

loop_
  _atom_site_type_symbol
  _atom_site_label
  _atom_site_symmetry_multiplicity
  _atom_site_fract_x
  _atom_site_fract_y
  _atom_site_fract_z
  _atom_site_occupancy
  Zn  Zn1       1.0  0.08999373899821009  0.030651747114660597  0.7746541189136806  1.0000
  Zn  Zn2       1.0  0.8953677148368441  0.4692362732458052  0.7254049384915933  1.0000
  Zn  Zn3       1.0  0.9100060787109286  0.9693544761585358  0.22534736662114355  1.0000
  Zn  Zn4       1.0  0.10462611912197413  0.5307596841919634  0.2745954918683323  1.0000
  H   H1        1.0  0.9623097982283678  0.9459681262747209  0.954313677141407  1.0000
  H   H2        1.0  0.8626869554305686  0.5538299175873931  0.5457128799953638  1.0000
  H   H3        1.0  0.03769281266323789  0.05402783296288051  0.04568651785442061  1.0000
  H   H4        1.0  0.13731821798698016  0.44616090210809023  0.45428733032314034  1.0000
  H   H5        1.0  0.9696575087887066  0.6589884939835287  0.9837334368327222  1.0000
  H   H6        1.0  0.6124302747919473  0.8409428985563068  0.5163308729084478  1.0000
  H   H7        1.0  0.03035043661009948  0.3410048722476163  0.01626880189198939  1.0000
  H   H8        1.0  0.38757197563585066  0.15905437590158303  0.48366661249696113  1.0000
  H   H9        1.0  0.7845481588470238  0.2290782278776859  0.7090918627492188  1.0000
  H   H10       1.0  0.7226824043568244  0.2708192078584731  0.790937523265491  1.0000
  H   H11       1.0  0.2154495078140286  0.7709203423022544  0.29090468677827636  1.0000
  H   H12       1.0  0.27731756403675706  0.7291806252964788  0.20906094991685367  1.0000
  H   H13       1.0  0.44019944912525255  0.40074588849684994  0.7013542575754173  1.0000
  H   H14       1.0  0.5422906504585399  0.0992818247670897  0.7986458626080335  1.0000
  H   H15       1.0  0.5597913215979488  0.5992578141258492  0.29864294632159283  1.0000
  H   H16       1.0  0.4577102089213628  0.9007154206809246  0.20135421997510158  1.0000
  H   H17       1.0  0.2941524096230098  0.5721438992202224  0.6054640269773018  1.0000
  H   H18       1.0  0.47193829356472633  0.9277496160289971  0.8945262987058343  1.0000
  H   H19       1.0  0.7058567859297256  0.42785600880295505  0.39452769530114323  1.0000
  H   H20       1.0  0.5280626457872586  0.072248895043785  0.10547549036809313  1.0000
  H   H21       1.0  0.807871220506726  0.2730504089265152  0.4709194809159813  1.0000
  H   H22       1.0  0.5516449420294336  0.2269706981886017  0.029066898889979747  1.0000
  H   H23       1.0  0.192097660788008  0.7269751376000927  0.5290776760596927  1.0000
  H   H24       1.0  0.4483550761993484  0.773031678614764  0.9709338832536574  1.0000
  H   H25       1.0  0.927289396714066  0.10666166153353629  0.5727707650483256  1.0000
  H   H26       1.0  0.6066645048996051  0.3932671799447646  0.9272084763976594  1.0000
  H   H27       1.0  0.07272158048726153  0.8933356822555892  0.4272204671723188  1.0000
  H   H28       1.0  0.39333621423443793  0.6067313559257812  0.07279110463566248  1.0000
  C   C1        1.0  0.9691117199656527  0.8618156371529437  0.9173273614292513  1.0000
  C   C2        1.0  0.7483754123097978  0.6380348357377202  0.5827235065250066  1.0000
  C   C3        1.0  0.030888969355551417  0.13818156556143182  0.0826765309339308  1.0000
  C   C4        1.0  0.2516212240912237  0.3619597790322402  0.4172820586300007  1.0000
  C   C5        1.0  0.9841605564497158  0.6338434265466829  0.8744344215076582  1.0000
  C   C6        1.0  0.49262921555230577  0.8661197937446373  0.6256392995741393  1.0000
  C   C7        1.0  0.015847939169916028  0.3661524888698792  0.1255696284592105  1.0000
  C   C8        1.0  0.507372804218967  0.13388260520672898  0.3743594916929426  1.0000
  C   C9        1.0  0.9852565692021783  0.7524821556361587  0.8229488240939703  1.0000
  C   C10       1.0  0.5608534053900625  0.7474680533978885  0.6771198614002003  1.0000
  C   C11       1.0  0.014741708277526326  0.2475137965020835  0.17705204059406296  1.0000
  C   C12       1.0  0.43914664329965075  0.2525304342020149  0.3228840271323109  1.0000
  C   C13       1.0  0.009549392323833825  0.4612608573891208  0.8729556082063181  1.0000
  C   C14       1.0  0.34391269496785537  0.038696638703186195  0.6271106560792817  1.0000
  C   C15       1.0  0.9904505358183255  0.5387427423053806  0.12705069020817936  1.0000
  C   C16       1.0  0.656093418299058  0.9613019704732294  0.37288234602319653  1.0000
  C   C17       1.0  0.004265028842496529  0.7554873505181591  0.7499123351510093  1.0000
  C   C18       1.0  0.5097478400394166  0.7444140484234437  0.7501545276171768  1.0000
  C   C19       1.0  0.9957318185167379  0.24449831808625794  0.25008901271052525  1.0000
  C   C20       1.0  0.4902525881643172  0.2555921679878708  0.24984756421881132  1.0000
  C   C21       1.0  0.5169735074697713  0.37489512320601637  0.6491467465840871  1.0000
  C   C22       1.0  0.5409828932633047  0.12511381645232691  0.8508513825607125  1.0000
  C   C23       1.0  0.4830393123020326  0.6250918779421185  0.35085020835649783  1.0000
  C   C24       1.0  0.45902135903102714  0.8748808689737473  0.14914782082750128  1.0000
  C   C25       1.0  0.43627708704810464  0.47338200417696197  0.5952733279663107  1.0000
  C   C26       1.0  0.5049891161818961  0.026568744213648198  0.9047245360447462  1.0000
  C   C27       1.0  0.563711201769351  0.5266228812529902  0.40473298481756376  1.0000
  C   C28       1.0  0.4950076795151971  0.9734336241654801  0.09527702437312517  1.0000
  C   C29       1.0  0.5392370469330389  0.4446628131212264  0.5289443195726237  1.0000
  C   C30       1.0  0.5128059620871215  0.055322297371823495  0.9710524800042178  1.0000
  C   C31       1.0  0.460769567691649  0.5553279680527439  0.4710593113888208  1.0000
  C   C32       1.0  0.4871739289875164  0.9446929262495161  0.02894856258785699  1.0000
  C   C33       1.0  0.7190500182379578  0.3071794224666746  0.5206750149701733  1.0000
  C   C34       1.0  0.5467095498916026  0.19285334165741827  0.9793179109011946  1.0000
  C   C35       1.0  0.28095461357040125  0.6928229917708035  0.4793223917215172  1.0000
  C   C36       1.0  0.4532885464427209  0.8071528898025307  0.020682859750436988  1.0000
  C   C37       1.0  0.7880753899359974  0.21341770619523706  0.5775337430338113  1.0000
  C   C38       1.0  0.5789010849686916  0.2865733529693201  0.9224488896086883  1.0000
  C   C39       1.0  0.21192454799664548  0.7865860161631701  0.4224616237596591  1.0000
  C   C40       1.0  0.42109852328512426  0.7134251842260966  0.07755058284260499  1.0000
  N   N1        1.0  0.020985850538835487  0.3795243763601662  0.817783991051769  1.0000
  N   N2        1.0  0.21839705499984785  0.12045693018411899  0.6822796933484766  1.0000
  N   N3        1.0  0.9789277562673107  0.6205125539649856  0.18222961077962926  1.0000
  N   N4        1.0  0.7815876215400122  0.8795391301818398  0.3177116424939685  1.0000
  N   N5        1.0  0.05481169218401056  0.21988668544017287  0.8406037798843471  1.0000
  N   N6        1.0  0.11534413815839177  0.2800642046550408  0.6594414327734839  1.0000
  N   N7        1.0  0.9451345108413772  0.780143914211358  0.15940123489290423  1.0000
  N   N8        1.0  0.8846720828154208  0.7199369913783827  0.3405499417281634  1.0000
  N   N9        1.0  0.06217264932243436  0.20424216644354937  0.905895356364404  1.0000
  N   N10       1.0  0.1723281156185125  0.2956474762910233  0.5941351304396817  1.0000
  N   N11       1.0  0.9378896697881558  0.7957422810320766  0.09409975972482722  1.0000
  N   N12       1.0  0.8277020055130181  0.7043626858811435  0.40585856086085687  1.0000
  N   N13       1.0  0.034512382438578106  0.3541751113753763  0.927632944769037  1.0000
  N   N14       1.0  0.31642054129761027  0.14572000109897945  0.5724040661110338  1.0000
  N   N15       1.0  0.9655340937426901  0.6458144240095294  0.07236687083386802  1.0000
  N   N16       1.0  0.6836045172068165  0.854276029507176  0.4275895769448896  1.0000
  N   N17       1.0  0.9723471689217649  0.7081487068460321  0.9336190180192004  1.0000
  N   N18       1.0  0.6142625722701356  0.7917463546560128  0.5664384980715553  1.0000
  N   N19       1.0  0.027681563312874916  0.2918395717133108  0.0663784578007949  1.0000
  N   N20       1.0  0.3857461540060215  0.20824443626707279  0.43356424603364024  1.0000
  N   N21       1.0  0.9760057436108127  0.8934388233118611  0.8508974530068444  1.0000
  N   N22       1.0  0.7204811571424302  0.6064393699190588  0.6491523462371589  1.0000
  N   N23       1.0  0.023977331246996417  0.10656354302995649  0.1491044061661597  1.0000
  N   N24       1.0  0.27951550907143047  0.3935565780070718  0.35084890758798076  1.0000
  N   N25       1.0  0.04763958014637411  0.8728957037032286  0.713941080392054  1.0000
  N   N26       1.0  0.6345279938820169  0.6269639811255062  0.7861170522228846  1.0000
  N   N27       1.0  0.9523698876105086  0.12708486856767107  0.2860563462300336  1.0000
  N   N28       1.0  0.3654539301682079  0.37303954190092264  0.21389623245961797  1.0000
  N   N29       1.0  0.04589843668208738  0.8553284604411074  0.6486166245865093  1.0000
  N   N30       1.0  0.5498649395749384  0.6445625901200387  0.8514452122974134  1.0000
  N   N31       1.0  0.9540992106047097  0.14466367688694962  0.35138072236856055  1.0000
  N   N32       1.0  0.4501203576914107  0.35543455121238315  0.14856428175838238  1.0000
  N   N33       1.0  0.003770015696616791  0.7317615346307421  0.6444437871921025  1.0000
  N   N34       1.0  0.3799785674298804  0.7681767039626591  0.8556280760018069  1.0000
  N   N35       1.0  0.9962369993192509  0.2682267759632069  0.3555510192682407  1.0000
  N   N36       1.0  0.620005938196492  0.23183072355335102  0.14438071771643038  1.0000
  N   N37       1.0  0.978339257654838  0.6650119228654104  0.7075739402640552  1.0000
  N   N38       1.0  0.3509425951513095  0.8349243264229075  0.7924993894432718  1.0000
  N   N39       1.0  0.02166572568165044  0.33497764360419074  0.2924234595433433  1.0000
  N   N40       1.0  0.6490565133649894  0.16506898287588712  0.20750799844590537  1.0000
  N   N41       1.0  0.6909705192539873  0.24790259100867476  0.6413298154886676  1.0000
  N   N42       1.0  0.5801044508014214  0.25212329544124407  0.8586581486933228  1.0000
  N   N43       1.0  0.3090397573661291  0.7520959825334615  0.3586663267016661  1.0000
  N   N44       1.0  0.41989381591564995  0.7478803675725274  0.14134252103762188  1.0000
  O   O1        1.0  0.8266552481769908  0.24994877117243422  0.7500158178691337  1.0000
  O   O2        1.0  0.1733285746221683  0.7500793748475445  0.2499785440943683  1.0000
