data_image0
_chemical_formula_structural       AlC27N7Cl12O6
_chemical_formula_sum              "Al1 C27 N7 Cl12 O6"
_cell_length_a       4.138829336456669
_cell_length_b       18.13205006696418
_cell_length_c       18.234367670496
_cell_angle_alpha    119.76914430220829
_cell_angle_beta     91.31123529511854
_cell_angle_gamma    90.07281010786797

_space_group_name_H-M_alt    "P 1"
_space_group_IT_number       1

loop_
  _space_group_symop_operation_xyz
  'x, y, z'

loop_
  _atom_site_type_symbol
  _atom_site_label
  _atom_site_symmetry_multiplicity
  _atom_site_fract_x
  _atom_site_fract_y
  _atom_site_fract_z
  _atom_site_occupancy
  Al  Al1       1.0  0.0114741337624054  0.0008378216368498992  0.5000709204061877  1.0000
  C   C1        1.0  0.5061694670396121  0.06504500619789871  0.43478363357321104  1.0000
  C   C2        1.0  0.5247769101414689  0.06469560333838593  0.628672283489152  1.0000
  C   C3        1.0  0.5037104677836695  0.8714698226281569  0.43585321914402897  1.0000
  C   C4        1.0  0.3681379227687743  0.23731358177708733  0.3755473639002105  1.0000
  C   C5        1.0  0.5088510974568975  0.20140270575957692  0.2946814143006264  1.0000
  C   C6        1.0  0.3797328039947558  0.120282377520482  0.8563827826331191  1.0000
  C   C7        1.0  0.5233198745143709  0.2026831587256339  0.903229096685557  1.0000
  C   C8        1.0  0.5112078043614544  0.5955228036711018  0.29526815000045287  1.0000
  C   C9        1.0  0.3582532399269525  0.6420616068316319  0.2607917658968759  1.0000
  C   C10       1.0  0.6704674041463149  0.23842462486651073  0.8580779914901839  1.0000
  C   C11       1.0  0.661914590566063  0.19399762373407006  0.7691174549846096  1.0000
  C   C12       1.0  0.5290138434505635  0.1120382548564436  0.7241628841511272  1.0000
  C   C13       1.0  0.3954229624680322  0.0745732849127663  0.7676873732048577  1.0000
  C   C14       1.0  0.3650396364989987  0.7314846165957859  0.30603591587757956  1.0000
  C   C15       1.0  0.5020864178085772  0.7754867438500809  0.3875583995091886  1.0000
  C   C16       1.0  0.6427309058527585  0.7305568392977336  0.42364763187592297  1.0000
  C   C17       1.0  0.6597878809292226  0.6413649868733913  0.3771192432768018  1.0000
  C   C18       1.0  0.6469997847497524  0.11943730231060812  0.2605537613968636  1.0000
  C   C19       1.0  0.6321431380987262  0.07433755866225769  0.3048511870777872  1.0000
  C   C20       1.0  0.5056497384773593  0.11205914236555965  0.3857196227840801  1.0000
  C   C21       1.0  0.3795655216547047  0.19375984112039651  0.4214415087509664  1.0000
  C   C22       1.0  0.5135688729948528  0.37742935900593727  0.2526144496079112  1.0000
  C   C23       1.0  0.516784422793144  0.24402821734263822  0.11962205895244442  1.0000
  C   C24       1.0  0.5120376732152536  0.2486635053012165  0.24731657163636098  1.0000
  C   C25       1.0  0.5124181093857274  0.5009540259810308  0.24748465849710033  1.0000
  C   C26       1.0  0.5155998341565962  0.3782593643793462  0.1196031541617231  1.0000
  C   C27       1.0  0.5210770377752212  0.2500015254686332  0.9972420528994022  1.0000
  N   N1        1.0  0.5151439467719854  0.33325780330335414  0.16391994963491638  1.0000
  N   N2        1.0  0.4895789084247608  0.2026094762403758  0.1625860286724503  1.0000
  N   N3        1.0  0.5373311619247686  0.33372933800831833  0.2934711094873492  1.0000
  N   N4        1.0  0.4883697319154691  0.46175239256567835  0.2932535346224938  1.0000
  N   N5        1.0  0.5369101153955995  0.46290125000457033  0.16313422794762286  1.0000
  N   N6        1.0  0.5451853548444204  0.2035415538142544  0.035957389060918415  1.0000
  N   N7        1.0  0.4947961906805319  0.33489458536050165  0.035399498323997074  1.0000
  Cl  Cl1       1.0  0.7703535470258133  0.9723214145777276  0.26107153731047805  1.0000
  Cl  Cl2       1.0  0.8514716671418795  0.07278601620131302  0.1679580160230643  1.0000
  Cl  Cl3       1.0  0.23723574700647282  0.23947082303401152  0.5221623487623219  1.0000
  Cl  Cl4       1.0  0.16456016324464426  0.33122719005051243  0.41988613955730614  1.0000
  Cl  Cl5       1.0  0.8795886446535874  0.5930400029436954  0.42172171742402037  1.0000
  Cl  Cl6       1.0  0.7952446899691309  0.7863573342330242  0.5253965448258525  1.0000
  Cl  Cl7       1.0  0.14564617476000308  0.5939450262039186  0.16653551234212208  1.0000
  Cl  Cl8       1.0  0.204641603319466  0.7887375171813531  0.2624681072651995  1.0000
  Cl  Cl9       1.0  0.16718129526671532  0.07392500796899529  0.9027233187557683  1.0000
  Cl  Cl10      1.0  0.24960133290450415  0.9721675680711429  0.7107310014668115  1.0000
  Cl  Cl11      1.0  0.8780871887268232  0.3332865660659792  0.9072218494756968  1.0000
  Cl  Cl12      1.0  0.8154177045152196  0.23904629472615818  0.713566014206755  1.0000
  O   O1        1.0  0.27124919973018546  0.9070824301869395  0.48465639582541786  1.0000
  O   O2        1.0  0.2662682583309959  0.0163291942749524  0.4222068450658725  1.0000
  O   O3        1.0  0.2857647542921383  0.0781477473476855  0.5923866016603014  1.0000
  O   O4        1.0  0.7387949376224014  0.9080598525847208  0.4229616434515506  1.0000
  O   O5        1.0  0.759221235804226  0.0159563409174979  0.5931905199959076  1.0000
  O   O6        1.0  0.7466494072303147  0.07861990106636087  0.48439436672236263  1.0000
