data_image0
_chemical_formula_structural       Zn2NiH14C12O16
_chemical_formula_sum              "Zn2 Ni1 H14 C12 O16"
_cell_length_a       6.651552435311437
_cell_length_b       6.920752685227352
_cell_length_c       9.685629811480823
_cell_angle_alpha    85.23557611727051
_cell_angle_beta     77.80292883537295
_cell_angle_gamma    81.13403926223799

_space_group_name_H-M_alt    "P 1"
_space_group_IT_number       1

loop_
  _space_group_symop_operation_xyz
  'x, y, z'

loop_
  _atom_site_type_symbol
  _atom_site_label
  _atom_site_symmetry_multiplicity
  _atom_site_fract_x
  _atom_site_fract_y
  _atom_site_fract_z
  _atom_site_occupancy
  Zn  Zn1       1.0  0.9443783664330495  0.7717712189589818  0.8337319754752028  1.0000
  Zn  Zn2       1.0  0.0556225111038842  0.22823223716731886  0.16626770636890595  1.0000
  Ni  Ni1       1.0  0.4999977559762527  0.9999990177780519  0.49999965463009466  1.0000
  H   H1        1.0  0.7032306948998012  0.7795743138660639  0.3088832842814852  1.0000
  H   H2        1.0  0.2967688727215858  0.220427672677161  0.6911146085324656  1.0000
  H   H3        1.0  0.21188934553785538  0.9544890786022082  0.8929074503230364  1.0000
  H   H4        1.0  0.7881137401790073  0.045509989539589006  0.10709423613694465  1.0000
  H   H5        1.0  0.15562552561384282  0.8122817682065744  0.024866992827931294  1.0000
  H   H6        1.0  0.8443742625592919  0.18771875209329641  0.9751340519453103  1.0000
  H   H7        1.0  0.12016552998631616  0.6278928949580022  0.38016816454599206  1.0000
  H   H8        1.0  0.8798344814148038  0.37210616033281957  0.6198339668113062  1.0000
  H   H9        1.0  0.31849756529697976  0.47941312572966416  0.44756616423743595  1.0000
  H   H10       1.0  0.6815055217579982  0.5205859430292819  0.5524344895349242  1.0000
  H   H11       1.0  0.5642119336371394  0.45425303221851726  0.22849400497388211  1.0000
  H   H12       1.0  0.43578917114211885  0.5457489607502027  0.7715036653914066  1.0000
  H   H13       1.0  0.3931140347893917  0.5900553622391911  0.1313892838011981  1.0000
  H   H14       1.0  0.6068868440856647  0.40994809450426567  0.8686093653552899  1.0000
  C   C1        1.0  0.18264924752148196  0.7249685878533114  0.5680830939080932  1.0000
  C   C2        1.0  0.8173484034194374  0.2750158067107265  0.4319161130089879  1.0000
  C   C3        1.0  0.25696702988331305  0.63320996888001  0.4260601625470668  1.0000
  C   C4        1.0  0.7430327582898215  0.3667905514198537  0.5739408822261749  1.0000
  C   C5        1.0  0.420727347138687  0.7306050024643582  0.31973028933062836  1.0000
  C   C6        1.0  0.5792724450488008  0.2693955196869808  0.6802676573797509  1.0000
  C   C7        1.0  0.324682694910706  0.9381134229551903  0.27436955716803607  1.0000
  C   C8        1.0  0.6753181826262279  0.061890033171110304  0.7256301246760725  1.0000
  C   C9        1.0  0.51120119904661  0.6047762813219252  0.19193662270273384  1.0000
  C   C10       1.0  0.48879791944258955  0.3952286340050933  0.8080611623183597  1.0000
  C   C11       1.0  0.6936854810969705  0.6830845890872512  0.0938127088564329  1.0000
  C   C12       1.0  0.3063114251979613  0.3169247123728026  0.9061861696116433  1.0000
  O   O1        1.0  0.05744515478662748  0.6316187265246499  0.6597024829175309  1.0000
  O   O2        1.0  0.9425485142073528  0.36837150843589955  0.340304182124491  1.0000
  O   O3        1.0  0.23745672948224683  0.8819297715957647  0.5973715182598622  1.0000
  O   O4        1.0  0.762541113896205  0.11806341697943881  0.4026250774547362  1.0000
  O   O5        1.0  0.2052202749148789  0.9522393407460684  0.1847266490159213  1.0000
  O   O6        1.0  0.794779292706508  0.04776264579716381  0.8152712437980294  1.0000
  O   O7        1.0  0.36156479413775605  0.08423450244207939  0.329814971133487  1.0000
  O   O8        1.0  0.6384321469619607  0.9157645418492281  0.6701845070582589  1.0000
  O   O9        1.0  0.7890151758426002  0.8020615327834762  0.1406518763313826  1.0000
  O   O10       1.0  0.21098790987426236  0.1979375353583137  0.8593498101285986  1.0000
  O   O11       1.0  0.746570800730595  0.6241867916376121  0.9680189350754201  1.0000
  O   O12       1.0  0.2534261082405607  0.3758225110567538  0.03197787801741468  1.0000
  O   O13       1.0  0.5872853969971175  0.7504633866074004  0.3909339169409305  1.0000
  O   O14       1.0  0.4127139433819451  0.2495400630934128  0.6090659873518331  1.0000
  O   O15       1.0  0.1841825128225807  0.81758552193007  0.9208249514595007  1.0000
  O   O16       1.0  0.8158188125084324  0.1824150047952884  0.07917587086509309  1.0000
