data_image0
_chemical_formula_structural       ZnH30C36N8O10
_chemical_formula_sum              "Zn1 H30 C36 N8 O10"
_cell_length_a       8.113488386889168
_cell_length_b       9.418585479379166
_cell_length_c       12.578351100451016
_cell_angle_alpha    74.09084209130044
_cell_angle_beta     78.59031469569558
_cell_angle_gamma    73.61799137298908

_space_group_name_H-M_alt    "P 1"
_space_group_IT_number       1

loop_
  _space_group_symop_operation_xyz
  'x, y, z'

loop_
  _atom_site_type_symbol
  _atom_site_label
  _atom_site_symmetry_multiplicity
  _atom_site_fract_x
  _atom_site_fract_y
  _atom_site_fract_z
  _atom_site_occupancy
  Zn  Zn1       1.0  0.9999923823935364  3.5792804453966527e-06  0.9999984955694002  1.0000
  H   H1        1.0  0.025553126425592168  0.47227343255688947  0.7097367656942096  1.0000
  H   H2        1.0  0.9744563467017074  0.527726729130066  0.290256675059311  1.0000
  H   H3        1.0  0.6975227263840794  0.07550421498178389  0.9472838479319989  1.0000
  H   H4        1.0  0.3024605602713565  0.9245077225648682  0.05271159966404335  1.0000
  H   H5        1.0  0.7352731180816436  0.8875719754403092  0.9925982084138028  1.0000
  H   H6        1.0  0.26470874247688403  0.11244382999016267  0.007388782738615923  1.0000
  H   H7        1.0  0.9930677926624509  0.6823938280005136  0.9922975403550538  1.0000
  H   H8        1.0  0.0069100820661916135  0.31761493528114926  0.007702548993350413  1.0000
  H   H9        1.0  0.06304582987782939  0.5161679817114617  0.8580780971817389  1.0000
  H   H10       1.0  0.9369454180918594  0.4838308735038055  0.1419232829857293  1.0000
  H   H11       1.0  0.22330943267983366  0.8830400845164661  0.6058245082271299  1.0000
  H   H12       1.0  0.7767093810970209  0.11694885303460013  0.3941798768514814  1.0000
  H   H13       1.0  0.1359005806976867  0.03946023965918499  0.7491071850127611  1.0000
  H   H14       1.0  0.8641049098698161  0.9605365717126017  0.25089229485562475  1.0000
  H   H15       1.0  0.9144529571375131  0.31617603019219587  0.6412726216550411  1.0000
  H   H16       1.0  0.08554791692722573  0.6838292096291738  0.3587204567361225  1.0000
  H   H17       1.0  0.968436835704189  0.1255429636954233  0.5305474435653253  1.0000
  H   H18       1.0  0.031581263656796886  0.8744541074447697  0.46945076697202387  1.0000
  H   H19       1.0  0.45910257878934163  0.23191111799329175  0.38057897215864495  1.0000
  H   H20       1.0  0.5409180672242686  0.7680820958449741  0.6194259200635983  1.0000
  H   H21       1.0  0.407388287255138  0.4177199660138058  0.4923766259983253  1.0000
  H   H22       1.0  0.5926218942831128  0.5822807695448305  0.5076261557386914  1.0000
  H   H23       1.0  0.3076845704303254  0.284427452569922  0.21681644320720034  1.0000
  H   H24       1.0  0.6923163438558504  0.715564677504858  0.7831941980361918  1.0000
  H   H25       1.0  0.5230438406326953  0.2483181808483578  0.05135882303373049  1.0000
  H   H26       1.0  0.4769311585062965  0.7516862489061963  0.9486433269600738  1.0000
  H   H27       1.0  0.6563767617650456  0.7646226777946409  0.19099929832271556  1.0000
  H   H28       1.0  0.34361933054056965  0.23537769070407677  0.8089874814587718  1.0000
  H   H29       1.0  0.4383557709904906  0.8011326175140069  0.3575455631829812  1.0000
  H   H30       1.0  0.5616632640793497  0.19885887810281125  0.6424519381946823  1.0000
  C   C1        1.0  0.042435165461974095  0.7232278968587309  0.9052619217237918  1.0000
  C   C2        1.0  0.9575536402290368  0.27677675658811307  0.09473797721055625  1.0000
  C   C3        1.0  0.08365727986429052  0.630577894415701  0.8301769402359228  1.0000
  C   C4        1.0  0.9163357231393335  0.369425283744782  0.16982415404487478  1.0000
  C   C5        1.0  0.14890456850000794  0.6875251463082748  0.7197161721453824  1.0000
  C   C6        1.0  0.8510934903222562  0.31247102770050367  0.2802846152918832  1.0000
  C   C7        1.0  0.17071789752470323  0.8360716757566138  0.6907077718641759  1.0000
  C   C8        1.0  0.8292877610340029  0.1639260360929739  0.3092954977755582  1.0000
  C   C9        1.0  0.12397058388513929  0.9224015013484462  0.770294326430836  1.0000
  C   C10       1.0  0.876030940978211  0.07759664533563891  0.2297063371820158  1.0000
  C   C11       1.0  0.20327355803524935  0.5980951650015384  0.6309430569540879  1.0000
  C   C12       1.0  0.7967566869022847  0.4019024458551712  0.3690491260703865  1.0000
  C   C13       1.0  0.15895254548984636  0.37900934659246144  0.5771559772488571  1.0000
  C   C14       1.0  0.8410537508171602  0.6209963694540903  0.42284172218180777  1.0000
  C   C15       1.0  0.03612879664739671  0.2954144041253244  0.5864503060963883  1.0000
  C   C16       1.0  0.963875808242939  0.704585948524162  0.4135462685405216  1.0000
  C   C17       1.0  0.0647524729071733  0.18945929897220276  0.5225911083251233  1.0000
  C   C18       1.0  0.9352597648956545  0.8105358716449371  0.4774091894934855  1.0000
  C   C19       1.0  0.2166047695501021  0.16611532951565522  0.4475897080498186  1.0000
  C   C20       1.0  0.7834118471420978  0.8338802600867654  0.5524177785973238  1.0000
  C   C21       1.0  0.33918277886093756  0.24901321796765072  0.43741070451060443  1.0000
  C   C22       1.0  0.6608329249829696  0.7509839253248032  0.5625894694835907  1.0000
  C   C23       1.0  0.30995155765571514  0.3554101542292969  0.5012549133453348  1.0000
  C   C24       1.0  0.6900544129843598  0.6445910628218527  0.4987444693344969  1.0000
  C   C25       1.0  0.36134778066107737  0.04378765549430601  0.29765756261424764  1.0000
  C   C26       1.0  0.6386598705449416  0.9562055318656353  0.7023446337875042  1.0000
  C   C27       1.0  0.38304353910891104  0.1702948193623612  0.211616617354224  1.0000
  C   C28       1.0  0.616953241481916  0.8296977455469161  0.788391417862286  1.0000
  C   C29       1.0  0.5049741351018966  0.15002030988740242  0.118510113743703  1.0000
  C   C30       1.0  0.49501098652512365  0.8499835046520089  0.881489733634872  1.0000
  C   C31       1.0  0.6043049246652998  0.004232102374345511  0.11012145032176332  1.0000
  C   C32       1.0  0.3956831089974954  0.9957730176526667  0.8898705183095146  1.0000
  C   C33       1.0  0.5801326872534034  0.8786898655277469  0.19641187064718924  1.0000
  C   C34       1.0  0.41985592327527854  0.12131189985363726  0.8035798310943392  1.0000
  C   C35       1.0  0.4587859403454572  0.8980834513409449  0.2899731368037237  1.0000
  C   C36       1.0  0.5412182948511699  0.10190572909800721  0.7100255690312737  1.0000
  N   N1        1.0  0.0611177797754223  0.8671415708936294  0.8766999265499251  1.0000
  N   N2        1.0  0.9388767662441495  0.1328583565191508  0.12329754002178107  1.0000
  N   N3        1.0  0.1277838169949348  0.4802947040177654  0.6470721270790278  1.0000
  N   N4        1.0  0.8722152655897447  0.519709240897896  0.35292705530070373  1.0000
  N   N5        1.0  0.7302114799814207  0.9856519327160812  0.01439468707023648  1.0000
  N   N6        1.0  0.2697710346458067  0.014360471410746777  0.9855928302227355  1.0000
  N   N7        1.0  0.8171436010385803  0.3179232497604332  0.8470459704996144  1.0000
  N   N8        1.0  0.18283803495687317  0.6820863057706461  0.15295496343487258  1.0000
  O   O1        1.0  0.310337944343317  0.6352632910629765  0.5500414293507916  1.0000
  O   O2        1.0  0.689670334800745  0.36472682499302067  0.4499763740852813  1.0000
  O   O3        1.0  0.23716741847338343  0.05414465088529139  0.3905286333502715  1.0000
  O   O4        1.0  0.7628559617745339  0.9458378924618599  0.6094857675967164  1.0000
  O   O5        1.0  0.961946249228518  0.2198646676827494  0.8672350393109554  1.0000
  O   O6        1.0  0.03803265199736932  0.7801394672113559  0.13276733761881593  1.0000
  O   O7        1.0  0.820197203310201  0.45575892133367546  0.8081361773899118  1.0000
  O   O8        1.0  0.17979701430760295  0.5442489063781506  0.19185907979206726  1.0000
  O   O9        1.0  0.6782730506972426  0.27645807300670816  0.8643190427743903  1.0000
  O   O10       1.0  0.3217035566506895  0.7235604742637418  0.13568660542510713  1.0000
