data_image0
_chemical_formula_structural       Zn4H64C90N16
_chemical_formula_sum              "Zn4 H64 C90 N16"
_cell_length_a       18.86843756410543
_cell_length_b       18.93743967580048
_cell_length_c       20.368466669596742
_cell_angle_alpha    105.69308108067932
_cell_angle_beta     107.13435066029359
_cell_angle_gamma    111.70099894595307

_space_group_name_H-M_alt    "P 1"
_space_group_IT_number       1

loop_
  _space_group_symop_operation_xyz
  'x, y, z'

loop_
  _atom_site_type_symbol
  _atom_site_label
  _atom_site_symmetry_multiplicity
  _atom_site_fract_x
  _atom_site_fract_y
  _atom_site_fract_z
  _atom_site_occupancy
  Zn  Zn1       1.0  0.892925364990212  0.8946043099292709  0.4947821142451119  1.0000
  Zn  Zn2       1.0  0.11690442915925559  0.11232016637853091  0.5051246378387902  1.0000
  Zn  Zn3       1.0  0.09821453842153008  0.9963728332700938  0.6002737208062355  1.0000
  Zn  Zn4       1.0  0.9111915830551849  0.013883891500753868  0.4045728443823364  1.0000
  H   H1        1.0  0.8328212882257444  0.8001088198893739  0.6036722371917803  1.0000
  H   H2        1.0  0.7801456942460232  0.05088346963004386  0.6772162049713657  1.0000
  H   H3        1.0  0.7818976471620971  0.19168887733812304  0.5422918280846928  1.0000
  H   H4        1.0  0.69566364276762  0.26311196434183154  0.5345344166345498  1.0000
  H   H5        1.0  0.5739288156853775  0.27426076059492727  0.5486941099608912  1.0000
  H   H6        1.0  0.15928476856355192  0.7527693762516564  0.4500319888805606  1.0000
  H   H7        1.0  0.8852600154242865  0.6108959395478307  0.33245914279507355  1.0000
  H   H8        1.0  0.8119453380061684  0.4557159668458084  0.27385222565887096  1.0000
  H   H9        1.0  0.8982219542788668  0.2598795547940681  0.3193370843621963  1.0000
  H   H10       1.0  0.077425341796328  0.10953761090622288  0.7349575463113637  1.0000
  H   H11       1.0  0.17120124099977824  0.39962671846557635  0.4351809905531566  1.0000
  H   H12       1.0  0.8894942587266924  0.865827209604042  0.2673859691141304  1.0000
  H   H13       1.0  0.24297295850619346  0.6782848090431132  0.46079573963366016  1.0000
  H   H14       1.0  0.6123300438060256  0.7631505875357977  0.13438339338974015  1.0000
  H   H15       1.0  0.12965687427190176  0.22941452834982104  0.8437469410899325  1.0000
  H   H16       1.0  0.12079643798367101  0.37287619067582517  0.7123228709227405  1.0000
  H   H17       1.0  0.3105044167267365  0.5760607549338843  0.9586088362993619  1.0000
  H   H18       1.0  0.4094629732909779  0.5456501964920193  0.17500480519846207  1.0000
  H   H19       1.0  0.2163438820899302  0.35907130765890116  0.9608334098493783  1.0000
  H   H20       1.0  0.5483330287444801  0.6536241139900483  0.28238277891750124  1.0000
  H   H21       1.0  0.8627032516320483  0.14648120718836571  0.4968374406935184  1.0000
  H   H22       1.0  0.3277677706362212  0.46765565312555424  0.0439534522862104  1.0000
  H   H23       1.0  0.16469601559133906  0.9984445806370207  0.3882472054257563  1.0000
  H   H24       1.0  0.20958158974487162  0.5037944997743651  0.8304599741061837  1.0000
  H   H25       1.0  0.07503231624768597  0.8110820782132819  0.7753408531391061  1.0000
  H   H26       1.0  0.9000789033625479  0.7693278100158879  0.17110871321104074  1.0000
  H   H27       1.0  0.16345657883969983  0.9555600512582102  0.2646449673571071  1.0000
  H   H28       1.0  0.08674251491031272  0.8334412503213076  0.00862922240440878  1.0000
  H   H29       1.0  0.8959293311366422  0.7194405763059776  0.04497938132276136  1.0000
  H   H30       1.0  0.8310767833914169  0.7956168400017134  0.7290248260654906  1.0000
  H   H31       1.0  0.09929768550059487  0.2609340122851478  0.6081062680465124  1.0000
  H   H32       1.0  0.8928288457580605  0.7281649346663813  0.9386006045563065  1.0000
  H   H33       1.0  0.1596781688309648  0.9044472757422712  0.1383660313698273  1.0000
  H   H34       1.0  0.7216102500173347  0.8893479370380675  0.24759232104086937  1.0000
  H   H35       1.0  0.8415698575107908  0.9871011486264153  0.6161186886893971  1.0000
  H   H36       1.0  0.8944791091903284  0.1518710947667046  0.33679317217956856  1.0000
  H   H37       1.0  0.10553053821161738  0.928613801460223  0.7376094772975675  1.0000
  H   H38       1.0  0.700431801681418  0.7289139332193457  0.36515399650328817  1.0000
  H   H39       1.0  0.3222005557881856  0.19423904779993248  0.5547641495674327  1.0000
  H   H40       1.0  0.15156128520870737  0.8714061680323867  0.5080897622519345  1.0000
  H   H41       1.0  0.8779788805232939  0.7335452406136014  0.3726820946843077  1.0000
  H   H42       1.0  0.2246646943386139  0.3137589686605153  0.45235112573445246  1.0000
  H   H43       1.0  0.2073941364168164  0.36292340989631816  0.5289865177608918  1.0000
  H   H44       1.0  0.22328525279062456  0.2750869833862737  0.5225000962456079  1.0000
  H   H45       1.0  0.3029052996205905  0.04146531287632633  0.6796468424026899  1.0000
  H   H46       1.0  0.7937401039159084  0.25461728544532747  0.213733254392892  1.0000
  H   H47       1.0  0.779873310356116  0.27606947048968766  0.2977475149446248  1.0000
  H   H48       1.0  0.7374904879271823  0.3097235972278511  0.23001882863858467  1.0000
  H   H49       1.0  0.32526114541754236  0.614099735767404  0.4855223142781853  1.0000
  H   H50       1.0  0.28161026919254073  0.5357697830349794  0.5157718185948427  1.0000
  H   H51       1.0  0.27967376990168447  0.5059902878377542  0.42487054556350046  1.0000
  H   H52       1.0  0.5312964972062842  0.6992849260612742  0.007229623225278171  1.0000
  H   H53       1.0  0.43922198698115267  0.5978585182707192  0.960674276501848  1.0000
  H   H54       1.0  0.43028818216450293  0.6892169474125183  0.9936365439039463  1.0000
  H   H55       1.0  0.7541652389213596  0.7472492815532091  0.7898466014949149  1.0000
  H   H56       1.0  0.4543962081766749  0.22242280342175746  0.5807962663374582  1.0000
  H   H57       1.0  0.7763720292844096  0.6848216877499524  0.8349479683641051  1.0000
  H   H58       1.0  0.8177067533582373  0.7933070394827552  0.8895578038001588  1.0000
  H   H59       1.0  0.11868512508685569  0.7448474674018827  0.8486331635676265  1.0000
  H   H60       1.0  0.14881025462668873  0.8254019420987859  0.9362794168535942  1.0000
  H   H61       1.0  0.07627586040531038  0.7203774711901405  0.9120703176537363  1.0000
  H   H62       1.0  0.4482897627858122  0.0785385926072948  0.7131010571256625  1.0000
  H   H63       1.0  0.5677005618680437  0.04957399898917449  0.7590473327524518  1.0000
  H   H64       1.0  0.6898154910650687  0.039282544519082196  0.7456886547302232  1.0000
  C   C1        1.0  0.9015083144714923  0.8380937350412696  0.6284480979095122  1.0000
  C   C2        1.0  0.9441909703920215  0.7782024209625006  0.4119381594322107  1.0000
  C   C3        1.0  0.7298200407357456  0.8597554541938948  0.2859998839107689  1.0000
  C   C4        1.0  0.1000100341775365  0.2428858373556082  0.4442081838323233  1.0000
  C   C5        1.0  0.2940338699544611  0.07591160878585158  0.6459672457447994  1.0000
  C   C6        1.0  0.6743770879671371  0.7810549646765352  0.27886322928971197  1.0000
  C   C7        1.0  0.3526594322088881  0.12914179605311915  0.6282254357283817  1.0000
  C   C8        1.0  0.017234283248932093  0.7691597122099764  0.4238945246870713  1.0000
  C   C9        1.0  0.028760247691160104  0.9103526878097697  0.2980213042200433  1.0000
  C   C10       1.0  0.4828385203446003  0.19332944250998443  0.6115084034802933  1.0000
  C   C11       1.0  0.4397705943547692  0.1469339286888527  0.6439931928237995  1.0000
  C   C12       1.0  0.033463361870502695  0.2504557297846972  0.3973381916179902  1.0000
  C   C13       1.0  0.47936668950027433  0.112693812467981  0.6854149254564277  1.0000
  C   C14       1.0  0.5562832010739313  0.11699373684972153  0.6886581332724404  1.0000
  C   C15       1.0  0.5952096727474298  0.15740555095060665  0.6490510754252911  1.0000
  C   C16       1.0  0.08093439052460379  0.1363214725682766  0.6943769611066557  1.0000
  C   C17       1.0  0.559331442264387  0.19901736989400112  0.6127532915811996  1.0000
  C   C18       1.0  0.5950408529129019  0.07738384925428204  0.7259791686988564  1.0000
  C   C19       1.0  0.6626965705144982  0.07170809954437357  0.7185876247431295  1.0000
  C   C20       1.0  0.6977773262934192  0.10493342004281196  0.6730692512323628  1.0000
  C   C21       1.0  0.665234549837308  0.1513161266313787  0.6412300414530349  1.0000
  C   C22       1.0  0.699761741181689  0.1863267460383398  0.5966847893520324  1.0000
  C   C23       1.0  0.09401905326119218  0.2164245524506043  0.7000737821734261  1.0000
  C   C24       1.0  0.667073045742029  0.23387076410733687  0.5662495941291681  1.0000
  C   C25       1.0  0.5998603967780767  0.24003537704795974  0.5740095075207989  1.0000
  C   C26       1.0  0.758086576369486  0.08899743190295348  0.6547784139536718  1.0000
  C   C27       1.0  0.7863839035947038  0.1163067649615072  0.6050092203522012  1.0000
  C   C28       1.0  0.8628085198672578  0.10111762523616356  0.5199364711929277  1.0000
  C   C29       1.0  0.7595547697189957  0.16821112393927257  0.5797163146413525  1.0000
  C   C30       1.0  0.1001842934124042  0.6928635191753472  0.4185989618108792  1.0000
  C   C31       1.0  0.0216961307973094  0.6918145152824949  0.39560840331851205  1.0000
  C   C32       1.0  0.9469439423186043  0.6134689518169835  0.3524386174854044  1.0000
  C   C33       1.0  0.9485887505002066  0.537617330846679  0.33896039771391157  1.0000
  C   C34       1.0  0.834737843922632  0.08446340409597757  0.5737055151650523  1.0000
  C   C35       1.0  0.0283158114657951  0.5399967987271239  0.3694201682130398  1.0000
  C   C36       1.0  0.10504887134398191  0.6185652762139995  0.4067377285527272  1.0000
  C   C37       1.0  0.8725629014489583  0.4574978562150207  0.300035768412009  1.0000
  C   C38       1.0  0.8732588538156775  0.3845462081278582  0.29680908206104556  1.0000
  C   C39       1.0  0.9534975082450997  0.3876866816530579  0.33390332307644144  1.0000
  C   C40       1.0  0.09166034594209549  0.21328881726861942  0.6295116207728314  1.0000
  C   C41       1.0  0.030901303647595996  0.46552375310017163  0.3670656624357491  1.0000
  C   C42       1.0  0.11049531161757639  0.46856699644911265  0.40170720904501417  1.0000
  C   C43       1.0  0.18842590697167338  0.5472798533459978  0.4333675085668959  1.0000
  C   C44       1.0  0.18414980570992864  0.6184689971251274  0.43508081279778565  1.0000
  C   C45       1.0  0.7186011742103203  0.7785476510803164  0.3463756191630267  1.0000
  C   C46       1.0  0.9574872316306366  0.31795569814008917  0.34188046297217056  1.0000
  C   C47       1.0  0.0348196097807261  0.3217218435669693  0.38131040112885023  1.0000
  C   C48       1.0  0.1105702610678208  0.39635727518399483  0.4074839020310393  1.0000
  C   C49       1.0  0.5908286090868059  0.7178816751523273  0.21680426360428126  1.0000
  C   C50       1.0  0.5664781735807978  0.7169660671271813  0.14431520442511914  1.0000
  C   C51       1.0  0.48734983802579984  0.6577825705002525  0.08298787267613504  1.0000
  C   C52       1.0  0.8522981332449503  0.020112184893164853  0.58094656049812  1.0000
  C   C53       1.0  0.4284255769534083  0.5945743424424492  0.09397937560711973  1.0000
  C   C54       1.0  0.4539201058447233  0.5947738052054632  0.16659700171528877  1.0000
  C   C55       1.0  0.5322324604492933  0.6549431075369867  0.2268707076388452  1.0000
  C   C56       1.0  0.3039339953245772  0.15365722398335177  0.582415137211605  1.0000
  C   C57       1.0  0.1960486354090563  0.36308210532102686  0.9066058157220381  1.0000
  C   C58       1.0  0.14652226708686558  0.2894448560545938  0.8401794307197931  1.0000
  C   C59       1.0  0.14178407218847872  0.3693539159457658  0.766724794704743  1.0000
  C   C60       1.0  0.1915591366559681  0.4432862180147978  0.8334070707192468  1.0000
  C   C61       1.0  0.22511145291625917  0.4423386372400699  0.9046400376469278  1.0000
  C   C62       1.0  0.3469620773994748  0.5245031187922538  0.034205709040897175  1.0000
  C   C63       1.0  0.2954995116183312  0.519729499312156  0.9687005582645443  1.0000
  C   C64       1.0  0.9604158785044206  0.1739375160293264  0.37347892349195894  1.0000
  C   C65       1.0  0.1232222594065746  0.2908243117115035  0.7682130957160851  1.0000
  C   C66       1.0  0.956091578710236  0.8120543612590012  0.7477476365261496  1.0000
  C   C67       1.0  0.08365362081858048  0.8486386774087438  0.480658779335471  1.0000
  C   C68       1.0  0.021854275505766893  0.8013937285818148  0.789775514969179  1.0000
  C   C69       1.0  0.021799265054738698  0.7782740555002263  0.8491930031258691  1.0000
  C   C70       1.0  0.9530876089426243  0.7654414042654525  0.8687609900832244  1.0000
  C   C71       1.0  0.8814412329519072  0.7663985371544442  0.8207311108995158  1.0000
  C   C72       1.0  0.884534756235368  0.7903690352261492  0.7622401234790814  1.0000
  C   C73       1.0  0.9549393219823088  0.7716384986945924  0.09277215835789573  1.0000
  C   C74       1.0  0.9572505108057638  0.7999343407087167  0.1641663711706085  1.0000
  C   C75       1.0  0.10476285557416531  0.9029056771648242  0.21691398168138684  1.0000
  C   C76       1.0  0.04053944848060099  0.9023717151015451  0.695774250545469  1.0000
  C   C77       1.0  0.10252424281816987  0.8743119677561281  0.14554682057050172  1.0000
  C   C78       1.0  0.9562833310748927  0.9056174351650554  0.3071081306764754  1.0000
  C   C79       1.0  0.0265701053083305  0.8111355393004089  0.0807863646704661  1.0000
  C   C80       1.0  0.9546674908024783  0.7587208895447972  0.9388484395900035  1.0000
  C   C81       1.0  0.024727160107410398  0.7982111106939201  0.006445162473632108  1.0000
  C   C82       1.0  0.031037765592032  0.8691341074944534  0.22737265387551986  1.0000
  C   C83       1.0  0.9643133188004213  0.8471145836914927  0.6930895382622069  1.0000
  C   C84       1.0  0.19339865665423156  0.3017964301227352  0.4890340459813274  1.0000
  C   C85       1.0  0.7919179945403343  0.30212724863770285  0.2574795224377339  1.0000
  C   C86       1.0  0.2730184990977591  0.5510121253415079  0.4664614872315127  1.0000
  C   C87       1.0  0.4710738204396988  0.6610002687696479  0.0071575127840688086  1.0000
  C   C88       1.0  0.8035787529840873  0.7470624403960286  0.8346386866956194  1.0000
  C   C89       1.0  0.09664411558104287  0.974028951138685  0.3683528889314688  1.0000
  C   C90       1.0  0.0949041624819245  0.7664045226833878  0.8887820831437167  1.0000
  N   N1        1.0  0.9376754910380709  0.8837748029836517  0.5953197639349809  1.0000
  N   N2        1.0  0.07316149475292381  0.09091058389272183  0.6266158072314666  1.0000
  N   N3        1.0  0.893204984655398  0.049929304997568986  0.4970435593011331  1.0000
  N   N4        1.0  0.079733466918249  0.1381449154605008  0.5867836284260902  1.0000
  N   N5        1.0  0.8867284788959748  0.00011766129523472471  0.534491855457169  1.0000
  N   N6        1.0  0.980785704819439  0.12486535797938787  0.4029257325358912  1.0000
  N   N7        1.0  0.0242854015871927  0.9240972167642525  0.6376431504048553  1.0000
  N   N8        1.0  0.7937236351204076  0.8497803918202252  0.3898196573890543  1.0000
  N   N9        1.0  0.22361200846762586  0.11804469417014465  0.5737419185018809  1.0000
  N   N10       1.0  0.05186749808512298  0.8993975288691305  0.5010757680653058  1.0000
  N   N11       1.0  0.9798288675616929  0.9627959379585674  0.3764109046396697  1.0000
  N   N12       1.0  0.06602290246900822  0.004666396702319305  0.41413670421014365  1.0000
  N   N13       1.0  0.9661459447873211  0.8560753574792697  0.4589001201824061  1.0000
  N   N14       1.0  0.8004724597501607  0.9004632580078181  0.3522752007382551  1.0000
  N   N15       1.0  0.2172078990397708  0.06947846440350959  0.6133075370412655  1.0000
  N   N16       1.0  0.0671269339616742  0.1674730703651122  0.4464847106129355  1.0000
