data_image0
_chemical_formula_structural       Co4H64C64N16
_chemical_formula_sum              "Co4 H64 C64 N16"
_cell_length_a       7.430705075656348
_cell_length_b       18.734517627519153
_cell_length_c       18.734179261837753
_cell_angle_alpha    89.99969708567404
_cell_angle_beta     89.99895888490961
_cell_angle_gamma    90.00219204851008

_space_group_name_H-M_alt    "P 1"
_space_group_IT_number       1

loop_
  _space_group_symop_operation_xyz
  'x, y, z'

loop_
  _atom_site_type_symbol
  _atom_site_label
  _atom_site_symmetry_multiplicity
  _atom_site_fract_x
  _atom_site_fract_y
  _atom_site_fract_z
  _atom_site_occupancy
  Co  Co1       1.0  0.25000284465296835  0.25000072654891176  0.2500072550828066  1.0000
  Co  Co2       1.0  0.7499890458247691  0.25000183687937044  0.24999797922286857  1.0000
  Co  Co3       1.0  0.750003151302309  0.7500011121115194  0.7500014814890861  1.0000
  Co  Co4       1.0  0.24999810992336793  0.7500037380981797  0.7499952776790408  1.0000
  H   H1        1.0  0.07176175433171039  0.12532280046211505  0.9679414664788695  1.0000
  H   H2        1.0  0.07174746869764453  0.3746807868066285  0.5320588888793054  1.0000
  H   H3        1.0  0.4282124107069407  0.3746753895964546  0.9679379207934673  1.0000
  H   H4        1.0  0.9282669127549144  0.5320458785061106  0.3746874016632518  1.0000
  H   H5        1.0  0.5717438704707831  0.5320497145873871  0.1253145387850552  1.0000
  H   H6        1.0  0.5717538817524926  0.9679519253037228  0.3746768594618288  1.0000
  H   H7        1.0  0.9282560428433229  0.9679494077826404  0.1253104998481405  1.0000
  H   H8        1.0  0.42819685897684684  0.12531490405800844  0.5320700058663093  1.0000
  H   H9        1.0  0.9282967273396494  0.8746870452528837  0.0320496550196623  1.0000
  H   H10       1.0  0.9282491064443406  0.6253109100806287  0.46794771261845375  1.0000
  H   H11       1.0  0.5717666696903337  0.6253109694741782  0.0320473294324657  1.0000
  H   H12       1.0  0.0717485029499727  0.46794261587622565  0.6253202673424881  1.0000
  H   H13       1.0  0.4282056025794532  0.4679313064946131  0.8746797858850784  1.0000
  H   H14       1.0  0.4281713678126239  0.03203710219939639  0.6253201341931246  1.0000
  H   H15       1.0  0.0717849435592939  0.0320556338262961  0.8746832906448034  1.0000
  H   H16       1.0  0.5717754930033295  0.8746869343721216  0.46792965650356433  1.0000
  H   H17       1.0  0.3019610315898121  0.1948862986898448  0.03960781744871161  1.0000
  H   H18       1.0  0.3019177079116204  0.30511006807002167  0.46038923709849666  1.0000
  H   H19       1.0  0.1981094667733103  0.305113064860592  0.0396185762774834  1.0000
  H   H20       1.0  0.698047313526189  0.46038408390038654  0.305112381502191  1.0000
  H   H21       1.0  0.8019874843291606  0.4603995728741312  0.1948915389731667  1.0000
  H   H22       1.0  0.801887882205506  0.0396262371572718  0.3051061799089965  1.0000
  H   H23       1.0  0.698073876717551  0.039609730679281106  0.19488768795009292  1.0000
  H   H24       1.0  0.198043358374683  0.19488119793793862  0.4604080516289386  1.0000
  H   H25       1.0  0.6980759170325044  0.8051134051223201  0.9603955811799524  1.0000
  H   H26       1.0  0.6981004000077675  0.6948907031464914  0.539614695379008  1.0000
  H   H27       1.0  0.801916715880573  0.6948909090586428  0.9603864237298936  1.0000
  H   H28       1.0  0.30193445866973423  0.5396097480164813  0.6948771389640882  1.0000
  H   H29       1.0  0.19804004436366537  0.5396054686288565  0.8051038529194801  1.0000
  H   H30       1.0  0.19808312535168682  0.9603942834064729  0.694874266202234  1.0000
  H   H31       1.0  0.3019361567079315  0.9603910404889077  0.8051114405030049  1.0000
  H   H32       1.0  0.8019357213246819  0.8051046272809758  0.5396065567033119  1.0000
  H   H33       1.0  0.41861129448630413  0.18819290366548103  0.12127418937885891  1.0000
  H   H34       1.0  0.41858581533082173  0.3118014902094616  0.3787294968301964  1.0000
  H   H35       1.0  0.0813652988978859  0.31180656113210153  0.12126547063532202  1.0000
  H   H36       1.0  0.5813920960325448  0.37871948588412624  0.3118088010315105  1.0000
  H   H37       1.0  0.9185850007977339  0.3787239627401817  0.1881976864824608  1.0000
  H   H38       1.0  0.9186141178326325  0.12127425328525733  0.3118087992447514  1.0000
  H   H39       1.0  0.5813905369032355  0.12126936234784579  0.18819104225475775  1.0000
  H   H40       1.0  0.0813964848021769  0.18818860649481908  0.3787390461460802  1.0000
  H   H41       1.0  0.5814108509784149  0.8118121377784604  0.8787281417216306  1.0000
  H   H42       1.0  0.5813932653308739  0.6881971456270152  0.6212701655238817  1.0000
  H   H43       1.0  0.9186057073394097  0.6881952772906742  0.8787331241719514  1.0000
  H   H44       1.0  0.4186287030320557  0.6212679410302473  0.688183922013323  1.0000
  H   H45       1.0  0.08136850998712929  0.6212682676154204  0.8118014421970232  1.0000
  H   H46       1.0  0.0813703472524665  0.8787468011345324  0.6881791197886927  1.0000
  H   H47       1.0  0.41863295465771705  0.8787399493130721  0.8118059509923301  1.0000
  H   H48       1.0  0.9186027818175474  0.811804691719509  0.6212734269587301  1.0000
  H   H49       1.0  0.3624537966433294  0.10965255791319353  0.07160228730831622  1.0000
  H   H50       1.0  0.36247940400549084  0.39034472381857915  0.42840447262070563  1.0000
  H   H51       1.0  0.1375412200741479  0.3903461021486906  0.0715943497062383  1.0000
  H   H52       1.0  0.6375233119422533  0.428398590333444  0.3903510060519153  1.0000
  H   H53       1.0  0.8625070427150803  0.4284063708092206  0.1096578875837793  1.0000
  H   H54       1.0  0.8624712314218071  0.07159419964140312  0.3903452663048199  1.0000
  H   H55       1.0  0.6375232303755708  0.07159430909069191  0.1096511013333057  1.0000
  H   H56       1.0  0.13753157477798789  0.10964831307659041  0.4284060256122615  1.0000
  H   H57       1.0  0.6375441250478104  0.890353017123154  0.9283995100943869  1.0000
  H   H58       1.0  0.6375265920010663  0.6096533784500762  0.5715941220702732  1.0000
  H   H59       1.0  0.862468813644611  0.6096546690533701  0.9283919679374435  1.0000
  H   H60       1.0  0.3624490400253038  0.5715984441553205  0.6096390482235918  1.0000
  H   H61       1.0  0.13750029885346754  0.5715879950481906  0.8903417746796761  1.0000
  H   H62       1.0  0.13755629692386862  0.9283996326283769  0.6096415850778385  1.0000
  H   H63       1.0  0.36247738247339367  0.9284027255848744  0.8903490947310858  1.0000
  H   H64       1.0  0.8624946074418035  0.8903439178282969  0.5715931028051742  1.0000
  C   C1        1.0  0.042519263481445115  0.07011695637647358  0.9824371486777822  1.0000
  C   C2        1.0  0.0424665760274863  0.42987924947320294  0.5175644852950186  1.0000
  C   C3        1.0  0.4575228715900153  0.42987315092410233  0.9824352352047329  1.0000
  C   C4        1.0  0.9575084714577359  0.517556656051852  0.4298837744343018  1.0000
  C   C5        1.0  0.5425022549676585  0.5175630108685069  0.0701091682720261  1.0000
  C   C6        1.0  0.542455965503784  0.9824493958116494  0.42987923832993863  1.0000
  C   C7        1.0  0.9575486333168614  0.9824390726573001  0.0701192538466842  1.0000
  C   C8        1.0  0.4574649569604787  0.07010530867824372  0.5175794194481328  1.0000
  C   C9        1.0  0.9575526755176967  0.9298870179182541  0.0175566417063635  1.0000
  C   C10       1.0  0.9575178870183764  0.5701097784450226  0.48244478517209893  1.0000
  C   C11       1.0  0.5424548628426394  0.570107870402566  0.017547346121539003  1.0000
  C   C12       1.0  0.04246791702090041  0.4824323718095729  0.5701238947107541  1.0000
  C   C13       1.0  0.45747817074821745  0.48241534159396326  0.9298787508888396  1.0000
  C   C14       1.0  0.45750696610198827  0.0175465710647984  0.5701081470637348  1.0000
  C   C15       1.0  0.0425152308312065  0.017563834005642303  0.9298830771090111  1.0000
  C   C16       1.0  0.5424885536364883  0.9298805164024418  0.4824143714110249  1.0000
  C   C17       1.0  2.2903808975599997e-05  0.053740232953408906  0.0537358655315288  1.0000
  C   C18       1.0  0.9999932102614578  0.44625806046388317  0.4462699024818164  1.0000
  C   C19       1.0  0.49998504282730494  0.44625585283327507  0.0537218158865116  1.0000
  C   C20       1.0  0.5000108846823538  0.05373229877463359  0.44626473601231004  1.0000
  C   C21       1.0  3.491456966030002e-05  0.9462695269904632  0.9462711388645103  1.0000
  C   C22       1.0  0.9999946073575503  0.5537273168187512  0.5537266877903236  1.0000
  C   C23       1.0  0.49997519633139825  0.5537230332422284  0.9462693060480944  1.0000
  C   C24       1.0  0.4999964573673594  0.9462684723915589  0.553727453262063  1.0000
  C   C25       1.0  1.48970017904e-05  0.10913089076970553  0.1091259225778742  1.0000
  C   C26       1.0  0.999978339324592  0.3908700713648444  0.3908723725387518  1.0000
  C   C27       1.0  0.5000281954410539  0.39087717914069503  0.10912390874519672  1.0000
  C   C28       1.0  0.49998657344979597  0.10913552615402011  0.390886663288434  1.0000
  C   C29       1.0  4.0229930554900006e-05  0.8908799367062273  0.8908794804738704  1.0000
  C   C30       1.0  1.150721159600001e-05  0.6091210917271044  0.609123019526443  1.0000
  C   C31       1.0  0.4999374274469446  0.6091203890402498  0.8908778887951244  1.0000
  C   C32       1.0  0.5000167317512947  0.8908796568537203  0.6091162016369083  1.0000
  C   C33       1.0  0.1397559145837377  0.15678138144379974  0.1258983787596293  1.0000
  C   C34       1.0  0.13974849235010106  0.343222675194724  0.3741083859582801  1.0000
  C   C35       1.0  0.3602379626223353  0.34324101125299933  0.1259136382271819  1.0000
  C   C36       1.0  0.8602529811289017  0.3741000945705437  0.34322738535433234  1.0000
  C   C37       1.0  0.6397277063336803  0.37412294050513856  0.1567919373249538  1.0000
  C   C38       1.0  0.6397692896213129  0.12591002552127858  0.3432453836325067  1.0000
  C   C39       1.0  0.8602559995396601  0.1258956381332581  0.156775250879015  1.0000
  C   C40       1.0  0.36029188833699527  0.15679146619924472  0.3741256982939802  1.0000
  C   C41       1.0  0.8602554646094661  0.8432241936745015  0.8741108915667012  1.0000
  C   C42       1.0  0.860258849006513  0.6567700893249011  0.6258971479303883  1.0000
  C   C43       1.0  0.6397209318311354  0.6567747051409185  0.8741089768547355  1.0000
  C   C44       1.0  0.13974897771574035  0.6259001427681739  0.6567696079943844  1.0000
  C   C45       1.0  0.36023657161992156  0.6258986474613478  0.843224272317329  1.0000
  C   C46       1.0  0.36028246291920857  0.8741040902776688  0.6567676230117456  1.0000
  C   C47       1.0  0.13974326726194872  0.8740971263309802  0.843228147903865  1.0000
  C   C48       1.0  0.6397558271247378  0.8432285210770659  0.6258899772679458  1.0000
  C   C49       1.0  0.31586551092701143  0.16259187512947904  0.0883866108494402  1.0000
  C   C50       1.0  0.31583696796371197  0.33740950589921687  0.4116124784906532  1.0000
  C   C51       1.0  0.1841489238224909  0.337413101571265  0.0883930291678254  1.0000
  C   C52       1.0  0.6841330160729556  0.41160708368114035  0.33741021246763847  1.0000
  C   C53       1.0  0.8158755267243123  0.4116218860507318  0.16259343214822766  1.0000
  C   C54       1.0  0.8158451107248724  0.08839719536120332  0.3374143282360933  1.0000
  C   C55       1.0  0.6841550146034051  0.08838545297850692  0.1625872884321282  1.0000
  C   C56       1.0  0.18413036934106944  0.16259055849366183  0.411627293817368  1.0000
  C   C57       1.0  0.6841700922502979  0.8374142339629458  0.9116162539834249  1.0000
  C   C58       1.0  0.6841542245549236  0.6625891300231644  0.588389318954647  1.0000
  C   C59       1.0  0.8158274654243627  0.6625892706564045  0.9116093021047079  1.0000
  C   C60       1.0  0.31586355950091155  0.5883862145693043  0.6625809092978514  1.0000
  C   C61       1.0  0.18410489993726742  0.5883815537626803  0.8374062301883002  1.0000
  C   C62       1.0  0.18414877437945884  0.9116201226914386  0.6625810637454137  1.0000
  C   C63       1.0  0.3158846259355457  0.9116201223802279  0.8374118399015131  1.0000
  C   C64       1.0  0.8158581314746699  0.8374091449311366  0.5883841117418813  1.0000
  N   N1        1.0  0.0877683453199936  0.19885078020829644  0.18132602330533132  1.0000
  N   N2        1.0  0.08775535030309811  0.301154091816791  0.3186773798651927  1.0000
  N   N3        1.0  0.41222030229025114  0.301164914043298  0.1813427316122613  1.0000
  N   N4        1.0  0.9122369067280971  0.31867830173440137  0.3011545111392451  1.0000
  N   N5        1.0  0.587763983657915  0.3186915990910819  0.19886777336215292  1.0000
  N   N6        1.0  0.5877684498351315  0.18133577714929322  0.3011683211415175  1.0000
  N   N7        1.0  0.9122433654551259  0.1813262234578659  0.1988466825965318  1.0000
  N   N8        1.0  0.4122350831431661  0.1988582072242053  0.3186983653266466  1.0000
  N   N9        1.0  0.9122228474392247  0.8011510583684754  0.8186720376454275  1.0000
  N   N10       1.0  0.9122223846758147  0.6988488141880753  0.6813276203197063  1.0000
  N   N11       1.0  0.5877628161379107  0.698852403865864  0.8186761468919955  1.0000
  N   N12       1.0  0.0877906219637197  0.6813310099372674  0.6988499550654412  1.0000
  N   N13       1.0  0.41218549066213944  0.681326252343503  0.8011489701271088  1.0000
  N   N14       1.0  0.4122173600078726  0.8186778043686687  0.6988478884442842  1.0000
  N   N15       1.0  0.0877962750904331  0.8186772168172355  0.8011476416892195  1.0000
  N   N16       1.0  0.5877884078815327  0.8011516381458608  0.681323181970413  1.0000
