data_image0
_chemical_formula_structural       Mo2H30C40N2O8
_chemical_formula_sum              "Mo2 H30 C40 N2 O8"
_cell_length_a       8.167298798461987
_cell_length_b       10.271474831444177
_cell_length_c       11.983411164982623
_cell_angle_alpha    113.01346285190691
_cell_angle_beta     90.84465681576583
_cell_angle_gamma    108.64099651260076

_space_group_name_H-M_alt    "P 1"
_space_group_IT_number       1

loop_
  _space_group_symop_operation_xyz
  'x, y, z'

loop_
  _atom_site_type_symbol
  _atom_site_label
  _atom_site_symmetry_multiplicity
  _atom_site_fract_x
  _atom_site_fract_y
  _atom_site_fract_z
  _atom_site_occupancy
  Mo  Mo1       1.0  0.057652078199772874  0.9231661661708017  0.9408483051558678  1.0000
  Mo  Mo2       1.0  0.942348651764  0.07684382484060139  0.05915373156064871  1.0000
  H   H1        1.0  0.37968835798884015  0.7761243770695572  0.00542981617025613  1.0000
  H   H2        1.0  0.6202955077074532  0.22388034612565377  0.9945568553065913  1.0000
  H   H3        1.0  0.09765948616529127  0.5618594911749141  0.9455525336339864  1.0000
  H   H4        1.0  0.9023337812487854  0.43814725522472736  0.05444328751442378  1.0000
  H   H5        1.0  0.08809524124330179  0.29829737086935637  0.8259139623094358  1.0000
  H   H6        1.0  0.9119089625836522  0.7017033028854697  0.17409488523508532  1.0000
  H   H7        1.0  0.36209195231851515  0.25078491070942727  0.767038325029617  1.0000
  H   H8        1.0  0.6379224348670435  0.7492255918187072  0.23298740366483636  1.0000
  H   H9        1.0  0.6436125424680341  0.4686118522030753  0.823719071916827  1.0000
  H   H10       1.0  0.3563936284729222  0.5314024252954183  0.17629369448700058  1.0000
  H   H11       1.0  0.2730117425103487  0.7553425679976087  0.18350363629306796  1.0000
  H   H12       1.0  0.7269768652524888  0.24464704870582213  0.8164928531292974  1.0000
  H   H13       1.0  0.36720688038746363  0.7099345778390713  0.3601143270918072  1.0000
  H   H14       1.0  0.632773106820636  0.29004605592179894  0.6398772766406255  1.0000
  H   H15       1.0  0.33550796024710655  0.8658068901735093  0.5714438532810605  1.0000
  H   H16       1.0  0.6644861336324867  0.13417823092100184  0.42854862645078395  1.0000
  H   H17       1.0  0.20888934519027905  0.0662761068000179  0.6075556256139196  1.0000
  H   H18       1.0  0.7911342307134176  0.9337269650335781  0.39244508073100076  1.0000
  H   H19       1.0  0.11429172660913879  0.11133319435611361  0.43183014892470356  1.0000
  H   H20       1.0  0.8857332280111123  0.8886732094542537  0.5681742350505417  1.0000
  H   H21       1.0  0.9612142587351897  0.5988768844139472  0.7027156441761309  1.0000
  H   H22       1.0  0.03878368649024817  0.4011204993289255  0.2972886540002548  1.0000
  H   H23       1.0  0.08355970811494728  0.41946437921487245  0.5544482289764903  1.0000
  H   H24       1.0  0.916439689238281  0.5805306126177641  0.4455602601674756  1.0000
  H   H25       1.0  0.5902483545474765  0.7792321685050679  0.6861086706958304  1.0000
  H   H26       1.0  0.4097494800018851  0.2207619774968208  0.31388782298813583  1.0000
  H   H27       1.0  0.44595106615609836  0.9417340455865286  0.8280752810421533  1.0000
  H   H28       1.0  0.5540526406709532  0.058262439352382976  0.1719179154908091  1.0000
  H   H29       1.0  0.323331611997176  0.3675665876768902  0.4606525968219942  1.0000
  H   H30       1.0  0.6766643201711415  0.6324229760533198  0.5393447864169474  1.0000
  C   C1        1.0  0.5285263329750122  0.6348793374560842  0.9167692380569935  1.0000
  C   C2        1.0  0.471473045740339  0.3651273814225462  0.08322663828832326  1.0000
  C   C3        1.0  0.3748950361097627  0.6609765218168207  0.9526603635751986  1.0000
  C   C4        1.0  0.6251021369457703  0.33903372508316926  0.047331709059633874  1.0000
  C   C5        1.0  0.2169785842429164  0.5401658414591495  0.9192401357646036  1.0000
  C   C6        1.0  0.7830210058649881  0.45984433458843904  0.08075444168987639  1.0000
  C   C7        1.0  0.2116118410712957  0.39245565259095366  0.8515119126485475  1.0000
  C   C8        1.0  0.7883852037996277  0.6075543150370636  0.14849174611042318  1.0000
  C   C9        1.0  0.3647356000740131  0.36600059605346047  0.8170023987544469  1.0000
  C   C10       1.0  0.6352573460749795  0.6340024538012442  0.183004652248357  1.0000
  C   C11       1.0  0.5224191247844773  0.4866199367774015  0.8485491502969043  1.0000
  C   C12       1.0  0.4775775430815443  0.5133832162526772  0.15145296834225522  1.0000
  C   C13       1.0  0.6953664966877396  0.7619576705811255  0.9496852333935949  1.0000
  C   C14       1.0  0.30462884803865364  0.23805115199617433  0.05031884360982271  1.0000
  C   C15       1.0  0.18913589521977764  0.9372850801944066  0.2968334276477548  1.0000
  C   C16       1.0  0.810870044735225  0.06270793656712928  0.7031610898548026  1.0000
  C   C17       1.0  0.2605142887823106  0.8235006292399235  0.2767733216282977  1.0000
  C   C18       1.0  0.7394799615535774  0.17648782933556356  0.7232228246944958  1.0000
  C   C19       1.0  0.3115753502580246  0.7977439467496694  0.3753268354424861  1.0000
  C   C20       1.0  0.6884168601932713  0.20224551380516684  0.624675480160093  1.0000
  C   C21       1.0  0.2935409962313996  0.8851101148287341  0.49449148413702915  1.0000
  C   C22       1.0  0.7064592736824195  0.11488400021674745  0.5055058592059967  1.0000
  C   C23       1.0  0.224239862521564  0.9988464056390495  0.5149474524836534  1.0000
  C   C24       1.0  0.7757698455713324  0.001155695873855197  0.4850485962301364  1.0000
  C   C25       1.0  0.17203961737435236  0.0250247273301625  0.4169986371949791  1.0000
  C   C26       1.0  0.8279774059679851  0.9749773012615247  0.5829991329156813  1.0000
  C   C27       1.0  0.1261402948430614  0.9610480407074533  0.19299378940004175  1.0000
  C   C28       1.0  0.8738579075551484  0.03895289994436979  0.8070050719840369  1.0000
  C   C29       1.0  0.10018038630620645  0.6344064572219138  0.6949550853607036  1.0000
  C   C30       1.0  0.8998207661278032  0.36558979934942915  0.30504802005705056  1.0000
  C   C31       1.0  0.16896676852492473  0.5349795700151033  0.612513792589013  1.0000
  C   C32       1.0  0.8310312775798889  0.4650121496847531  0.3874885361837458  1.0000
  C   C33       1.0  0.34816868786469246  0.5844151550211902  0.6038594525655441  1.0000
  C   C34       1.0  0.6518255533151488  0.41557328360630663  0.39613752133753627  1.0000
  C   C35       1.0  0.4499136264631289  0.7338050939499254  0.6849649596182986  1.0000
  C   C36       1.0  0.5500885366756876  0.2661935834192377  0.31503232175003865  1.0000
  C   C37       1.0  0.370371348069213  0.825132432903601  0.7649619067886492  1.0000
  C   C38       1.0  0.6296326160935023  0.1748617254732636  0.23503298693162128  1.0000
  C   C39       1.0  0.4173688883907687  0.4820678912306633  0.5127239210986333  1.0000
  C   C40       1.0  0.5826279537658792  0.5179238738693925  0.4872767414741476  1.0000
  N   N1        1.0  0.19766245602712462  0.7780425510476119  0.7695977388207353  1.0000
  N   N2        1.0  0.8023396979556524  0.221956106373554  0.23040037012790293  1.0000
  O   O1        1.0  0.8296182903137106  0.7375331976975302  0.9017473593254551  1.0000
  O   O2        1.0  0.17038449848738677  0.2624847130665202  0.09825745442703489  1.0000
  O   O3        1.0  0.706096524436397  0.8962636631353433  0.024268264869334484  1.0000
  O   O4        1.0  0.2938934625207493  0.10374405085185147  0.9757353696800809  1.0000
  O   O5        1.0  0.15519978372683582  0.8882579007525206  0.08407631769988182  1.0000
  O   O6        1.0  0.8448003485205433  0.11174768201497899  0.915919171388332  1.0000
  O   O7        1.0  0.0400489573532781  0.0510032628313937  0.21129345195689817  1.0000
  O   O8        1.0  0.9599554578662294  0.9490008680923977  0.7887140966967936  1.0000
