data_image0
_chemical_formula_structural       Al4H28C45N2O20
_chemical_formula_sum              "Al4 H28 C45 N2 O20"
_cell_length_a       6.664178919766842
_cell_length_b       15.325536428753677
_cell_length_c       17.605933599475225
_cell_angle_alpha    78.42910042607328
_cell_angle_beta     85.00806010234521
_cell_angle_gamma    86.78991670349596

_space_group_name_H-M_alt    "P 1"
_space_group_IT_number       1

loop_
  _space_group_symop_operation_xyz
  'x, y, z'

loop_
  _atom_site_type_symbol
  _atom_site_label
  _atom_site_symmetry_multiplicity
  _atom_site_fract_x
  _atom_site_fract_y
  _atom_site_fract_z
  _atom_site_occupancy
  Al  Al1       1.0  0.8625159209072139  0.4998730008004769  0.5005406529889599  1.0000
  Al  Al2       1.0  0.3632356618868117  0.49978715710899724  0.5014023651952115  1.0000
  Al  Al3       1.0  0.3726694799026191  0.9986509700025296  0.9980440419369714  1.0000
  Al  Al4       1.0  0.8699770900259696  0.9999318264389029  0.9983906384091628  1.0000
  H   H1        1.0  0.7718001514236692  0.10422953653652908  0.2014049959085753  1.0000
  H   H2        1.0  0.5022946737518839  0.3154177460768537  0.18821310062236316  1.0000
  H   H3        1.0  0.7389971325704325  0.19703786249721844  0.3040157787860522  1.0000
  H   H4        1.0  0.47136074257128524  0.4028775875083567  0.29404948433764844  1.0000
  H   H5        1.0  0.8788827827834284  0.30749492357138297  0.367927622037378  1.0000
  H   H6        1.0  0.30206155861277767  0.19570750894570213  0.6399907190268976  1.0000
  H   H7        1.0  0.47187166838572386  0.21780058332818433  0.7780818233934426  1.0000
  H   H8        1.0  0.26147376422756713  0.3871792559191575  0.7642620159443041  1.0000
  H   H9        1.0  0.9309844651637323  0.3009397833794053  0.8595889527383563  1.0000
  H   H10       1.0  0.7614499343889138  0.2787232971601625  0.7221262855401349  1.0000
  H   H11       1.0  0.9722649860361655  0.10969640593362577  0.7352992525498723  1.0000
  H   H12       1.0  0.6225152343204173  0.9002575351372711  0.27371917163566206  1.0000
  H   H13       1.0  0.3254544725365208  0.7742937229229411  0.34024106203678883  1.0000
  H   H14       1.0  0.6082609593375709  0.5962937657906693  0.22622819629387433  1.0000
  H   H15       1.0  0.8995808115830288  0.7248234739334548  0.15773939641105983  1.0000
  H   H16       1.0  0.9296706880184402  0.764685050376478  0.3077478135889252  1.0000
  H   H17       1.0  0.38079120875566735  0.8109327441791193  0.8683069566310948  1.0000
  H   H18       1.0  0.984107576654964  0.8938015776489434  0.7954136936135825  1.0000
  H   H19       1.0  0.22977917584092486  0.700642931861381  0.8054044217771761  1.0000
  H   H20       1.0  0.009239432925390614  0.8003365803891426  0.6935583624396103  1.0000
  H   H21       1.0  0.2546152789295917  0.6071505905261532  0.7036373660570518  1.0000
  H   H22       1.0  0.857685226571853  0.690128828526504  0.6304005618892604  1.0000
  H   H23       1.0  0.16597980807043206  0.6884857219028858  0.21791534967331222  1.0000
  H   H24       1.0  0.27625685896887836  0.7239090349068603  0.12970325152116396  1.0000
  H   H25       1.0  0.6171477974313435  0.3861628178081418  0.5390604461042799  1.0000
  H   H26       1.0  0.1068049762235574  0.6159507729017407  0.4699183706413521  1.0000
  H   H27       1.0  0.6041211473845679  0.1120223692862368  0.012541781060207292  1.0000
  H   H28       1.0  0.12113609460735832  0.8910405749372146  0.04728359254085751  1.0000
  C   C1        1.0  0.6287649004762771  0.6203669458889607  0.38976381140023625  1.0000
  C   C2        1.0  0.5721955951231197  0.589434030214363  0.5997292999619007  1.0000
  C   C3        1.0  0.0962062724049275  0.37960693988321026  0.6120300004068896  1.0000
  C   C4        1.0  0.1554411811095733  0.4123556581100941  0.4003554242652286  1.0000
  C   C5        1.0  0.06658057527760523  0.14809730855720454  0.15643961230728112  1.0000
  C   C6        1.0  0.17191486287731553  0.3598746283173567  0.33682982143039913  1.0000
  C   C7        1.0  0.36672044545104404  0.31289308762529794  0.22790130679131693  1.0000
  C   C8        1.0  0.34966555185052783  0.36176032240901174  0.28599111039294206  1.0000
  C   C9        1.0  0.01514514949653291  0.30784506116717836  0.32876605634103845  1.0000
  C   C10       1.0  0.030869835789573613  0.25447956862729626  0.2714080783770854  1.0000
  C   C11       1.0  0.20972567772265904  0.25740428794139086  0.2194478089318324  1.0000
  C   C12       1.0  0.22363701787456597  0.20309238732101417  0.1614865890524086  1.0000
  C   C13       1.0  0.891624482312679  0.1468685495697528  0.2081047480256828  1.0000
  C   C14       1.0  0.8742488570471354  0.1983279649428695  0.2641807340884199  1.0000
  C   C15       1.0  0.3149095086148037  0.23220592091855252  0.7646415106986524  1.0000
  C   C16       1.0  0.22057695112884806  0.21808118908396065  0.689773125129868  1.0000
  C   C17       1.0  0.10075043587315241  0.3104297407751416  0.6835995535868735  1.0000
  C   C18       1.0  0.1977980080806533  0.3245529173711147  0.7590556651109426  1.0000
  C   C19       1.0  0.013225273055063314  0.2787314931910103  0.8099043197186405  1.0000
  C   C20       1.0  0.9188980131761257  0.2646087524963718  0.7350266100277666  1.0000
  C   C21       1.0  0.03602472386922531  0.1722653608658504  0.7406026573933532  1.0000
  C   C22       1.0  0.13281841639886952  0.18648989433557966  0.8159805471038126  1.0000
  C   C23       1.0  0.45409006827411263  0.7634099905270658  0.29966655849699464  1.0000
  C   C24       1.0  0.6191253022341742  0.8319987693760496  0.2641571902695716  1.0000
  C   C25       1.0  0.6059835545322232  0.808033880654065  0.18127710442211512  1.0000
  C   C26       1.0  0.4390336364974135  0.7397549612728936  0.2178365358909176  1.0000
  C   C27       1.0  0.6118012882574748  0.6646994238429114  0.23567091906208051  1.0000
  C   C28       1.0  0.774392763035806  0.7338843053545787  0.2000100196089321  1.0000
  C   C29       1.0  0.7898708842080425  0.757788428894436  0.2816138141308003  1.0000
  C   C30       1.0  0.6241780349797497  0.6896873930118658  0.3181954780644389  1.0000
  C   C31       1.0  0.6796683266054873  0.8567616545039056  0.8375697727326498  1.0000
  C   C32       1.0  0.5587838164701895  0.6442967995949117  0.6611871821875115  1.0000
  C   C33       1.0  0.3661825433354338  0.6987778019148081  0.7665986668221195  1.0000
  C   C34       1.0  0.379466942418766  0.6469945264429809  0.710769512891595  1.0000
  C   C35       1.0  0.7208683628723237  0.6939504546334732  0.668567907152962  1.0000
  C   C36       1.0  0.7099191170529409  0.7493219076329749  0.7242233437538417  1.0000
  C   C37       1.0  0.5287138542552442  0.751800202119334  0.774445511439204  1.0000
  C   C38       1.0  0.5176074982000289  0.8071520813066188  0.8301087571219768  1.0000
  C   C39       1.0  0.8591335785949213  0.8541012222389809  0.7880447475377254  1.0000
  C   C40       1.0  0.8725107491039739  0.8023062788143136  0.7321900396325773  1.0000
  C   C41       1.0  0.6652277687088033  0.9114101014547483  0.8992160007366792  1.0000
  C   C42       1.0  0.6038464058695896  0.8776012929464725  0.1095952666194151  1.0000
  C   C43       1.0  0.0790512003743586  0.09046744303625329  0.09663023329243002  1.0000
  C   C44       1.0  0.1384556222611764  0.11713487999101346  0.8875691146296987  1.0000
  C   C45       1.0  0.40070204350758604  0.20948906515167914  0.1090805706868281  1.0000
  N   N1        1.0  0.5505033039227457  0.2220836818891172  0.06933703071904769  1.0000
  N   N2        1.0  0.2543352607712849  0.7363615266678635  0.1847735722860406  1.0000
  O   O1        1.0  0.4094624217620862  0.5575316321931324  0.5859976269190241  1.0000
  O   O2        1.0  0.7996017058908863  0.5847039718173334  0.4085331006606339  1.0000
  O   O3        1.0  0.9813841257642436  0.4203404496764519  0.4349815921047978  1.0000
  O   O4        1.0  0.7451553834749943  0.5801577856003489  0.5644178387080815  1.0000
  O   O5        1.0  0.9259828064470741  0.41459807115463576  0.5918606148642028  1.0000
  O   O6        1.0  0.45888991410693347  0.599970585006133  0.42657358399833367  1.0000
  O   O7        1.0  0.6191477184844845  0.4440368379436776  0.5044768081648456  1.0000
  O   O8        1.0  0.2668325847863074  0.39960320068461624  0.5753711634983034  1.0000
  O   O9        1.0  0.3175759116833845  0.44328185080758686  0.41534219207557044  1.0000
  O   O10       1.0  0.1067014389294982  0.5545069129258026  0.49739000199110006  1.0000
  O   O11       1.0  0.7747767619119232  0.8972961751034273  0.07319763056012364  1.0000
  O   O12       1.0  0.492763946755936  0.9191836047250985  0.9351238703549001  1.0000
  O   O13       1.0  0.3080511055487208  0.07993699156452289  0.9054897838459296  1.0000
  O   O14       1.0  0.4333218617441546  0.9131828743191617  0.09060879624790635  1.0000
  O   O15       1.0  0.2523268989948377  0.08000044197881101  0.06256003729235  1.0000
  O   O16       1.0  0.8262777902256175  0.944587088781368  0.9127543619123345  1.0000
  O   O17       1.0  0.6140386239298722  0.05393159899786329  0.9974540112420415  1.0000
  O   O18       1.0  0.916336829236194  0.05760968733373768  0.0850091978913312  1.0000
  O   O19       1.0  0.969335925892338  0.09976796440520269  0.925965151105885  1.0000
  O   O20       1.0  0.12609827080924424  0.9431349017684098  0.005371687701007456  1.0000
