data_image0
_chemical_formula_structural       Zn2H30C54N8O8F2
_chemical_formula_sum              "Zn2 H30 C54 N8 O8 F2"
_cell_length_a       9.69824883099766
_cell_length_b       10.667699204247915
_cell_length_c       11.972134207327596
_cell_angle_alpha    63.60167176427269
_cell_angle_beta     69.33555618562815
_cell_angle_gamma    81.06696173221458

_space_group_name_H-M_alt    "P 1"
_space_group_IT_number       1

loop_
  _space_group_symop_operation_xyz
  'x, y, z'

loop_
  _atom_site_type_symbol
  _atom_site_label
  _atom_site_symmetry_multiplicity
  _atom_site_fract_x
  _atom_site_fract_y
  _atom_site_fract_z
  _atom_site_occupancy
  Zn  Zn1       1.0  0.5092729701808452  0.10872001165699878  0.853505426654813  1.0000
  Zn  Zn2       1.0  0.49072604195109176  0.8912798590410774  0.14649363335772864  1.0000
  H   H1        1.0  0.8436225687355972  0.9280245545846313  0.9124407998859215  1.0000
  H   H2        1.0  0.1563819746561563  0.07197116160930508  0.08755914799131398  1.0000
  H   H3        1.0  0.9103352184056348  0.18547247646953482  0.08082551725008354  1.0000
  H   H4        1.0  0.0896671269812899  0.8145211366012289  0.9191742218528707  1.0000
  H   H5        1.0  0.4747220725027859  0.324798245173163  0.9754691351540291  1.0000
  H   H6        1.0  0.5252758413190861  0.6752016157248735  0.024531914649166642  1.0000
  H   H7        1.0  0.29166155199992977  0.5179372330539637  0.9970533011701124  1.0000
  H   H8        1.0  0.708339664832117  0.4820636926651929  0.002947214922244302  1.0000
  H   H9        1.0  0.0928577695065798  0.5725000220499723  0.8946475195750953  1.0000
  H   H10       1.0  0.9071412451646167  0.4275008888245109  0.10535446998606814  1.0000
  H   H11       1.0  0.4850809696947564  0.9936980443814531  0.656667782844764  1.0000
  H   H12       1.0  0.5149180479779076  0.006301821561209  0.34333378328027214  1.0000
  H   H13       1.0  0.2936349830900866  0.011234791506907999  0.5518957604157038  1.0000
  H   H14       1.0  0.7063640241934764  0.988766125708132  0.448102887662131  1.0000
  H   H15       1.0  0.08354063711981749  0.17494557596414503  0.5725764243059643  1.0000
  H   H16       1.0  0.9164594710130626  0.8250563912273421  0.4274231635298522  1.0000
  H   H17       1.0  0.7020866167377661  0.6647930806211022  0.8047980389731537  1.0000
  H   H18       1.0  0.2979123893912358  0.33520887994061604  0.1952018679116493  1.0000
  H   H19       1.0  0.46127521588413595  0.7760925977871834  0.7852576157195518  1.0000
  H   H20       1.0  0.5387226949362756  0.22390830804266662  0.21474385751977115  1.0000
  H   H21       1.0  0.4674006171696732  0.5866585757851794  0.5330120644142015  1.0000
  H   H22       1.0  0.5325994976584951  0.4133423433042083  0.4669887707271486  1.0000
  H   H23       1.0  0.7013691539600374  0.4622059596820165  0.5634175142744767  1.0000
  H   H24       1.0  0.2986320610251028  0.5377949676222755  0.436582166447046  1.0000
  H   H25       1.0  0.9071095698808237  0.24450501292808008  0.42230827701003915  1.0000
  H   H26       1.0  0.0928916268653595  0.7554990570973673  0.5776884971657169  1.0000
  H   H27       1.0  0.8815452079559167  0.8262236454854416  0.7288492928530205  1.0000
  H   H28       1.0  0.11845489948461113  0.1737772799445025  0.2711482008049941  1.0000
  H   H29       1.0  0.8682094594852146  0.32352304372083307  0.6458290823929077  1.0000
  H   H30       1.0  0.13178953994849962  0.6764799649429848  0.3541695771863544  1.0000
  C   C1        1.0  0.716266399112463  0.13372847606115812  0.9921369841366217  1.0000
  C   C2        1.0  0.28373596866943984  0.8662599060099507  0.007863979269011256  1.0000
  C   C3        1.0  0.8624671823223694  0.0636921809486779  0.9963301116433885  1.0000
  C   C4        1.0  0.1375351753005702  0.9363003792645657  0.0036733808776006818  1.0000
  C   C5        1.0  0.9129234167752359  0.9589406410392841  0.9505995797732685  1.0000
  C   C6        1.0  0.08707892861168891  0.0410529720314798  0.04940015932968583  1.0000
  C   C7        1.0  0.9508259401811542  0.10408417280057589  0.04561912597694134  1.0000
  C   C8        1.0  0.04917970821594509  0.8959105050913079  0.954380079415181  1.0000
  C   C9        1.0  0.38538578627028397  0.3533151601874351  0.9328224320144259  1.0000
  C   C10       1.0  0.6146132362507543  0.6466836592382705  0.06717954604530968  1.0000
  C   C11       1.0  0.283579972539421  0.45980767717255594  0.9444221152045603  1.0000
  C   C12       1.0  0.7164201519854957  0.5401911488829112  0.05557954380618933  1.0000
  C   C13       1.0  0.17335688890884168  0.49063417934220876  0.8877295453064988  1.0000
  C   C14       1.0  0.8266421287638224  0.5093656866004538  0.112272020818537  1.0000
  C   C15       1.0  0.16494495822996666  0.41519131848572494  0.8192390376246055  1.0000
  C   C16       1.0  0.8350518554349408  0.5848085341973999  0.18076316659841038  1.0000
  C   C17       1.0  0.272861786111271  0.3104480782374566  0.810480202419747  1.0000
  C   C18       1.0  0.727135034248917  0.689550726343576  0.1895232491088025  1.0000
  C   C19       1.0  0.2714503689592576  0.22920943887691447  0.7407617941847064  1.0000
  C   C20       1.0  0.7285475448626145  0.7707904220211147  0.25923925561848193  1.0000
  C   C21       1.0  0.39069570286322636  0.0633645444707014  0.6631931360381815  1.0000
  C   C22       1.0  0.6093055121219068  0.9366363828335907  0.3368065446833486  1.0000
  C   C23       1.0  0.284088226331356  0.0741035895808011  0.6050900385069442  1.0000
  C   C24       1.0  0.7159130001974461  0.9258952431044348  0.3949113014548191  1.0000
  C   C25       1.0  0.16686184261556036  0.1644305539748459  0.6176059228997488  1.0000
  C   C26       1.0  0.8331382703656943  0.8355703666996844  0.3823940768707672  1.0000
  C   C27       1.0  0.15744534596662868  0.24499132395972373  0.6865807851616381  1.0000
  C   C28       1.0  0.8425514591560842  0.7550095784106431  0.31341933638500313  1.0000
  C   C29       1.0  0.046471214412242993  0.34496411950626543  0.7039610624169088  1.0000
  C   C30       1.0  0.9535278002589536  0.6550367913682109  0.2960409271442615  1.0000
  C   C31       1.0  0.05202592792763029  0.4320552328420106  0.7623133474038541  1.0000
  C   C32       1.0  0.9479719780444  0.5679467195048032  0.23768771390076918  1.0000
  C   C33       1.0  0.8560690929337086  0.4890037211814617  0.7052262757359243  1.0000
  C   C34       1.0  0.1439299150422002  0.5109982377951213  0.29477446651970507  1.0000
  C   C35       1.0  0.7185025830649465  0.5561292164914562  0.6859983345643955  1.0000
  C   C36       1.0  0.281497518372646  0.44387379880213  0.31400000596588035  1.0000
  C   C37       1.0  0.6504738993283185  0.647106202996234  0.7458501235237592  1.0000
  C   C38       1.0  0.34952510680068377  0.35289575756548425  0.2541497833610436  1.0000
  C   C39       1.0  0.5181048550124672  0.7125455614980963  0.7323793628336902  1.0000
  C   C40       1.0  0.48189414926962115  0.2874564006487645  0.26761970868027873  1.0000
  C   C41       1.0  0.4567279327957863  0.6887714516387718  0.6547446179534406  1.0000
  C   C42       1.0  0.5432721801854682  0.3112294690357515  0.34525538181706866  1.0000
  C   C43       1.0  0.520371680833307  0.6004550255399721  0.5932192481218267  1.0000
  C   C44       1.0  0.4796273319909758  0.3995458869196468  0.40678190606850956  1.0000
  C   C45       1.0  0.6513290798540724  0.5329413331039774  0.6100838276174231  1.0000
  C   C46       1.0  0.34867102643190157  0.4670606356726524  0.38991492484755946  1.0000
  C   C47       1.0  0.7545626377772621  0.0833919911245644  0.6762052648816166  1.0000
  C   C48       1.0  0.2454374648148914  0.9166099808223436  0.3237918168416984  1.0000
  C   C49       1.0  0.8806582958472405  0.0399355848177692  0.5851514413641966  1.0000
  C   C50       1.0  0.1193418018965318  0.9600674336460955  0.41484522842441146  1.0000
  C   C51       1.0  0.9478474870080403  0.13747637096199128  0.4559627172470046  1.0000
  C   C52       1.0  0.05215260888883219  0.8625266490870089  0.5440331171707771  1.0000
  C   C53       1.0  0.9334888126116422  0.9021407648661323  0.6286208661256653  1.0000
  C   C54       1.0  0.0665101861297259  0.09786120203614249  0.3713756992758095  1.0000
  N   N1        1.0  0.3832047250797999  0.13815915201499956  0.7293886728928741  1.0000
  N   N2        1.0  0.6167920897396613  0.8618396573214469  0.27061227252318104  1.0000
  N   N3        1.0  0.37996165673314414  0.28168680463218004  0.8670734836177447  1.0000
  N   N4        1.0  0.6200362589356417  0.7183130546807134  0.13292840155627778  1.0000
  N   N5        1.0  0.9344884132641269  0.5221629371437331  0.7607201117769268  1.0000
  N   N6        1.0  0.0655105947117818  0.47783902183284954  0.2392806304787102  1.0000
  N   N7        1.0  0.9209462397262769  0.3827478114020763  0.6683386587895088  1.0000
  N   N8        1.0  0.0790516662457534  0.6172541409447305  0.3316624025151144  1.0000
  O   O1        1.0  0.6211296242377387  0.06282593708983342  0.986224770008214  1.0000
  O   O2        1.0  0.37887270291024316  0.9371708187020927  0.013772062548973696  1.0000
  O   O3        1.0  0.6913455780729834  0.2504858438844195  0.9943980499416439  1.0000
  O   O4        1.0  0.3086589902530008  0.7495056814862622  0.0056060517868985645  1.0000
  O   O5        1.0  0.6614168876016179  0.9890946003039504  0.7685128110564321  1.0000
  O   O6        1.0  0.3385832064483409  0.0109084213301855  0.23148218799051537  1.0000
  O   O7        1.0  0.7417049014942876  0.210491154799243  0.6602448372438232  1.0000
  O   O8        1.0  0.2582952096400604  0.7895097674604231  0.33975432715585924  1.0000
  F   F1        1.0  0.3272106805497828  0.7538183987266295  0.6391599379406332  1.0000
  F   F2        1.0  0.6727916352846749  0.24618357855411696  0.3608406825388641  1.0000
