data_image0
_chemical_formula_structural       Tb4H12C36O24
_chemical_formula_sum              "Tb4 H12 C36 O24"
_cell_length_a       10.37580922158077
_cell_length_b       10.375811397580788
_cell_length_c       14.131068800000241
_cell_angle_alpha    89.99998698432059
_cell_angle_beta     89.99998399298974
_cell_angle_gamma    90.00121236132047

_space_group_name_H-M_alt    "P 1"
_space_group_IT_number       1

loop_
  _space_group_symop_operation_xyz
  'x, y, z'

loop_
  _atom_site_type_symbol
  _atom_site_label
  _atom_site_symmetry_multiplicity
  _atom_site_fract_x
  _atom_site_fract_y
  _atom_site_fract_z
  _atom_site_occupancy
  Tb  Tb1       1.0  0.8717618831565304  0.8717607400960008  0.37500190955000073  1.0000
  Tb  Tb2       1.0  0.12823408589044047  0.1282379236041464  0.8749996089485419  1.0000
  Tb  Tb3       1.0  0.12822561421618422  0.8717682511747074  0.624998648317323  1.0000
  Tb  Tb4       1.0  0.8717704466223  0.1282295350535492  0.12499893558859296  1.0000
  H   H1        1.0  0.9222982360401631  0.46662284175303625  0.3584801830652465  1.0000
  H   H2        1.0  0.077707376814196  0.5333700450718624  0.8584820794069967  1.0000
  H   H3        1.0  0.5333608175380604  0.9222967815818208  0.6084853425188541  1.0000
  H   H4        1.0  0.46664006828657284  0.077702937959117  0.10848147728736987  1.0000
  H   H5        1.0  0.07770285543917052  0.4666331330930475  0.6415161885853918  1.0000
  H   H6        1.0  0.9223009095352313  0.5333607923942553  0.1415164053823474  1.0000
  H   H7        1.0  0.4666325680511535  0.9222999682012089  0.3915180385375051  1.0000
  H   H8        1.0  0.5333662863941626  0.0777102551882578  0.8915156593800259  1.0000
  H   H9        1.0  6.8281385097000005e-06  0.10748933867186851  0.5000010960236665  1.0000
  H   H10       1.0  7.68843264600003e-07  0.8925046577809754  2.764830426799999e-06  1.0000
  H   H11       1.0  0.8925047072548224  6.387822893000022e-07  0.7499997920357088  1.0000
  H   H12       1.0  0.10749709036514331  0.9999971043538596  0.24999515937233233  1.0000
  C   C1        1.0  0.956291157644202  0.4136711873574015  0.4202363047385233  1.0000
  C   C2        1.0  0.9578038295196621  0.2787998235913988  0.41986762337359806  1.0000
  C   C3        1.0  0.9188653686478786  0.2040669577248978  0.3344820180242961  1.0000
  C   C4        1.0  0.043715396313061206  0.5863216781573898  0.9202396158087962  1.0000
  C   C5        1.0  0.0422104348151109  0.7211930421323629  0.9198702072132858  1.0000
  C   C6        1.0  0.0811441081799771  0.7959297925453795  0.834486705557971  1.0000
  C   C7        1.0  0.5863141440715368  0.9562869620737617  0.6702414557685683  1.0000
  C   C8        1.0  0.7211836406407953  0.9577938134258449  0.6698656735860878  1.0000
  C   C9        1.0  0.79591958379676  0.9188559773588026  0.5844821765125586  1.0000
  C   C10       1.0  0.41368479151525156  0.04371273612648001  0.1702390221130443  1.0000
  C   C11       1.0  0.2788152950839731  0.0422058849041207  0.16986326878534183  1.0000
  C   C12       1.0  0.20407841956183154  0.0811495331179444  0.08448119715647809  1.0000
  C   C13       1.0  0.043713632211542106  0.41367692567938263  0.5797593670606315  1.0000
  C   C14       1.0  0.04220774421881401  0.27880649363017085  0.5801344372601207  1.0000
  C   C15       1.0  0.08114558754427752  0.2040782772992884  0.6655221766121499  1.0000
  C   C16       1.0  0.9562911192201897  0.5863170211381715  0.07976098415294788  1.0000
  C   C17       1.0  0.9577989346255008  0.7211864892982548  0.08013603414239157  1.0000
  C   C18       1.0  0.9188533497856853  0.7959223863102737  0.16551952477712453  1.0000
  C   C19       1.0  0.413680924541545  0.9562900133704558  0.32976121261432195  1.0000
  C   C20       1.0  0.2788095322685536  0.9577940108677298  0.3301292103088755  1.0000
  C   C21       1.0  0.20407180140647097  0.9188574553057552  0.415514128446027  1.0000
  C   C22       1.0  0.5863169887698872  0.04371733998860351  0.8297609502100085  1.0000
  C   C23       1.0  0.7211874170859359  0.0422094872331726  0.830133165457134  1.0000
  C   C24       1.0  0.7959260803849232  0.08114697710808372  0.9155173543246562  1.0000
  C   C25       1.0  2.1026905017e-06  0.4806938863764216  0.4999989455230604  1.0000
  C   C26       1.0  7.9363761287e-06  0.2122358455750231  0.5000010882997259  1.0000
  C   C27       1.0  0.9999950313243176  0.6250748617915962  0.4999995363888842  1.0000
  C   C28       1.0  0.9999996030665842  0.5192979877712888  0.9999999404781119  1.0000
  C   C29       1.0  4.479496702500001e-06  0.7877571871487562  2.772553926899999e-06  1.0000
  C   C30       1.0  0.999996147989336  0.37492277285437586  0.9999999511244508  1.0000
  C   C31       1.0  0.5192962047032026  0.9999994471193008  0.7499997579133078  1.0000
  C   C32       1.0  0.787753359503526  1.4581244585000023e-06  0.7499998031549069  1.0000
  C   C33       1.0  0.3749180896362034  2.8732100077000006e-06  0.7499991393163297  1.0000
  C   C34       1.0  0.48070270160570067  1.187325551700001e-06  0.25000014711871893  1.0000
  C   C35       1.0  0.21224458301570337  0.9999982125308831  0.24999585591395854  1.0000
  C   C36       1.0  0.6250808381108187  1.7509953167000005e-06  0.2500008394536265  1.0000
  O   O1        1.0  0.9170633073404985  0.6811361149878083  0.44788246411065546  1.0000
  O   O2        1.0  0.9022976614892356  0.0824319563475697  0.3428076551901994  1.0000
  O   O3        1.0  0.7382584275093365  0.9069440233694408  0.50544286838209  1.0000
  O   O4        1.0  0.0829239608706942  0.31885770455930645  0.9478829756574637  1.0000
  O   O5        1.0  0.09770988473111693  0.9175657548081093  0.8428123212684111  1.0000
  O   O6        1.0  0.26173864125583896  0.093076934864726  0.005441167366328198  1.0000
  O   O7        1.0  0.3188502481360942  0.9170708088767016  0.6978848313396424  1.0000
  O   O8        1.0  0.917555220978379  0.9022927750931021  0.5928042529577198  1.0000
  O   O9        1.0  0.09305198144316759  0.7382737183930175  0.7554445627736823  1.0000
  O   O10       1.0  0.6811486773501515  0.08293369867973871  0.19788658108154064  1.0000
  O   O11       1.0  0.0824418154520288  0.09770405847974223  0.0928047123038311  1.0000
  O   O12       1.0  0.9069555968891694  0.26172691426440053  0.2554419922466948  1.0000
  O   O13       1.0  0.082922083873882  0.6811407651104205  0.5521195371908617  1.0000
  O   O14       1.0  0.0976962641289489  0.0824407378310923  0.657203633992097  1.0000
  O   O15       1.0  0.2617278867536754  0.9069476578095534  0.4945555613152734  1.0000
  O   O16       1.0  0.9170653296943029  0.3188560824066898  0.05211624842941379  1.0000
  O   O17       1.0  0.9022901470832071  0.917557037178938  0.15719318346750544  1.0000
  O   O18       1.0  0.7382670747750026  0.0930663850870772  0.9945566746957011  1.0000
  O   O19       1.0  0.6811430268062822  0.9170679636113234  0.3021157198456663  1.0000
  O   O20       1.0  0.08243484994495992  0.9022926459891778  0.4071871008199181  1.0000
  O   O21       1.0  0.9069326911022629  0.7382631414365406  0.24455955308425095  1.0000
  O   O22       1.0  0.3188548966369281  0.08293747173229353  0.8021119701361028  1.0000
  O   O23       1.0  0.9175630348016668  0.09770215149844573  0.9071931290752601  1.0000
  O   O24       1.0  0.0930681448055708  0.2617413500269947  0.7445600709030058  1.0000
