data_image0
_chemical_formula_structural       K2H10C4N16O4
_chemical_formula_sum              "K2 H10 C4 N16 O4"
_cell_length_a       7.2369709599978
_cell_length_b       7.558747507651685
_cell_length_c       7.902537728366796
_cell_angle_alpha    85.72822055237619
_cell_angle_beta     84.28536284743402
_cell_angle_gamma    86.37054307991757

_space_group_name_H-M_alt    "P 1"
_space_group_IT_number       1

loop_
  _space_group_symop_operation_xyz
  'x, y, z'

loop_
  _atom_site_type_symbol
  _atom_site_label
  _atom_site_symmetry_multiplicity
  _atom_site_fract_x
  _atom_site_fract_y
  _atom_site_fract_z
  _atom_site_occupancy
  K   K1        1.0  0.6129757675857802  0.3563666567877276  0.6797429772740102  1.0000
  K   K2        1.0  0.38702466014541403  0.643633036756391  0.32025762403559815  1.0000
  H   H1        1.0  0.16594635867125612  0.3743788400080701  0.6012936631406447  1.0000
  H   H2        1.0  0.8340539943404647  0.6256221841401555  0.3987030545176254  1.0000
  H   H3        1.0  0.9524263446567074  0.5245884867562578  0.7874103177544711  1.0000
  H   H4        1.0  0.04757539475195929  0.4754125394467648  0.2125875407306097  1.0000
  H   H5        1.0  0.7891423172687053  0.9487908948839701  0.33653204927193064  1.0000
  H   H6        1.0  0.2108579396597604  0.05121145372944369  0.6634734412665894  1.0000
  H   H7        1.0  0.2599882932487389  0.2632582903598929  0.4470956347710953  1.0000
  H   H8        1.0  0.7400120554902256  0.7367427325605429  0.5529036141934897  1.0000
  H   H9        1.0  0.029879443084794805  0.32819524052531773  0.8401160306777841  1.0000
  H   H10       1.0  0.970120986782774  0.6718044536326884  0.15988330497866346  1.0000
  C   C1        1.0  0.7615588224075506  0.9709063197229425  0.9756827951778604  1.0000
  C   C2        1.0  0.2384417697172266  0.029090716910204196  0.02431671386231221  1.0000
  C   C3        1.0  0.739606533751427  0.0713250522698488  0.2709410916955974  1.0000
  C   C4        1.0  0.2603882651269912  0.9286759612036021  0.7290561252680378  1.0000
  N   N1        1.0  0.6242544617977399  0.33395989750605537  0.2093228855884561  1.0000
  N   N2        1.0  0.3757474334590042  0.6660384693304306  0.7906789432398256  1.0000
  N   N3        1.0  0.855921158451309  0.8146819762918225  0.0019875346055329857  1.0000
  N   N4        1.0  0.14407935040848935  0.18531638848986623  0.9980131533959309  1.0000
  N   N5        1.0  0.7191227839252999  0.09142730505362806  0.1020248905272823  1.0000
  N   N6        1.0  0.2808763321284146  0.9085710558315866  0.8979784536068395  1.0000
  N   N7        1.0  0.7819639799390072  0.8539125308950444  0.7404444298784584  1.0000
  N   N8        1.0  0.2180348158730396  0.14609114626767183  0.2595560361818983  1.0000
  N   N9        1.0  0.7128649221901212  0.0005390926729873999  0.8165792895315889  1.0000
  N   N10       1.0  0.287134108462233  0.9994605957468746  0.1834264992169921  1.0000
  N   N11       1.0  0.6812377630459349  0.22157628747557817  0.3394077562481074  1.0000
  N   N12       1.0  0.3187642154757952  0.7784207512123726  0.6605928936188761  1.0000
  N   N13       1.0  0.86615796390857  0.7439552972058223  0.8500601653714099  1.0000
  N   N14       1.0  0.13384238910315094  0.2560457269424035  0.14993655228685301  1.0000
  N   N15       1.0  0.6455908894744977  0.2587977865952239  0.06579190016843482  1.0000
  N   N16       1.0  0.35440814972336887  0.7412019042802025  0.9342088259675095  1.0000
  O   O1        1.0  0.976272941000097  0.40312897364169925  0.7463180320862507  1.0000
  O   O2        1.0  0.0237274077388676  0.5968720492787367  0.2536812168783343  1.0000
  O   O3        1.0  0.287340616199124  0.3380028948280938  0.5382631330223762  1.0000
  O   O4        1.0  0.7126625907350995  0.6619968046673033  0.46173595298138553  1.0000
