data_image0
_chemical_formula_structural       Cd2H16C24N14O6
_chemical_formula_sum              "Cd2 H16 C24 N14 O6"
_cell_length_a       6.260982219844974
_cell_length_b       10.715753170311013
_cell_length_c       11.337493692260486
_cell_angle_alpha    107.91423845213681
_cell_angle_beta     96.35794418229078
_cell_angle_gamma    104.90736042974804

_space_group_name_H-M_alt    "P 1"
_space_group_IT_number       1

loop_
  _space_group_symop_operation_xyz
  'x, y, z'

loop_
  _atom_site_type_symbol
  _atom_site_label
  _atom_site_symmetry_multiplicity
  _atom_site_fract_x
  _atom_site_fract_y
  _atom_site_fract_z
  _atom_site_occupancy
  Cd  Cd1       1.0  0.31625986781345006  0.6884080762729424  0.3065956171534624  1.0000
  Cd  Cd2       1.0  0.6837447994906115  0.3115926807505786  0.6934041123578895  1.0000
  H   H1        1.0  0.22962271236360715  0.9634712216434237  0.5004916605452153  1.0000
  H   H2        1.0  0.7703702714368748  0.0365253392788887  0.499506200006991  1.0000
  H   H3        1.0  0.06953683703165582  0.019916029864752702  0.6954648561172265  1.0000
  H   H4        1.0  0.9304566657569638  0.9800815661244754  0.3045342155309996  1.0000
  H   H5        1.0  0.05448283746453325  0.8661848832866424  0.8262471611980546  1.0000
  H   H6        1.0  0.9455244984811417  0.1338179602733618  0.17375596843056235  1.0000
  H   H7        1.0  0.20220054725709968  0.6657705353398883  0.7571173010393795  1.0000
  H   H8        1.0  0.7978067886885755  0.3342323082201163  0.24288582858923757  1.0000
  H   H9        1.0  0.37082012987201557  0.17196991549479174  0.2025036280758244  1.0000
  H   H10       1.0  0.629181921722747  0.8280287677669591  0.7974953542111438  1.0000
  H   H11       1.0  0.25745743524531417  0.0937230482235023  0.9712464739636605  1.0000
  H   H12       1.0  0.7425467483588266  0.9062766822495903  0.02875381304692583  1.0000
  H   H13       1.0  0.19437759380866748  0.2631976216352215  0.868621667302364  1.0000
  H   H14       1.0  0.8056175396453044  0.7367999907566657  0.1313783822710804  1.0000
  H   H15       1.0  0.2385166463984874  0.5037532191369962  0.008189240628084321  1.0000
  H   H16       1.0  0.7614810321883498  0.4962464499837011  0.9918080189792422  1.0000
  C   C1        1.0  0.2225269633696456  0.9008570591854691  0.5605645215872529  1.0000
  C   C2        1.0  0.7774718798267345  0.09914160404569118  0.43943515774215325  1.0000
  C   C3        1.0  0.13388163166893452  0.9321047123666869  0.6698525444227742  1.0000
  C   C4        1.0  0.866117193883341  0.06789394660623321  0.3301462506090049  1.0000
  C   C5        1.0  0.1252876952907869  0.846823599019835  0.7414281165936958  1.0000
  C   C6        1.0  0.8747170073014844  0.153177166520166  0.2585733815129104  1.0000
  C   C7        1.0  0.20988963657060114  0.7355494157403086  0.7041557440200567  1.0000
  C   C8        1.0  0.7901150660216703  0.26445134979969254  0.29584575408654973  1.0000
  C   C9        1.0  0.30555290011648145  0.7149326458981378  0.5969369797713571  1.0000
  C   C10       1.0  0.6944485587891907  0.2850680910947858  0.4030634467824259  1.0000
  C   C11       1.0  0.4116619762476291  0.6040417561414628  0.5531901698050634  1.0000
  C   C12       1.0  0.588337350648665  0.39595793364012616  0.44680895202510856  1.0000
  C   C13       1.0  0.4518172086060945  0.4403387356243442  0.37000396852121753  1.0000
  C   C14       1.0  0.5481783909036865  0.5596598990597386  0.6299946392553724  1.0000
  C   C15       1.0  0.3796522206588335  0.3832368216827859  0.22955986246017096  1.0000
  C   C16       1.0  0.6203461388376326  0.6167608149979386  0.7704403743684625  1.0000
  C   C17       1.0  0.3476559836626123  0.24545559837074646  0.15820596895368771  1.0000
  C   C18       1.0  0.6523417478565463  0.7545440835246708  0.8417939435465204  1.0000
  C   C19       1.0  0.2802256197947486  0.20056091065690398  0.027097150695091388  1.0000
  C   C20       1.0  0.719772203069475  0.7994356866986648  0.9729009907398949  1.0000
  C   C21       1.0  0.24368604923401457  0.29351000460945903  0.9706399168104629  1.0000
  C   C22       1.0  0.7563101606089617  0.7064865806016911  0.029358130996925535  1.0000
  C   C23       1.0  0.26977879589167486  0.4279202971365662  0.0479067281656356  1.0000
  C   C24       1.0  0.7302158185741661  0.5720762801884051  0.9520921103117888  1.0000
  N   N1        1.0  0.30419014882598105  0.7941450751266572  0.5241548940728152  1.0000
  N   N2        1.0  0.6958086767262943  0.20585358384626318  0.4758439009589638  1.0000
  N   N3        1.0  0.37237788553413514  0.5430582463659803  0.4274095690129159  1.0000
  N   N4        1.0  0.6276209400181331  0.456940412606933  0.5725892260188632  1.0000
  N   N5        1.0  0.33526215169998613  0.4715781762786834  0.17416082373975436  1.0000
  N   N6        1.0  0.6647329641098736  0.5284194318549564  0.8258383415360628  1.0000
  N   N7        1.0  0.27992038693967203  0.8589543576380053  0.15756704945751213  1.0000
  N   N8        1.0  0.720081110378743  0.14104328204035713  0.842428953138182  1.0000
  N   N9        1.0  0.7179551496028225  0.7623349153238335  0.359720408457811  1.0000
  N   N10       1.0  0.28204725593404595  0.2376709763427698  0.6402842113532332  1.0000
  N   N11       1.0  0.8186318982410017  0.6838818823851014  0.3210838756843303  1.0000
  N   N12       1.0  0.1813675646190518  0.31613117636455  0.6789226572050995  1.0000
  N   N13       1.0  0.9186992726944396  0.6049359207440189  0.2817244144584734  1.0000
  N   N14       1.0  0.08130893930600538  0.39507206045671234  0.7182793712368893  1.0000
  O   O1        1.0  0.30182281466460387  0.738752094952254  0.11103491124079312  1.0000
  O   O2        1.0  0.6981914778346124  0.26124872216306017  0.888962727143259  1.0000
  O   O3        1.0  0.26823143921394904  0.9018634878524596  0.27505380852033323  1.0000
  O   O4        1.0  0.7317598433447546  0.09813303963424859  0.7249395369161465  1.0000
  O   O5        1.0  0.26932589984001243  0.931076079678405  0.09091298084290851  1.0000
  O   O6        1.0  0.7306718700918894  0.0689205049024437  0.9090825076992036  1.0000
