data_image0
_chemical_formula_structural       Zn2H16C20N4Cl4
_chemical_formula_sum              "Zn2 H16 C20 N4 Cl4"
_cell_length_a       4.529629907387456
_cell_length_b       8.4225405700895
_cell_length_c       14.898200998409532
_cell_angle_alpha    73.56166481825704
_cell_angle_beta     81.17239122407919
_cell_angle_gamma    74.56519062029398

_space_group_name_H-M_alt    "P 1"
_space_group_IT_number       1

loop_
  _space_group_symop_operation_xyz
  'x, y, z'

loop_
  _atom_site_type_symbol
  _atom_site_label
  _atom_site_symmetry_multiplicity
  _atom_site_fract_x
  _atom_site_fract_y
  _atom_site_fract_z
  _atom_site_occupancy
  Zn  Zn1       1.0  0.7989601172679888  0.8564687007294367  0.650605549644858  1.0000
  Zn  Zn2       1.0  0.6936664764696093  0.35525460689026284  0.15116032854771075  1.0000
  H   H1        1.0  0.20124712740928913  0.5183595692264189  0.6407751455984964  1.0000
  H   H2        1.0  0.6395363025132073  0.0166523877488487  0.14041617211891827  1.0000
  H   H3        1.0  0.6233041464841385  0.3960505370456885  0.5363494136896632  1.0000
  H   H4        1.0  0.4459420778767939  0.8947600880530471  0.03541579260134847  1.0000
  H   H5        1.0  0.4981060265187982  0.9005821662102775  0.34531685772247284  1.0000
  H   H6        1.0  0.25575120812300917  0.40076138304606695  0.8462158978823096  1.0000
  H   H7        1.0  0.07065994903732799  0.9964515382360375  0.4561755432500333  1.0000
  H   H8        1.0  0.47707330206036186  0.49613153165025636  0.9571336056630314  1.0000
  H   H9        1.0  0.4202553966608634  0.2159115094412911  0.34558999833016907  1.0000
  H   H10       1.0  0.012531883041433283  0.7167271798360417  0.8452108034303831  1.0000
  H   H11       1.0  0.9922251047317306  0.31214374591327493  0.45614330994150254  1.0000
  H   H12       1.0  0.23365399040052665  0.812320470228279  0.9560897826206797  1.0000
  H   H13       1.0  0.864570692310409  0.815733926880611  0.26407953946281987  1.0000
  H   H14       1.0  0.060994951561866816  0.3157682855480316  0.7639401164134296  1.0000
  H   H15       1.0  0.2887094532862948  0.6933227730430855  0.1602375689601701  1.0000
  H   H16       1.0  0.8635570041926505  0.1940958093760514  0.6596450533253416  1.0000
  C   C1        1.0  0.27826642493649006  0.5977786916919141  0.5747311745824675  1.0000
  C   C2        1.0  0.5494049812956024  0.09651481641703438  0.07460076526869835  1.0000
  C   C3        1.0  0.5176779158583574  0.5316414202032078  0.5159025270766618  1.0000
  C   C4        1.0  0.4351987529223891  0.03062947121005519  0.015579344655201072  1.0000
  C   C5        1.0  0.6133107590548768  0.6387047269218725  0.4318661106143863  1.0000
  C   C6        1.0  0.31635321368107583  0.1382425303196158  0.9319409977172625  1.0000
  C   C7        1.0  0.44627342793937447  0.8091427290107019  0.40995506557704425  1.0000
  C   C8        1.0  0.33455614333247785  0.3089485717785152  0.91055393903531  1.0000
  C   C9        1.0  0.20655101042804397  0.8656647369053941  0.47200293728690196  1.0000
  C   C10       1.0  0.45628839631805834  0.3651020221455283  0.9726334849923857  1.0000
  C   C11       1.0  0.28412508368547423  0.34663190887789597  0.32953248365128457  1.0000
  C   C12       1.0  0.03656630267834574  0.8472624830419163  0.82917290430791  1.0000
  C   C13       1.0  0.04392400615810042  0.40336233834756985  0.3913757019974611  1.0000
  C   C14       1.0  0.1585177296709834  0.9035119932689212  0.8911741853725842  1.0000
  C   C15       1.0  0.8758993152313368  0.5735714994238633  0.36912225734988596  1.0000
  C   C16       1.0  0.18161573616929869  0.0735194514058648  0.8690022819479849  1.0000
  C   C17       1.0  0.971210884452056  0.6803247437167528  0.28492294904496157  1.0000
  C   C18       1.0  0.06670511615633533  0.1804687010289356  0.7846934930684525  1.0000
  C   C19       1.0  0.21151475362233926  0.6140778311921977  0.22632175289876236  1.0000
  C   C20       1.0  0.950991687977741  0.11469186047377629  0.7258996908553639  1.0000
  N   N1        1.0  0.12668134644035003  0.7627760991052668  0.5542542684040582  1.0000
  N   N2        1.0  0.5567749267007615  0.2617344482226401  0.054571310426979346  1.0000
  N   N3        1.0  0.36425668317210147  0.44925992553974936  0.24719084966135796  1.0000
  N   N4        1.0  0.938642173904122  0.9500927713869132  0.746788925047724  1.0000
  Cl  Cl1       1.0  0.5159650483377695  0.09231222415315439  0.559821532668117  1.0000
  Cl  Cl2       1.0  0.8355152490805935  0.5913163100781063  0.06071378390038962  1.0000
  Cl  Cl3       1.0  0.657227620291032  0.6203796132759153  0.7408661675782681  1.0000
  Cl  Cl4       1.0  0.9784283044626606  0.11943638434848941  0.2413070647148173  1.0000
