data_image0
_chemical_formula_structural       Zn8H32C32N64
_chemical_formula_sum              "Zn8 H32 C32 N64"
_cell_length_a       8.506163808000062
_cell_length_b       11.025714699000032
_cell_length_c       15.082231760000122
_cell_angle_alpha    89.99999300013688
_cell_angle_beta     90.00001275627692
_cell_angle_gamma    89.9999947628282

_space_group_name_H-M_alt    "P 1"
_space_group_IT_number       1

loop_
  _space_group_symop_operation_xyz
  'x, y, z'

loop_
  _atom_site_type_symbol
  _atom_site_label
  _atom_site_symmetry_multiplicity
  _atom_site_fract_x
  _atom_site_fract_y
  _atom_site_fract_z
  _atom_site_occupancy
  Zn  Zn1       1.0  0.893110131214179  0.8860549254701626  0.9055490240227824  1.0000
  Zn  Zn2       1.0  0.606890572476807  0.11394539248360763  0.4055487673163185  1.0000
  Zn  Zn3       1.0  0.1068896419119056  0.38605473897381165  0.5944511385440023  1.0000
  Zn  Zn4       1.0  0.39310903555179516  0.613945666472212  0.09445153622821319  1.0000
  Zn  Zn5       1.0  0.10688955936304718  0.11394634320044623  0.09445087751691258  1.0000
  Zn  Zn6       1.0  0.39310911810046884  0.8860549692163248  0.5944511342234193  1.0000
  Zn  Zn7       1.0  0.8931100486655055  0.6139456227260568  0.4055494260275765  1.0000
  Zn  Zn8       1.0  0.6068906550254881  0.38605469522771335  0.9055483653115246  1.0000
  H   H1        1.0  0.923801978648079  0.6318029378633698  0.7591343663691887  1.0000
  H   H2        1.0  0.5761986673112673  0.368197404577579  0.2591340831139348  1.0000
  H   H3        1.0  0.0761990000460742  0.13180272905668033  0.7408651558563122  1.0000
  H   H4        1.0  0.4238020863852299  0.868196744931517  0.2408655347083695  1.0000
  H   H5        1.0  0.07619771192920409  0.3681974238365557  0.240865535170542  1.0000
  H   H6        1.0  0.4238010232660088  0.6318029571223464  0.7408658184257958  1.0000
  H   H7        1.0  0.9238018661491622  0.8681976326432661  0.2591340826516486  1.0000
  H   H8        1.0  0.5761987798101841  0.1318027097976895  0.759134366831482  1.0000
  H   H9        1.0  0.0925682880821554  0.5409879917832683  0.7709528608695635  1.0000
  H   H10       1.0  0.4074316345947223  0.45901147717293617  0.2709532741811174  1.0000
  H   H11       1.0  0.9074315256917629  0.04098772599780891  0.7290473324924137  1.0000
  H   H12       1.0  0.592569108404234  0.9590117145043776  0.2290469985683785  1.0000
  H   H13       1.0  0.9074314024951206  0.459012369916664  0.22904704067016723  1.0000
  H   H14       1.0  0.5925692316008266  0.5409879775562134  0.729047290390575  1.0000
  H   H15       1.0  0.09256816488569798  0.9590117287313761  0.27095323207920785  1.0000
  H   H16       1.0  0.40743175779117985  0.040987740224821316  0.7709529029714729  1.0000
  H   H17       1.0  0.9713487180757738  0.4659515425103536  0.9207424224896811  1.0000
  H   H18       1.0  0.5286519916058692  0.5340487729024518  0.4207414554241851  1.0000
  H   H19       1.0  0.0286510456387603  0.9659509379185851  0.5792577329468287  1.0000
  H   H20       1.0  0.47134762583420536  0.034048563097783806  0.0792581922188162  1.0000
  H   H21       1.0  0.028652148119725492  0.5340488191894792  0.07925814208197582  1.0000
  H   H22       1.0  0.4713488745894949  0.46595158879743803  0.5792584461156239  1.0000
  H   H23       1.0  0.9713486449384375  0.034048516810713615  0.4207415055611036  1.0000
  H   H24       1.0  0.5286520647430705  0.9659517986021484  0.9207417093209145  1.0000
  H   H25       1.0  0.054481813059581385  0.6137823551665917  0.9146968338705079  1.0000
  H   H26       1.0  0.44551816629582663  0.386217996719772  0.4146972584663757  1.0000
  H   H27       1.0  0.9455179921392584  0.11378211072042183  0.58530268996315  1.0000
  H   H28       1.0  0.5544825852780305  0.8862173538223462  0.08530302077954839  1.0000
  H   H29       1.0  0.9455178775177017  0.3862180065333335  0.0853030676692228  1.0000
  H   H30       1.0  0.5544826998996156  0.6137832719507446  0.5853033061052385  1.0000
  H   H31       1.0  0.0544816984380248  0.8862182509795106  0.4146972115765806  1.0000
  H   H32       1.0  0.4455182809173337  0.11378300787754372  0.9146968807602602  1.0000
  C   C1        1.0  0.9683191195895731  0.5474709856268448  0.7894634387662122  1.0000
  C   C2        1.0  0.5316815383287264  0.45252935174165293  0.2894638054203895  1.0000
  C   C3        1.0  0.03168069342072499  0.04746987807923381  0.7105367540172339  1.0000
  C   C4        1.0  0.4683192054338575  0.9525286940106596  0.21053646790763733  1.0000
  C   C5        1.0  0.0316805709877599  0.4525284691023971  0.2105364627735682  1.0000
  C   C6        1.0  0.4683193278666876  0.5474701029875464  0.710536096119462  1.0000
  C   C7        1.0  0.9683189971567926  0.952528669679268  0.2894638105544304  1.0000
  C   C8        1.0  0.5316816607614285  0.04747076071860332  0.7894627706003662  1.0000
  C   C9        1.0  0.808632586994527  0.6112228562682703  0.9252742284627684  1.0000
  C   C10       1.0  0.6913681244742876  0.3887774583864997  0.42527462088075646  1.0000
  C   C11       1.0  0.19136721850581034  0.11122266707934608  0.5747252955993074  1.0000
  C   C12       1.0  0.3086326267980724  0.8887768346950227  0.0747256581367424  1.0000
  C   C13       1.0  0.19136710358280598  0.3887765984609716  0.0747256730770047  1.0000
  C   C14       1.0  0.3086327417212047  0.6112229033133332  0.5747259436909004  1.0000
  C   C15       1.0  0.8086324720713378  0.888777694620643  0.4252739429085821  1.0000
  C   C16       1.0  0.6913670637792607  0.1112226200342263  0.9252742434030309  1.0000
  C   C17       1.0  0.9573447443267469  0.5564998706541006  0.8913402702570892  1.0000
  C   C18       1.0  0.5426559537616382  0.4435013566467065  0.3913399760647494  1.0000
  C   C19       1.0  0.04265624323787161  0.05649968633725421  0.6086592586887676  1.0000
  C   C20       1.0  0.4573447910642868  0.9435007167324513  0.1086596350371209  1.0000
  C   C21       1.0  0.0426561218687453  0.4435004910457323  0.1086602943145678  1.0000
  C   C22       1.0  0.45734373681550977  0.5564990050532758  0.6086592624431333  1.0000
  C   C23       1.0  0.9573446229573576  0.9435006753626852  0.3913399798191932  1.0000
  C   C24       1.0  0.5426560751311342  0.05649873799675481  0.8913402665027306  1.0000
  C   C25       1.0  0.8833854141780931  0.4417209310119859  0.751281423099627  1.0000
  C   C26       1.0  0.6166152286849494  0.5582794127422802  0.2512817909933247  1.0000
  C   C27       1.0  0.1166143523905561  0.9417211988105834  0.7487180714674293  1.0000
  C   C28       1.0  0.3833855615189705  0.0582782738643388  0.248717854487353  1.0000
  C   C29       1.0  0.11661427639923969  0.558278523717256  0.24871847844014638  1.0000
  C   C30       1.0  0.38338563751041477  0.4417209489576095  0.7487181105464842  1.0000
  C   C31       1.0  0.8833853381867272  0.05827916288934891  0.2512818300723012  1.0000
  C   C32       1.0  0.6166153046763724  0.9417202738942337  0.751281384020686  1.0000
  N   N1        1.0  0.7830816994133939  0.7301339683716037  0.939805890569424  1.0000
  N   N2        1.0  0.7169190177851588  0.2698663438528612  0.43980563377970566  1.0000
  N   N3        1.0  0.21691926769765496  0.23013377980079508  0.560193622880611  1.0000
  N   N4        1.0  0.2830817474943855  0.769866631374569  0.0601939928180286  1.0000
  N   N5        1.0  0.2169179911640171  0.2698663933282647  0.06019467400215459  1.0000
  N   N6        1.0  0.28308184841020523  0.7301340178470286  0.5601942677601031  1.0000
  N   N7        1.0  0.7830815984975743  0.7698665818991444  0.4398056156273498  1.0000
  N   N8        1.0  0.7169191187009786  0.23013373032532067  0.9398059087217803  1.0000
  N   N9        1.0  0.6769010616478751  0.5508947971157526  0.9470389063262914  1.0000
  N   N10       1.0  0.8231008340207565  0.449105513898978  0.44703864688865735  1.0000
  N   N11       1.0  0.3230999265771358  0.050894602223699806  0.5529612861516355  1.0000
  N   N12       1.0  0.17689991014514558  0.9491049031905947  0.0529616267449242  1.0000
  N   N13       1.0  0.3230986289295856  0.44910465761343227  0.05296165824533719  1.0000
  N   N14       1.0  0.17690120779269589  0.550894847800862  0.5529612546512227  1.0000
  N   N15       1.0  0.6769009396182853  0.9491048525054995  0.4470386153882159  1.0000
  N   N16       1.0  0.8230997804323152  0.050894551538590314  0.9470389378267043  1.0000
  N   N17       1.0  0.5709014574971646  0.6351097474992572  0.9742914939655946  1.0000
  N   N18       1.0  0.9290992732991441  0.3648905589576474  0.4742912553688754  1.0000
  N   N19       1.0  0.4290995208074476  0.13510954964709754  0.5257080279647965  1.0000
  N   N20       1.0  0.07090030516867779  0.8648899603252361  0.025707699716619493  1.0000
  N   N21       1.0  0.42909940869819957  0.36489061420062535  0.025708407574214196  1.0000
  N   N22       1.0  0.0709004172780041  0.635109802742335  0.5257079831390072  1.0000
  N   N23       1.0  0.5709013453879662  0.8648899050821014  0.47429187357505503  1.0000
  N   N24       1.0  0.9290993854086551  0.13510949440400571  0.9742922018231539  1.0000
  N   N25       1.0  0.634604667350757  0.7422991689433829  0.9694089266559515  1.0000
  N   N26       1.0  0.8653960615204781  0.2577011383300558  0.46940935264892397  1.0000
  N   N27       1.0  0.3653962983274042  0.24229897479273899  0.5305912487402651  1.0000
  N   N28       1.0  0.13460352957400798  0.7577014413336373  0.030590275034405996  1.0000
  N   N29       1.0  0.36539619884460706  0.2577011927564997  0.0305909748838573  1.0000
  N   N30       1.0  0.1346036290568051  0.7422992233698766  0.5305905488908138  1.0000
  N   N31       1.0  0.6346033922500068  0.7577013869071364  0.4694093158313207  1.0000
  N   N32       1.0  0.8653973366213562  0.24229892036624537  0.9694096265054027  1.0000
  N   N33       1.0  0.915992345234592  0.3868165590562996  0.6733659029804784  1.0000
  N   N34       1.0  0.5840082669061247  0.6131847046996627  0.17336626187519497  1.0000
  N   N35       1.0  0.0840074278019358  0.8868159091657334  0.8266349225502126  1.0000
  N   N36       1.0  0.4159925168303289  0.11318445744863231  0.3266347047691696  1.0000
  N   N37       1.0  0.08400734534281899  0.6131838026435759  0.3266346615911074  1.0000
  N   N38       1.0  0.4159914236711515  0.38681565700026255  0.8266336396645428  1.0000
  N   N39       1.0  0.9159922627756599  0.11318354556339473  0.1733663050532641  1.0000
  N   N40       1.0  0.5840083493651633  0.8868159042512008  0.6733658598024874  1.0000
  N   N41       1.0  0.7594094439969011  0.38594949105615245  0.7879192316678854  1.0000
  N   N42       1.0  0.7405912133125125  0.6140508465706064  0.2879196101694319  1.0000
  N   N43       1.0  0.24059032914131248  0.8859497561892978  0.7120796048445968  1.0000
  N   N44       1.0  0.25940839470369775  0.11405062958385771  0.2120806933657065  1.0000
  N   N45       1.0  0.24059142219846313  0.6140508706437374  0.2120806698719235  1.0000
  N   N46       1.0  0.2594096528828516  0.38594951512927633  0.712080291370377  1.0000
  N   N47       1.0  0.7594093614358356  0.11405060551068401  0.2879196336632859  1.0000
  N   N48       1.0  0.740590120255554  0.8859488251454339  0.7879192081739959  1.0000
  N   N49       1.0  0.8099010458143567  0.2960070309192774  0.6632480343594338  1.0000
  N   N50       1.0  0.6900995623370462  0.7039933275581164  0.1632490615186555  1.0000
  N   N51       1.0  0.19009873791912213  0.7960063718120622  0.8367521362436178  1.0000
  N   N52       1.0  0.3099000350842899  0.20399399311028799  0.3367518970214575  1.0000
  N   N53       1.0  0.19009982038095066  0.7039942377512959  0.3367518671803325  1.0000
  N   N54       1.0  0.3099001282402369  0.29600703414180884  0.8367508400210752  1.0000
  N   N55       1.0  0.8098997770402008  0.20399398988784873  0.16324842832788986  1.0000
  N   N56       1.0  0.690099655493114  0.7960063685895806  0.6632486675501281  1.0000
  N   N57       1.0  0.716834429272211  0.2956986584785923  0.7315137876222265  1.0000
  N   N58       1.0  0.7831650301785087  0.7043007816110177  0.2315148264533775  1.0000
  N   N59       1.0  0.28316417887933193  0.7956989111585386  0.7684857199763826  1.0000
  N   N60       1.0  0.21683574282474893  0.204300558210285  0.2684861320594081  1.0000
  N   N61       1.0  0.28316526130517866  0.7042998892799659  0.2684861139175894  1.0000
  N   N62       1.0  0.21683583601698325  0.29569958008880803  0.7684857381182795  1.0000
  N   N63       1.0  0.7168355116981856  0.2042996365999699  0.2315148445952815  1.0000
  N   N64       1.0  0.7831651233708  0.7956988965188642  0.7315144325122844  1.0000
