data_image0
_chemical_formula_structural       Ag2As2H38C38N2Cl2
_chemical_formula_sum              "Ag2 As2 H38 C38 N2 Cl2"
_cell_length_a       9.205241150276764
_cell_length_b       10.25715684113418
_cell_length_c       11.165493474071411
_cell_angle_alpha    73.38725630606214
_cell_angle_beta     66.87970719461121
_cell_angle_gamma    71.88476159545829

_space_group_name_H-M_alt    "P 1"
_space_group_IT_number       1

loop_
  _space_group_symop_operation_xyz
  'x, y, z'

loop_
  _atom_site_type_symbol
  _atom_site_label
  _atom_site_symmetry_multiplicity
  _atom_site_fract_x
  _atom_site_fract_y
  _atom_site_fract_z
  _atom_site_occupancy
  Ag  Ag1       1.0  0.5427909301306499  0.6291375733169107  0.9974853596716998  1.0000
  Ag  Ag2       1.0  0.45720799917746285  0.3708644188754421  0.002513720933016801  1.0000
  As  As1       1.0  0.36318398327514967  0.820142926484202  0.11911633349578923  1.0000
  As  As2       1.0  0.6368178535088945  0.17985698574900513  0.880885938051712  1.0000
  H   H1        1.0  0.8124180089793783  0.7524182455947964  0.008062421457829351  1.0000
  H   H2        1.0  0.18757710373235173  0.2475847901131232  0.9919367240125041  1.0000
  H   H3        1.0  0.017764566632592984  0.6579615744532957  0.9739793449491928  1.0000
  H   H4        1.0  0.9822311828162784  0.34204353712194546  0.0260145665855943  1.0000
  H   H5        1.0  0.8541766147970054  0.5695517454770993  0.03966697048024782  1.0000
  H   H6        1.0  0.14581904327771156  0.43044920168590306  0.9603325511422868  1.0000
  H   H7        1.0  0.1582276164562869  0.6777276032491244  0.7398707477583459  1.0000
  H   H8        1.0  0.8417667694859786  0.3222691703600233  0.2601311865056034  1.0000
  H   H9        1.0  0.15992510553099487  0.6881876621780236  0.5122780207772522  1.0000
  H   H10       1.0  0.840073278265038  0.31181642098361106  0.4877215787007784  1.0000
  H   H11       1.0  0.9053752216557032  0.67408546785164  0.48658575564209616  1.0000
  H   H12       1.0  0.09462216204305915  0.3259269689338781  0.5134119565713817  1.0000
  H   H13       1.0  0.6611283736534687  0.6495979760277067  0.6920746253036327  1.0000
  H   H14       1.0  0.3388722831177517  0.3504019149421111  0.3079199736699395  1.0000
  H   H15       1.0  0.36242613609401536  0.03574177494551381  0.940839860390767  1.0000
  H   H16       1.0  0.6375712481019703  0.9642570928141583  0.05916323483030797  1.0000
  H   H17       1.0  0.3433853256235154  0.0815035785906915  0.08992779813835472  1.0000
  H   H18       1.0  0.6566103318548285  0.9184973782697342  0.910075303586254  1.0000
  H   H19       1.0  0.5338606612683067  0.6069595658844875  0.29362833439889596  1.0000
  H   H20       1.0  0.4661358139563276  0.39303826300726297  0.7063771216050581  1.0000
  H   H21       1.0  0.5670926859014714  0.5975320541461713  0.5079446083903177  1.0000
  H   H22       1.0  0.4329096059150501  0.4024615881593618  0.492057384218505  1.0000
  H   H23       1.0  0.43908946278677524  0.8015663742275194  0.6202033454611068  1.0000
  H   H24       1.0  0.5609187349084905  0.198427279845049  0.3798021040221045  1.0000
  H   H25       1.0  0.2746937474277403  0.0162529922555592  0.5206486148429903  1.0000
  H   H26       1.0  0.7253219017056693  0.9837437907436454  0.47935359182170606  1.0000
  H   H27       1.0  0.23582591829802627  0.025285015198377902  0.3112304289216894  1.0000
  H   H28       1.0  0.7641898211658928  0.9747159491835691  0.6887724328338932  1.0000
  H   H29       1.0  0.1400853510522424  0.6329399054978425  0.20470051354276103  1.0000
  H   H30       1.0  0.8599170319893474  0.3670579036443016  0.7952967640038295  1.0000
  H   H31       1.0  0.8414319883212046  0.663282374422991  0.27440812430803146  1.0000
  H   H32       1.0  0.1585700317083791  0.3367122976088623  0.725588310071565  1.0000
  H   H33       1.0  0.6619343611326443  0.9013075338714956  0.27075337706753533  1.0000
  H   H34       1.0  0.3380650230588529  0.09868819081754049  0.7292463196240178  1.0000
  H   H35       1.0  0.7826664593071728  0.11089304946193576  0.19088144105171526  1.0000
  H   H36       1.0  0.2173329247352314  0.8891026776514578  0.8091191506653529  1.0000
  H   H37       1.0  0.0774984827378944  0.08035807472526808  0.1297578622425277  1.0000
  H   H38       1.0  0.9224994466719781  0.9196387069138366  0.8702465041562633  1.0000
  C   C1        1.0  0.9085469410891777  0.66204190412072  0.8336176375267643  1.0000
  C   C2        1.0  0.09144253782892518  0.3379600852451361  0.1663818192473485  1.0000
  C   C3        1.0  0.8995813194582496  0.6599493562389114  0.97088402811746  1.0000
  C   C4        1.0  0.10041143084234246  0.3400536757319443  0.02911409261331951  1.0000
  C   C5        1.0  0.05007236765071349  0.67347752426668  0.7243022274064616  1.0000
  C   C6        1.0  0.9499253803027373  0.3265244684814946  0.27569723585399686  1.0000
  C   C7        1.0  0.05093652101125194  0.6779529554670063  0.5980912051877993  1.0000
  C   C8        1.0  0.9490604090468153  0.322052167674201  0.4019067988188424  1.0000
  C   C9        1.0  0.9102910439594609  0.6701222470828796  0.5834620301314288  1.0000
  C   C10       1.0  0.08970797627553398  0.3298839167947847  0.4165341254620998  1.0000
  C   C11       1.0  0.7745260486233934  0.6576563593641113  0.6963186417064334  1.0000
  C   C12       1.0  0.2254690645356163  0.34234666907074274  0.30367781868733357  1.0000
  C   C13       1.0  0.4093512395414436  0.0054628069494385  0.02379664608788088  1.0000
  C   C14       1.0  0.5906479618517864  0.9945381506678787  0.9762062026950175  1.0000
  C   C15       1.0  0.3841490732665207  0.8168421249487139  0.2884003074441139  1.0000
  C   C16       1.0  0.6158545808638608  0.18315987471777356  0.7116008226396958  1.0000
  C   C17       1.0  0.47704163635014407  0.6964540198575904  0.3439806211871854  1.0000
  C   C18       1.0  0.5229604734135761  0.3035448432544355  0.6560200483853862  1.0000
  C   C19       1.0  0.4961906810411705  0.6916209828170495  0.4636203711088456  1.0000
  C   C20       1.0  0.5038096110780259  0.3083757977104113  0.5363832299784548  1.0000
  C   C21       1.0  0.42468521518432567  0.8068550090254335  0.5264762353677311  1.0000
  C   C22       1.0  0.5753256183490337  0.1931375923899594  0.47352595180353757  1.0000
  C   C23       1.0  0.33194235796332094  0.926873162094992  0.47085130337648445  1.0000
  C   C24       1.0  0.6680706550338158  0.0731246784101032  0.5291559556511912  1.0000
  C   C25       1.0  0.3107553843422365  0.9317493390160081  0.3523996611080165  1.0000
  C   C26       1.0  0.6892570840373865  0.06825057791223092  0.6476027466398622  1.0000
  C   C27       1.0  0.12777426191650676  0.854470149011263  0.16658578673855118  1.0000
  C   C28       1.0  0.8722257578193862  0.14552767093994853  0.8334158362216115  1.0000
  C   C29       1.0  0.061056351186714104  0.7373192557285222  0.20530308360033442  1.0000
  C   C30       1.0  0.9389451233307966  0.26267750727262046  0.7946938696525905  1.0000
  C   C31       1.0  0.8934729157949944  0.7545880477470774  0.24337180353020943  1.0000
  C   C32       1.0  0.10653146664572691  0.2454066280218541  0.756625655588941  1.0000
  C   C33       1.0  0.7928032063744798  0.8885985411564761  0.23992230175372933  1.0000
  C   C34       1.0  0.20719735887349341  0.1113971878254532  0.7600788023331119  1.0000
  C   C35       1.0  0.8598021412731001  0.005657238030629202  0.19725050245946107  1.0000
  C   C36       1.0  0.14019987845830428  0.9943374388499463  0.8027477219711798  1.0000
  C   C37       1.0  0.027077160583218154  0.9883881890462971  0.16179754653192902  1.0000
  C   C38       1.0  0.9729187698748021  0.011611718692954303  0.8382039532177431  1.0000
  N   N1        1.0  0.7730184535082503  0.6538765623496303  0.8182854978635702  1.0000
  N   N2        1.0  0.22697665965075933  0.3461264660852238  0.18171096253020375  1.0000
  Cl  Cl1       1.0  0.3709777711767828  0.6099641153684061  0.8575453248005901  1.0000
  Cl  Cl2       1.0  0.6290190679544027  0.39003683608748224  0.14245560421723974  1.0000
