data_image0
_chemical_formula_structural       Al2H10C20S2N2Cl2O10
_chemical_formula_sum              "Al2 H10 C20 S2 N2 Cl2 O10"
_cell_length_a       6.603192700316653
_cell_length_b       11.204240278660112
_cell_length_c       12.266314234641941
_cell_angle_alpha    77.28524621195135
_cell_angle_beta     80.40730855593186
_cell_angle_gamma    70.97772156611714

_space_group_name_H-M_alt    "P 1"
_space_group_IT_number       1

loop_
  _space_group_symop_operation_xyz
  'x, y, z'

loop_
  _atom_site_type_symbol
  _atom_site_label
  _atom_site_symmetry_multiplicity
  _atom_site_fract_x
  _atom_site_fract_y
  _atom_site_fract_z
  _atom_site_occupancy
  Al  Al1       1.0  0.50428626594519  0.4982763800706991  0.5028626851452529  1.0000
  Al  Al2       1.0  0.005627109509831046  0.4959307880518011  0.503382023503093  1.0000
  H   H1        1.0  0.326927782979624  0.33324255076373527  0.5644451908190291  1.0000
  H   H2        1.0  0.6896632530865575  0.661100455440689  0.44944059348021176  1.0000
  H   H3        1.0  0.2017808472165684  0.24966011398235816  0.34605830347160804  1.0000
  H   H4        1.0  0.5122378716131877  0.14534334612281438  0.22313698287049286  1.0000
  H   H5        1.0  0.3998251197274741  0.7801019837726173  0.3492497673392734  1.0000
  H   H6        1.0  0.6101221967564148  0.9095576201256745  0.22357338954803643  1.0000
  H   H7        1.0  0.1625375394555633  0.4218882936741153  0.8763692689231917  1.0000
  H   H8        1.0  0.32528585322825887  0.4228513138207148  0.7494880906564846  1.0000
  H   H9        1.0  0.8458200696550835  0.5753388695875329  0.12860408794259115  1.0000
  H   H10       1.0  0.6842819657531293  0.5736650585543188  0.2557656953232481  1.0000
  C   C1        1.0  0.8682680550787654  0.274083905126254  0.49187185934418653  1.0000
  C   C2        1.0  0.7077411781592603  0.47961983531295954  0.7023240120212435  1.0000
  C   C3        1.0  0.13751442173898462  0.7211936504656363  0.5120291075701929  1.0000
  C   C4        1.0  0.30227914247248594  0.5153088143828909  0.3031520287824421  1.0000
  C   C5        1.0  0.44625956324144767  0.45893389996756173  0.8766385364689597  1.0000
  C   C6        1.0  0.5623321033930962  0.5381321476109022  0.12851848130501514  1.0000
  C   C7        1.0  0.6325040328336726  0.48794018519849663  0.8182491045724304  1.0000
  C   C8        1.0  0.37686335564387013  0.5082880919357321  0.18714175400216962  1.0000
  C   C9        1.0  0.5847425039633691  0.5197900956605181  0.014872713813183213  1.0000
  C   C10       1.0  0.42403401231895543  0.47730367619266906  0.9902675870274109  1.0000
  C   C11       1.0  0.9390967464497848  0.13179654555687387  0.49579497915186016  1.0000
  C   C12       1.0  0.1231556792933759  0.07391235274592127  0.4246327746815197  1.0000
  C   C13       1.0  0.8233269980221393  0.057587201215582716  0.568070112644108  1.0000
  C   C14       1.0  0.24564151619492958  0.14659982644377578  0.3491210893359238  1.0000
  C   C15       1.0  0.41978461291543573  0.0879457466487636  0.27995296600359854  1.0000
  C   C16       1.0  0.06443061571625465  0.8640009962333155  0.5046836788042128  1.0000
  C   C17       1.0  0.8872184909328884  0.9223711451091745  0.5733132247380086  1.0000
  C   C18       1.0  0.18413121884233172  0.9381056644211158  0.42776376340209055  1.0000
  C   C19       1.0  0.3596756922477412  0.8817253836738034  0.3522511855384779  1.0000
  C   C20       1.0  0.4759416166406753  0.9548321580465428  0.2806778153040171  1.0000
  S   S1        1.0  0.7686451606189595  0.5402404509358404  0.9003266039666472  1.0000
  S   S2        1.0  0.24065803369301622  0.45608623241417934  0.10491353822792603  1.0000
  N   N1        1.0  0.3104014443254925  0.4169738136266615  0.8343898331841262  1.0000
  N   N2        1.0  0.6979893813961057  0.5803957804401066  0.17079064059848995  1.0000
  Cl  Cl1       1.0  0.748728665723874  0.832216127131176  0.6691427502728047  1.0000
  Cl  Cl2       1.0  0.6078800048377957  0.1254091577095835  0.6587979547644809  1.0000
  O   O1        1.0  0.6806378935038923  0.3361455285820155  0.46378156700023954  1.0000
  O   O2        1.0  0.8841357175481904  0.5028854288257278  0.6580926294437219  1.0000
  O   O3        1.0  0.00935294477405094  0.6700932282713551  0.4874870621751839  1.0000
  O   O4        1.0  0.41814141304593017  0.5525209027199409  0.35601302271637536  1.0000
  O   O5        1.0  0.3270782561527456  0.6619337712090001  0.5390086452550945  1.0000
  O   O6        1.0  0.12966375546040615  0.4873175611559618  0.3480490482301875  1.0000
  O   O7        1.0  0.9998754219096072  0.322405511848963  0.5172091942806318  1.0000
  O   O8        1.0  0.5879260042344685  0.4459371097783772  0.6492272804657162  1.0000
  O   O9        1.0  0.27851578119203413  0.4265566565889714  0.5535183652015121  1.0000
  O   O10       1.0  0.7323064394093491  0.5688833347956506  0.45181663891740687  1.0000
