data_image0
_chemical_formula_structural       Zn8H108Pt4C92N20Cl8O44
_chemical_formula_sum              "Zn8 H108 Pt4 C92 N20 Cl8 O44"
_cell_length_a       12.774212439141035
_cell_length_b       14.95812646301699
_cell_length_c       23.218200134231854
_cell_angle_alpha    90.00001919126316
_cell_angle_beta     89.99948879407744
_cell_angle_gamma    89.99982877910537

_space_group_name_H-M_alt    "P 1"
_space_group_IT_number       1

loop_
  _space_group_symop_operation_xyz
  'x, y, z'

loop_
  _atom_site_type_symbol
  _atom_site_label
  _atom_site_symmetry_multiplicity
  _atom_site_fract_x
  _atom_site_fract_y
  _atom_site_fract_z
  _atom_site_occupancy
  Zn  Zn1       1.0  0.15752947478732443  0.5137963077096686  0.9018731999382649  1.0000
  Zn  Zn2       1.0  0.6575393749980238  0.0138085176501122  0.5981291629617472  1.0000
  Zn  Zn3       1.0  0.3424615684806441  0.5138106629669963  0.401868873198481  1.0000
  Zn  Zn4       1.0  0.8424612919470748  0.0137981372032883  0.09812914321003768  1.0000
  Zn  Zn5       1.0  0.24886149882178193  0.39160487934670835  0.015270646037826898  1.0000
  Zn  Zn6       1.0  0.7488571077762247  0.8916221860530699  0.4847292112104213  1.0000
  Zn  Zn7       1.0  0.25112998689676397  0.39162906039846496  0.515264607841395  1.0000
  Zn  Zn8       1.0  0.7511412523753834  0.8916069236449572  0.9847339403860713  1.0000
  H   H1        1.0  0.06035507758897301  0.27835048252991607  0.8214683835448041  1.0000
  H   H2        1.0  0.5603627035563078  0.778345584628518  0.6785302117315765  1.0000
  H   H3        1.0  0.4396396616492382  0.27835723621195996  0.3214657338355096  1.0000
  H   H4        1.0  0.9396465047790984  0.7783362935225284  0.1785322996849672  1.0000
  H   H5        1.0  0.018212713691340802  0.1764106706752671  0.9930170864743884  1.0000
  H   H6        1.0  0.51820277145832  0.6764317654596751  0.5069773842689428  1.0000
  H   H7        1.0  0.48179290536925384  0.17643001904395564  0.49301767569028226  1.0000
  H   H8        1.0  0.9817821803013232  0.6764056535931432  0.006988740896502998  1.0000
  H   H9        1.0  0.8900769074222127  0.0437264640183557  0.8439400705183715  1.0000
  H   H10       1.0  0.3900827407000094  0.5437295155108897  0.6560564216718914  1.0000
  H   H11       1.0  0.6099079211969781  0.04373338968039769  0.3439420523239106  1.0000
  H   H12       1.0  0.10990905752029793  0.5437217334551223  0.15606055697023175  1.0000
  H   H13       1.0  0.8737440393605169  0.035817694657843895  0.6482208043413491  1.0000
  H   H14       1.0  0.37373964934719334  0.5358275229030197  0.8517852413993194  1.0000
  H   H15       1.0  0.6262666967734134  0.03582056745332811  0.14821581485772836  1.0000
  H   H16       1.0  0.126259958264761  0.535826384504567  0.35178283610061806  1.0000
  H   H17       1.0  0.0030315889972172003  0.13866787770757583  0.4892364672804348  1.0000
  H   H18       1.0  0.5030388075108689  0.6386629014550566  0.010771856939825896  1.0000
  H   H19       1.0  0.49696091566087824  0.13865265720139058  0.9892382684103463  1.0000
  H   H20       1.0  0.9969579574649076  0.638661051618385  0.5107654748607544  1.0000
  H   H21       1.0  0.0833841272181388  0.2485418682599914  0.6545953541669289  1.0000
  H   H22       1.0  0.5834062659398994  0.7485290258825047  0.8454100122211867  1.0000
  H   H23       1.0  0.41660872891802114  0.24852260786460786  0.1545945401561895  1.0000
  H   H24       1.0  0.9166097312721461  0.7485438606924079  0.345406183390068  1.0000
  H   H25       1.0  0.1354257477781076  0.5773109438335098  0.7696041804254036  1.0000
  H   H26       1.0  0.6354483742340237  0.07731318753635459  0.7303892612875345  1.0000
  H   H27       1.0  0.3645758316217852  0.5773045182133244  0.2696062057326357  1.0000
  H   H28       1.0  0.8645694934635912  0.07730475635472801  0.2303930094519585  1.0000
  H   H29       1.0  0.3009511202849922  0.3819921499302481  0.7512633978427343  1.0000
  H   H30       1.0  0.8009638690639278  0.88198594774304  0.748727581978329  1.0000
  H   H31       1.0  0.19903421895334367  0.3819935001362822  0.25126537336243615  1.0000
  H   H32       1.0  0.6990305282647001  0.8819933147688417  0.24874032495420542  1.0000
  H   H33       1.0  0.2779718553055446  0.37984550212637197  0.6747041172908863  1.0000
  H   H34       1.0  0.7779708357292918  0.8798413413137426  0.8252964500456698  1.0000
  H   H35       1.0  0.22202412845321362  0.3798514734712555  0.1747008117592586  1.0000
  H   H36       1.0  0.7220285885898863  0.8798513238511844  0.3253017584332126  1.0000
  H   H37       1.0  0.18472353269768862  0.33122256418038637  0.7226348426261494  1.0000
  H   H38       1.0  0.6847131146249977  0.8312223921905401  0.7773601406147674  1.0000
  H   H39       1.0  0.3152757573312144  0.3312142586292809  0.22263323337458013  1.0000
  H   H40       1.0  0.8152723846012081  0.8312201034293666  0.2773697294583997  1.0000
  H   H41       1.0  0.09822499283838942  0.5686541371324909  0.6783840214880426  1.0000
  H   H42       1.0  0.5982289159932749  0.06865642346311773  0.8216126154828556  1.0000
  H   H43       1.0  0.4017741838495184  0.5686522964160402  0.17838284953150207  1.0000
  H   H44       1.0  0.9017781069892622  0.06865324568132539  0.3216135970091826  1.0000
  H   H45       1.0  0.1919345568106152  0.5122164579817367  0.6338829196085027  1.0000
  H   H46       1.0  0.6919377574743849  0.012212748299731398  0.8661097989182307  1.0000
  H   H47       1.0  0.3080655400785375  0.512213519076333  0.13388823685668425  1.0000
  H   H48       1.0  0.8080648265925917  0.012221842991728198  0.36611425478422877  1.0000
  H   H49       1.0  0.07595629342068831  0.45592346462494493  0.655429656354279  1.0000
  H   H50       1.0  0.5759737487959882  0.9559219869208704  0.8445645976571469  1.0000
  H   H51       1.0  0.4240405195898731  0.45591822448137254  0.15542837522049519  1.0000
  H   H52       1.0  0.9240399698818181  0.9559207579992872  0.3445697770170779  1.0000
  H   H53       1.0  0.9579733092511802  0.44786655800974257  0.8236528498703349  1.0000
  H   H54       1.0  0.4579795959545976  0.947861596582264  0.676346851079195  1.0000
  H   H55       1.0  0.54202060972888  0.44787165113600463  0.3236495654911096  1.0000
  H   H56       1.0  0.04202219949760181  0.9478566617203724  0.17634227462046678  1.0000
  H   H57       1.0  0.7022253242876246  0.4955225803769635  0.8046024795144502  1.0000
  H   H58       1.0  0.2022320845167016  0.995504257188152  0.6953993480786733  1.0000
  H   H59       1.0  0.7977749996537825  0.4955129823734126  0.3046035402504828  1.0000
  H   H60       1.0  0.2977778457715772  0.9955107039782264  0.19539394837711646  1.0000
  H   H61       1.0  0.8120414269980359  0.4341049829295258  0.7771108386270666  1.0000
  H   H62       1.0  0.3120524378210733  0.9341007117657582  0.7228887131447832  1.0000
  H   H63       1.0  0.6879572100276691  0.43409499632811327  0.27710726943231373  1.0000
  H   H64       1.0  0.18796195821278164  0.9340847083769291  0.22288902023412754  1.0000
  H   H65       1.0  0.770921177672932  0.5359620350512058  0.7435657156693835  1.0000
  H   H66       1.0  0.2709286985111277  0.03595286336918241  0.7564382500312942  1.0000
  H   H67       1.0  0.7290839097779271  0.5359572918845217  0.24356151415173594  1.0000
  H   H68       1.0  0.2290757740782325  0.035953468485423905  0.25643232576624087  1.0000
  H   H69       1.0  0.882780482142529  0.6721059760244829  0.8634761304633612  1.0000
  H   H70       1.0  0.3827742934260955  0.17209407422329553  0.6365178438705924  1.0000
  H   H71       1.0  0.6172190501014684  0.6720988438768671  0.3634776457604687  1.0000
  H   H72       1.0  0.11720581593036881  0.17209295888095966  0.13651935918569075  1.0000
  H   H73       1.0  0.7503558956792206  0.635350206126958  0.8694747623652855  1.0000
  H   H74       1.0  0.25036154676476496  0.1353356273775574  0.6305198524738245  1.0000
  H   H75       1.0  0.7496444507958203  0.6353333769513014  0.36947433629644166  1.0000
  H   H76       1.0  0.2496461877048333  0.1353321688658369  0.13052157989919516  1.0000
  H   H77       1.0  0.7959607353608008  0.6798129200638741  0.8028880991380728  1.0000
  H   H78       1.0  0.2959543457818583  0.17980438922320732  0.6971007036472796  1.0000
  H   H79       1.0  0.7040491475466197  0.6798048980562329  0.3028883273423871  1.0000
  H   H80       1.0  0.20403727809507194  0.179793693093373  0.19711169927986558  1.0000
  H   H81       1.0  0.0786238020547572  0.6984920071058055  0.9374881483933418  1.0000
  H   H82       1.0  0.5786233208814552  0.1985021948290253  0.5625219671562505  1.0000
  H   H83       1.0  0.4213652330908816  0.698502818561373  0.43748386548299567  1.0000
  H   H84       1.0  0.9213764943596133  0.1984889390846192  0.0625185456074675  1.0000
  H   H85       1.0  0.081920989992426  0.9162605769499025  0.9003440294842944  1.0000
  H   H86       1.0  0.5819222543021071  0.4162620910885834  0.5996575077351591  1.0000
  H   H87       1.0  0.41808119340110045  0.9162633743985609  0.40033976270675  1.0000
  H   H88       1.0  0.9180785435915554  0.4162555290813189  0.09965324096609858  1.0000
  H   H89       1.0  0.004948628337778901  0.8290452143683495  0.931695475172347  1.0000
  H   H90       1.0  0.5049676237610043  0.32905473624010984  0.5683184781673062  1.0000
  H   H91       1.0  0.49502830117169333  0.8290538324316117  0.4316809250427481  1.0000
  H   H92       1.0  0.9950386854967094  0.32904329832768303  0.06830823502249218  1.0000
  H   H93       1.0  0.9837821089461228  0.8624017369778372  0.8586977573312919  1.0000
  H   H94       1.0  0.4837828879601033  0.3624145731200912  0.6413069651347171  1.0000
  H   H95       1.0  0.5162113544277176  0.8624075644276631  0.35869632227930726  1.0000
  H   H96       1.0  0.016220744611317207  0.3624036872346679  0.1413003617003596  1.0000
  H   H97       1.0  0.13873565406920824  0.849304233239195  0.7934006228333528  1.0000
  H   H98       1.0  0.6387524041375273  0.34932251062897995  0.7066062189272555  1.0000
  H   H99       1.0  0.3612630204859855  0.8493238888412195  0.29339060487418317  1.0000
  H   H100      1.0  0.8612570685725772  0.34931341934557747  0.20660180007620704  1.0000
  H   H101      1.0  0.2565703862739994  0.8403898747401967  0.8348419603534012  1.0000
  H   H102      1.0  0.7565768496343352  0.3404027845248336  0.665163870876384  1.0000
  H   H103      1.0  0.24342294975881631  0.8403998027282141  0.33482605969652457  1.0000
  H   H104      1.0  0.7434286302035461  0.34040134745728773  0.16516132181486398  1.0000
  H   H105      1.0  0.20574499650752642  0.7438123285542914  0.8009682160887905  1.0000
  H   H106      1.0  0.7057548239844992  0.2438339450834874  0.6990399948510839  1.0000
  H   H107      1.0  0.29425783890332724  0.7438354976294903  0.3009550810913879  1.0000
  H   H108      1.0  0.7942496613228798  0.2438263616697043  0.19903762730931615  1.0000
  Pt  Pt1       1.0  0.9720379864150461  0.14892600786812696  0.741833776270333  1.0000
  Pt  Pt2       1.0  0.47205077287674874  0.6489297755745723  0.7581731064765193  1.0000
  Pt  Pt3       1.0  0.5279567426175262  0.1489284627146787  0.24183271433044234  1.0000
  Pt  Pt4       1.0  0.027953089706152005  0.6489262136461775  0.2581737673626349  1.0000
  C   C1        1.0  0.0295835541164919  0.22886839590252353  0.8512179597792765  1.0000
  C   C2        1.0  0.5296049711774772  0.728867495286458  0.6487786210883113  1.0000
  C   C3        1.0  0.47039052193984077  0.2288723970392965  0.3512164513384661  1.0000
  C   C4        1.0  0.9703939339514494  0.7288541145918118  0.14878400383526713  1.0000
  C   C5        1.0  0.043856345711603205  0.23812623540540304  0.9102414501984125  1.0000
  C   C6        1.0  0.543861498867095  0.7381319925737271  0.5897576471114973  1.0000
  C   C7        1.0  0.4561425728711157  0.2381349526240939  0.4102404423728457  1.0000
  C   C8        1.0  0.9561398977276029  0.73811463702053  0.0897656839307501  1.0000
  C   C9        1.0  0.004406372542924  0.17280795357883963  0.946880038041783  1.0000
  C   C10       1.0  0.5043909842187873  0.6728277328530723  0.5531188065162737  1.0000
  C   C11       1.0  0.49561253349452267  0.1728265982029811  0.44687754465677887  1.0000
  C   C12       1.0  0.9955940138319406  0.672803591377189  0.05312923403204908  1.0000
  C   C13       1.0  0.945366453684443  0.10330339206729633  0.9235645464354075  1.0000
  C   C14       1.0  0.4453688827470543  0.6033097490427506  0.5764385799907287  1.0000
  C   C15       1.0  0.5546270502103638  0.10330644745906882  0.4235616309426007  1.0000
  C   C16       1.0  0.054626347943695905  0.6032887372551132  0.076443417041645  1.0000
  C   C17       1.0  0.9334805000282672  0.0979263829985868  0.863945827916524  1.0000
  C   C18       1.0  0.433485875231284  0.5979407902093145  0.6360564941081746  1.0000
  C   C19       1.0  0.5665077280353189  0.09794010462576348  0.3639454383411546  1.0000
  C   C20       1.0  0.06652014871061601  0.5979324502413663  0.13605739660273028  1.0000
  C   C21       1.0  0.0988136160045556  0.3194518635768162  0.9327525446557486  1.0000
  C   C22       1.0  0.598822265931389  0.8194642955570401  0.5672493174038278  1.0000
  C   C23       1.0  0.4011854349994551  0.31946540061801443  0.4327505141941329  1.0000
  C   C24       1.0  0.9011854738631229  0.8194477486281997  0.06724944044277238  1.0000
  C   C25       1.0  0.8920087564535351  0.03723837722933611  0.9625022267684926  1.0000
  C   C26       1.0  0.39201260059885373  0.5372560810752703  0.5374921009310609  1.0000
  C   C27       1.0  0.6079859122944526  0.03724731340191309  0.4625033566287228  1.0000
  C   C28       1.0  0.1079819281990808  0.5372335962111661  0.03749624568299479  1.0000
  C   C29       1.0  0.9232462259920383  0.08190093739773367  0.624312289158368  1.0000
  C   C30       1.0  0.42325788718186885  0.5818987431960567  0.8756939554867242  1.0000
  C   C31       1.0  0.5767349894594248  0.0818812062992507  0.12431141872132657  1.0000
  C   C32       1.0  0.0767380395367496  0.5818950568982901  0.3756913622862753  1.0000
  C   C33       1.0  0.9307955193102586  0.07931235429639831  0.564345951164583  1.0000
  C   C34       1.0  0.4307960301217976  0.5793148678454899  0.9356585330926418  1.0000
  C   C35       1.0  0.5692148605814041  0.07931136132671668  0.06434554836879867  1.0000
  C   C36       1.0  0.0692036289895412  0.5793158804893322  0.4356572689326653  1.0000
  C   C37       1.0  0.9962893094487271  0.13963332127172381  0.5360111294489371  1.0000
  C   C38       1.0  0.49630501676183064  0.6396284941727401  0.96399347869405  1.0000
  C   C39       1.0  0.5036970515594278  0.13961912462534798  0.036010186430942795  1.0000
  C   C40       1.0  0.0037049305731428994  0.6396343535238104  0.46399167430442373  1.0000
  C   C41       1.0  0.05282177221121741  0.20128530041601067  0.5685120927894615  1.0000
  C   C42       1.0  0.5528354678170758  0.701278515049303  0.9314916894447832  1.0000
  C   C43       1.0  0.4471624704287365  0.2012746530513709  0.0685059605954663  1.0000
  C   C44       1.0  0.9471628579046083  0.7012792327627082  0.431491587037243  1.0000
  C   C45       1.0  0.041529791565551505  0.20068164347991063  0.628039129040573  1.0000
  C   C46       1.0  0.5415389738510329  0.7006795100486939  0.871967292605582  1.0000
  C   C47       1.0  0.45849184518931463  0.20068834913901407  0.12803294139278876  1.0000
  C   C48       1.0  0.9584767597826199  0.7006875528059737  0.3719671347699389  1.0000
  C   C49       1.0  0.8704869140974552  0.012864930335830098  0.5298408325048384  1.0000
  C   C50       1.0  0.3704821676768688  0.5128674600077545  0.9701678079281418  1.0000
  C   C51       1.0  0.6295226932828798  0.0128657892286697  0.0298250596390233  1.0000
  C   C52       1.0  0.12951559832734463  0.5128629706420254  0.47015978760636284  1.0000
  C   C53       1.0  0.12406540941275782  0.2682454607047191  0.5409830911176028  1.0000
  C   C54       1.0  0.6240872691550976  0.7682380196515693  0.9590199270143669  1.0000
  C   C55       1.0  0.3759198283439319  0.2682370005485737  0.040988506338173594  1.0000
  C   C56       1.0  0.8759174204942256  0.7682435987156069  0.4590162976673681  1.0000
  C   C57       1.0  0.17953971757356876  0.5138483947836505  0.7715167883650408  1.0000
  C   C58       1.0  0.6795435871548109  0.0138479634878195  0.7284867587350303  1.0000
  C   C59       1.0  0.32046048750705586  0.5138427501480152  0.271511277426029  1.0000
  C   C60       1.0  0.8204510490166115  0.013850341264110002  0.22848081713298996  1.0000
  C   C61       1.0  0.24170624933356785  0.38588842738809603  0.7173229281879187  1.0000
  C   C62       1.0  0.7417192298543756  0.8858728815921066  0.7826722193027109  1.0000
  C   C63       1.0  0.2582819758475949  0.38587625590938046  0.21732245974043704  1.0000
  C   C64       1.0  0.7582832138447702  0.8858854458486007  0.2826807955156879  1.0000
  C   C65       1.0  0.13575626028671914  0.5042282379637016  0.6693013917906184  1.0000
  C   C66       1.0  0.6357647329574689  0.0042271858653891  0.8306933230509371  1.0000
  C   C67       1.0  0.36424250673638875  0.5042211446564906  0.16930255733194594  1.0000
  C   C68       1.0  0.864241585458288  0.004225440833941702  0.3306962114023547  1.0000
  C   C69       1.0  0.9426797517483225  0.5163791721164728  0.8392690930543975  1.0000
  C   C70       1.0  0.4426872607966459  0.016378646665131696  0.6607335951688993  1.0000
  C   C71       1.0  0.5573183706814149  0.5163835577177808  0.3392588425353224  1.0000
  C   C72       1.0  0.0573250968188006  0.016370998677842898  0.16073626554849335  1.0000
  C   C73       1.0  0.7802091462221981  0.5011147543004313  0.7849952567021955  1.0000
  C   C74       1.0  0.2802110771193043  0.0011062318089045998  0.7150069324025093  1.0000
  C   C75       1.0  0.71980008764767  0.501100006810141  0.28498851653213103  1.0000
  C   C76       1.0  0.2197996700074398  0.0010934899218852999  0.21500665268753485  1.0000
  C   C77       1.0  0.8183164765107734  0.6397029306230735  0.8405998344050899  1.0000
  C   C78       1.0  0.31831148200679843  0.13968435417599068  0.6593974631624488  1.0000
  C   C79       1.0  0.6816882376303185  0.639700982406026  0.3406014643220132  1.0000
  C   C80       1.0  0.18168480878629376  0.13969711368034152  0.15939521680782315  1.0000
  C   C81       1.0  0.1317028935305302  0.7083273872289555  0.9007422770881061  1.0000
  C   C82       1.0  0.6317245177719358  0.20833291235416604  0.5992632735341131  1.0000
  C   C83       1.0  0.3682820068457532  0.7083383339936161  0.4007339474667261  1.0000
  C   C84       1.0  0.8682864088415486  0.2083318255501752  0.09926355788564216  1.0000
  C   C85       1.0  0.04347887831210782  0.8517645788509827  0.892093261172505  1.0000
  C   C86       1.0  0.5434870540418972  0.35176877096760956  0.6079153403227409  1.0000
  C   C87       1.0  0.45650800847057843  0.8517686153909308  0.39208622177267916  1.0000
  C   C88       1.0  0.9565200983593769  0.3517634480414528  0.10790743951899627  1.0000
  C   C89       1.0  0.18374413866926886  0.8061985168958827  0.8225289495463243  1.0000
  C   C90       1.0  0.6837527505938327  0.30621343802705775  0.6774763692208906  1.0000
  C   C91       1.0  0.31625421396365283  0.8062182872301165  0.3225187215663324  1.0000
  C   C92       1.0  0.8162510834570613  0.30620914119295856  0.17747432450234157  1.0000
  N   N1        1.0  0.9770865019180166  0.1589633749218322  0.8282909404243808  1.0000
  N   N2        1.0  0.4770936467097471  0.6589744561177043  0.6717107516115347  1.0000
  N   N3        1.0  0.5229107023025678  0.15897988182626932  0.328291626019208  1.0000
  N   N4        1.0  0.022910018858240698  0.6589628846497745  0.17171316000864315  1.0000
  N   N5        1.0  0.9779584389917346  0.14220053892624665  0.6553516052165946  1.0000
  N   N6        1.0  0.47797216979933677  0.6421996672912016  0.844654385507468  1.0000
  N   N7        1.0  0.5220361521149997  0.1421876326079854  0.15535186439280574  1.0000
  N   N8        1.0  0.022039706161699302  0.6422014687097074  0.344652491227336  1.0000
  N   N9        1.0  0.18837205663464834  0.47188656578569527  0.7210210302194398  1.0000
  N   N10       1.0  0.6883796173613137  0.9718750294681655  0.7789791368888358  1.0000
  N   N11       1.0  0.31161737292826797  0.4718755954147724  0.22101427052103154  1.0000
  N   N12       1.0  0.8116178880917959  0.9718801038989824  0.27898357532137646  1.0000
  N   N13       1.0  0.8510381715703518  0.55083814592048  0.8223205489607536  1.0000
  N   N14       1.0  0.3510375772634831  0.05082358920157759  0.6776731214632078  1.0000
  N   N15       1.0  0.6489820244272478  0.550832938429714  0.3223188936997872  1.0000
  N   N16       1.0  0.1489822128786713  0.0508277411722489  0.17767792665052437  1.0000
  N   N17       1.0  0.1199261320802663  0.7857274633952614  0.8729774584400755  1.0000
  N   N18       1.0  0.6199402600788204  0.2857370126945753  0.6270273069502748  1.0000
  N   N19       1.0  0.3800597307607347  0.7857390486713738  0.3729695017719762  1.0000
  N   N20       1.0  0.8800675961354687  0.2857285419921993  0.12702451865441589  1.0000
  Cl  Cl1       1.0  0.9409775449661737  0.30178676705480717  0.7346700939342767  1.0000
  Cl  Cl2       1.0  0.4409964777701419  0.8017825157033939  0.7653339625503502  1.0000
  Cl  Cl3       1.0  0.559017547746663  0.30177978326207006  0.2346637113448722  1.0000
  Cl  Cl4       1.0  0.0590200411424959  0.8017815487287193  0.26533102557480953  1.0000
  Cl  Cl5       1.0  0.0014826842515774  0.9967266035290763  0.7480365646921637  1.0000
  Cl  Cl6       1.0  0.5014814756532786  0.4967268517382948  0.7519649553530738  1.0000
  Cl  Cl7       1.0  0.49851621033260335  0.9967258532718546  0.2480370718954177  1.0000
  Cl  Cl8       1.0  0.9985134360229325  0.49672677001760224  0.25197235370594473  1.0000
  O   O1        1.0  0.10476639997130383  0.38462912813302097  0.8981787984435383  1.0000
  O   O2        1.0  0.6047737057306365  0.8846322168014564  0.6018239113206859  1.0000
  O   O3        1.0  0.3952353325464201  0.3846279726210469  0.3981776585530952  1.0000
  O   O4        1.0  0.8952316787902534  0.8846123423807201  0.10181889518543126  1.0000
  O   O5        1.0  0.13192444446819  0.3148135519988741  0.9843128764495075  1.0000
  O   O6        1.0  0.6319347143984045  0.8148252913627728  0.5156858072858341  1.0000
  O   O7        1.0  0.3680651745012042  0.31482717345647865  0.484315315318291  1.0000
  O   O8        1.0  0.8680644849394101  0.8147988008584973  0.015686092693677295  1.0000
  O   O9        1.0  0.9039780180137387  0.04913134163790289  0.0159912775294728  1.0000
  O   O10       1.0  0.4039675670087135  0.5491459113753124  0.48400601499496065  1.0000
  O   O11       1.0  0.5960262072702349  0.0491458900900668  0.5159872919211921  1.0000
  O   O12       1.0  0.09602123602623179  0.5491270331768873  0.9840127967844264  1.0000
  O   O13       1.0  0.8387226209432301  0.976464353359489  0.9374204214872106  1.0000
  O   O14       1.0  0.33870510754780986  0.4764804954201196  0.5625708263752428  1.0000
  O   O15       1.0  0.6612879524704455  0.9764758278114841  0.4374238742283864  1.0000
  O   O16       1.0  0.1612868784868979  0.4764578746726115  0.06257643255509039  1.0000
  O   O17       1.0  0.7941413824158874  0.969835816992635  0.5551755691922722  1.0000
  O   O18       1.0  0.2941380161798435  0.46983341863980144  0.9448322621086473  1.0000
  O   O19       1.0  0.7058597640313948  0.9698211050280605  0.05517105083431769  1.0000
  O   O20       1.0  0.20586031198917715  0.46982739759611303  0.44481869911340505  1.0000
  O   O21       1.0  0.8935492573242315  0.9987831479132793  0.4784187332611154  1.0000
  O   O22       1.0  0.3935441519360411  0.49878723722010687  0.0215825935525231  1.0000
  O   O23       1.0  0.6064637035969938  0.9987869732441228  0.9784177113745469  1.0000
  O   O24       1.0  0.1064617295662913  0.49878705134821644  0.5215764032985246  1.0000
  O   O25       1.0  0.12203908432869072  0.2795162473419878  0.487512113764012  1.0000
  O   O26       1.0  0.6220674112240943  0.7795012438732342  0.012492645523529697  1.0000
  O   O27       1.0  0.3779607831303338  0.27952071764502756  0.9875136369744691  1.0000
  O   O28       1.0  0.8779452717415597  0.7795217590204758  0.5124864163044477  1.0000
  O   O29       1.0  0.18515296799294131  0.3122963622015432  0.5753469367185957  1.0000
  O   O30       1.0  0.6851644260962289  0.8122929163098221  0.9246553617055039  1.0000
  O   O31       1.0  0.3148440827373804  0.31229942280855744  0.07534920584883047  1.0000
  O   O32       1.0  0.8148383186986338  0.8123026622661057  0.4246494476432331  1.0000
  O   O33       1.0  0.21704463920066533  0.4848955340066751  0.8179134848845916  1.0000
  O   O34       1.0  0.7170608184989292  0.9849020028151686  0.682088698199898  1.0000
  O   O35       1.0  0.28295021704118994  0.48490068150835003  0.3179051429690175  1.0000
  O   O36       1.0  0.782958567991379  0.9848951167370358  0.18209241580705537  1.0000
  O   O37       1.0  0.007183791752964901  0.5576983804202128  0.870167412364047  1.0000
  O   O38       1.0  0.5071876974704708  0.05768854358839799  0.6298296683725082  1.0000
  O   O39       1.0  0.4928162236316922  0.5576896222982768  0.3701636405498617  1.0000
  O   O40       1.0  0.9928209121367928  0.05766842040749512  0.12983321839736556  1.0000
  O   O41       1.0  0.1975341732445486  0.6494268754862774  0.8869120099802926  1.0000
  O   O42       1.0  0.6975461789268422  0.1494304014866543  0.61310397130876  1.0000
  O   O43       1.0  0.3024488096712759  0.6494306361996538  0.3868902208397528  1.0000
  O   O44       1.0  0.80246316367073  0.1494201230111045  0.11310543977752727  1.0000
