data_image0
_chemical_formula_structural       Cd2H36C44N4O8
_chemical_formula_sum              "Cd2 H36 C44 N4 O8"
_cell_length_a       9.394160445267948
_cell_length_b       10.101384058172
_cell_length_c       11.380865285692488
_cell_angle_alpha    99.06624154626452
_cell_angle_beta     92.050529727609
_cell_angle_gamma    117.61654474123279

_space_group_name_H-M_alt    "P 1"
_space_group_IT_number       1

loop_
  _space_group_symop_operation_xyz
  'x, y, z'

loop_
  _atom_site_type_symbol
  _atom_site_label
  _atom_site_symmetry_multiplicity
  _atom_site_fract_x
  _atom_site_fract_y
  _atom_site_fract_z
  _atom_site_occupancy
  Cd  Cd1       1.0  0.16434424645962045  0.4983614061857366  0.10565146913932467  1.0000
  Cd  Cd2       1.0  0.8356559852069622  0.5016386682500735  0.8943494249817832  1.0000
  H   H1        1.0  0.39169427739769697  0.4916997175356099  0.8962528154660774  1.0000
  H   H2        1.0  0.6083006673085974  0.5083025815597749  0.1037499834879583  1.0000
  H   H3        1.0  0.3934463186901382  0.31866663611136653  0.7203694169201924  1.0000
  H   H4        1.0  0.6065533443840464  0.6813322989183345  0.2796321797781829  1.0000
  H   H5        1.0  0.9749539759135002  0.9545119907085818  0.827442903514843  1.0000
  H   H6        1.0  0.025042544008130094  0.045489186918821596  0.1725580302982763  1.0000
  H   H7        1.0  0.9878224948391789  0.1499084302934506  0.0004121483585777017  1.0000
  H   H8        1.0  0.012175600297787413  0.8500916258659713  0.9995869203136181  1.0000
  H   H9        1.0  0.05990329668443902  0.892278363860278  0.6485164176020675  1.0000
  H   H10       1.0  0.9400947984525276  0.10772169229914401  0.3514826510701212  1.0000
  H   H11       1.0  0.3536481538856933  0.14330061667938312  0.5609049426658856  1.0000
  H   H12       1.0  0.6463515766528543  0.8567005880919963  0.4390952147869172  1.0000
  H   H13       1.0  0.46356021389154733  0.03473115088923609  0.4052295222760307  1.0000
  H   H14       1.0  0.5364384469265672  0.9652700448115964  0.5947706010857345  1.0000
  H   H15       1.0  0.4153992168496429  0.8288096104758081  0.22996343225874233  1.0000
  H   H16       1.0  0.5846048556681255  0.17119390052236838  0.7700380582128971  1.0000
  H   H17       1.0  0.9368744184059992  0.5760116971045617  0.2827636854719984  1.0000
  H   H18       1.0  0.06313009359793396  0.4239884135457642  0.7172364663798306  1.0000
  H   H19       1.0  0.9636998444160055  0.7684321031618637  0.46010144111222934  1.0000
  H   H20       1.0  0.036301393873515095  0.2315657103998561  0.5398982904452225  1.0000
  H   H21       1.0  0.5392846992598664  0.4082233926115251  0.5390171063660674  1.0000
  H   H22       1.0  0.4607176733032078  0.5917766998977143  0.4609829773036935  1.0000
  H   H23       1.0  0.8132418005224125  0.4311017166712787  0.5354703818186266  1.0000
  H   H24       1.0  0.18675622860581592  0.5688960696788142  0.46452924746571966  1.0000
  H   H25       1.0  0.8857526928857382  0.3211503776061945  0.3489165692051586  1.0000
  H   H26       1.0  0.11424640741854106  0.6788474177467874  0.6510822155368032  1.0000
  H   H27       1.0  0.4139549894886726  0.17968095524945227  0.16846168301945139  1.0000
  H   H28       1.0  0.5860457491284379  0.8203179885801787  0.8315364332362732  1.0000
  H   H29       1.0  0.2758556872423483  0.3200016500868372  0.446825410861095  1.0000
  H   H30       1.0  0.7241429119338959  0.6799972756017139  0.5531726372125547  1.0000
  H   H31       1.0  0.2010252611336512  0.15491218836384485  0.3339170765417094  1.0000
  H   H32       1.0  0.7989732705782302  0.8450844675830282  0.6660824107775198  1.0000
  H   H33       1.0  0.5951423251210173  0.06233263062263458  0.09348081035724222  1.0000
  H   H34       1.0  0.4048573423200352  0.9376663042041145  0.906518150440867  1.0000
  H   H35       1.0  0.8040604512858351  0.1628884952521261  0.15628331329374837  1.0000
  H   H36       1.0  0.19593921615521726  0.8371104395746156  0.8437156475043608  1.0000
  C   C1        1.0  0.29970178547576853  0.37206133667487507  0.87747598790736  1.0000
  C   C2        1.0  0.7003001490567583  0.6279421561145637  0.12252455574878239  1.0000
  C   C3        1.0  0.2989406484447201  0.2726776653670697  0.7778035497334129  1.0000
  C   C4        1.0  0.7010612215346869  0.7273235575453896  0.2221966759014649  1.0000
  C   C5        1.0  0.17865575632334443  0.11914880938054752  0.7554212191431731  1.0000
  C   C6        1.0  0.8213417673099812  0.880850107508074  0.24458030937312708  1.0000
  C   C7        1.0  0.0668945887293475  0.07365704223099809  0.839125013001862  1.0000
  C   C8        1.0  0.933105711857216  0.9263453018788398  0.16087356324025137  1.0000
  C   C9        1.0  0.07481982009173999  0.1807203199347285  0.9355315375246676  1.0000
  C   C10       1.0  0.9251810432647363  0.8192831638518288  0.0644698506738592  1.0000
  C   C11       1.0  0.15863110393575405  0.0067082843215402  0.6498759645301462  1.0000
  C   C12       1.0  0.8413686251471687  0.9932929205174899  0.3501250715560785  1.0000
  C   C13       1.0  0.24854451809981273  0.0320669400337863  0.5577639127166165  1.0000
  C   C14       1.0  0.7514546453019619  0.9679331252638262  0.44223606868003873  1.0000
  C   C15       1.0  0.2191154919864147  0.9169599593953351  0.4515607879415456  1.0000
  C   C16       1.0  0.7808841681765345  0.08303897576966787  0.5484425660236738  1.0000
  C   C17       1.0  0.3453302514805258  0.9339857614359559  0.3822066558029817  1.0000
  C   C18       1.0  0.6546721856356611  0.06601660095027029  0.6177937458880436  1.0000
  C   C19       1.0  0.3198960589385463  0.8202940055683283  0.2849690357913133  1.0000
  C   C20       1.0  0.6801053084572074  0.17970834774735064  0.7150313318086816  1.0000
  C   C21       1.0  0.05212757801875509  0.678628318278939  0.3141081319297498  1.0000
  C   C22       1.0  0.9478752956723471  0.32137064389473835  0.6858926884083161  1.0000
  C   C23       1.0  0.0683578714982288  0.7861083215983128  0.413367779222618  1.0000
  C   C24       1.0  0.9316449992816372  0.213890640710666  0.5866347983822848  1.0000
  C   C25       1.0  0.45862246403584095  0.294176882562354  0.353644522955328  1.0000
  C   C26       1.0  0.5413772034052116  0.7058220522643948  0.6463544378427812  1.0000
  C   C27       1.0  0.5719594479134856  0.36411326735056093  0.456532602129748  1.0000
  C   C28       1.0  0.4280396523907939  0.6358845280024283  0.5434661826122067  1.0000
  C   C29       1.0  0.7257816190015304  0.3755766377426326  0.4548155789609751  1.0000
  C   C30       1.0  0.2742180484395219  0.6244222970841093  0.5451833818371412  1.0000
  C   C31       1.0  0.7664126446936735  0.31410719017731736  0.3510568840615136  1.0000
  C   C32       1.0  0.23358752387541404  0.6858906143138624  0.6489428134049007  1.0000
  C   C33       1.0  0.6532290405361892  0.24120835003818533  0.247635392741806  1.0000
  C   C34       1.0  0.34677169662529644  0.7587905938591034  0.7523636021473408  1.0000
  C   C35       1.0  0.5011351749754099  0.23430732831113227  0.24957059365956266  1.0000
  C   C36       1.0  0.49886455701876287  0.7656938763925895  0.7504286851598181  1.0000
  C   C37       1.0  0.2910322103043939  0.2763710189202868  0.3557807707926344  1.0000
  C   C38       1.0  0.7089663228631123  0.7236256369589354  0.6442178378931729  1.0000
  C   C39       1.0  0.24558428484021988  0.35836051214623404  0.2712226115152205  1.0000
  C   C40       1.0  0.7544164523212658  0.6416384317510476  0.7287763833739261  1.0000
  C   C41       1.0  0.6962107716667136  0.17442967379145816  0.1346944431682289  1.0000
  C   C42       1.0  0.30378946291111203  0.8255704005090506  0.865304693686042  1.0000
  C   C43       1.0  0.7315540125959218  0.2815621716633885  0.04637280608643829  1.0000
  C   C44       1.0  0.2684462219819038  0.7184379026371203  0.9536263307678253  1.0000
  N   N1        1.0  0.1883449009567428  0.32797481781179266  0.9545175342294243  1.0000
  N   N2        1.0  0.8116531252602428  0.6720229686736019  0.04548385232176599  1.0000
  N   N3        1.0  0.17615547959384503  0.6936607897747393  0.2517031810113152  1.0000
  N   N4        1.0  0.8238501666836343  0.30634159982310644  0.7482973229528156  1.0000
  O   O1        1.0  0.09521584984760519  0.30596792484754326  0.2368527587281548  1.0000
  O   O2        1.0  0.9047811095601902  0.6940298524320099  0.7631468364651539  1.0000
  O   O3        1.0  0.35656573633686145  0.4745664201657433  0.2402117061720048  1.0000
  O   O4        1.0  0.643432291335742  0.5254313662520074  0.7597888017457635  1.0000
  O   O5        1.0  0.8790482989652305  0.3859399512290693  0.0497608898580353  1.0000
  O   O6        1.0  0.12095143011769938  0.6140612536099609  0.9502401462281895  1.0000
  O   O7        1.0  0.6176704233003107  0.2706319289143976  0.9765811065038791  1.0000
  O   O8        1.0  0.382331448134721  0.7293692939304107  0.02341824049756978  1.0000
