data_image0
_chemical_formula_structural       Cu2H18C28N2O10
_chemical_formula_sum              "Cu2 H18 C28 N2 O10"
_cell_length_a       5.255715206281689
_cell_length_b       8.327849639659133
_cell_length_c       13.39052093118547
_cell_angle_alpha    96.75991472709622
_cell_angle_beta     89.99986728366476
_cell_angle_gamma    90.00119139024648

_space_group_name_H-M_alt    "P 1"
_space_group_IT_number       1

loop_
  _space_group_symop_operation_xyz
  'x, y, z'

loop_
  _atom_site_type_symbol
  _atom_site_label
  _atom_site_symmetry_multiplicity
  _atom_site_fract_x
  _atom_site_fract_y
  _atom_site_fract_z
  _atom_site_occupancy
  Cu  Cu1       1.0  0.6332133907858052  0.0427133798679051  0.13562563434145147  1.0000
  Cu  Cu2       1.0  0.1332274028947893  0.9572853674641523  0.8643757016643574  1.0000
  H   H1        1.0  0.0182043919743862  0.5496973178327946  0.03363226946488849  1.0000
  H   H2        1.0  0.5182049114626892  0.45028900531381305  0.9663703301909409  1.0000
  H   H3        1.0  0.0853269510333732  0.3310678650757309  0.14722951030765327  1.0000
  H   H4        1.0  0.585347618290676  0.6689121242775755  0.8527696120421879  1.0000
  H   H5        1.0  0.45882296300249703  0.36053414843134846  0.2652285347645247  1.0000
  H   H6        1.0  0.9588232071662335  0.6394580007456555  0.7347723069148769  1.0000
  H   H7        1.0  0.9080496415735766  0.6775845937292999  0.2749919039820128  1.0000
  H   H8        1.0  0.4080670547307719  0.32240938146819786  0.7250031024284026  1.0000
  H   H9        1.0  0.8272217970297575  0.48412560332938154  0.3100372258927209  1.0000
  H   H10       1.0  0.32723659659886556  0.5158757062280512  0.6899635754985951  1.0000
  H   H11       1.0  0.0057004313381199  0.8420994297178904  0.4225384362930384  1.0000
  H   H12       1.0  0.5056903935556037  0.1579061699624447  0.5774581986518399  1.0000
  H   H13       1.0  0.9097037139814007  0.9525596600629881  0.6000584323093392  1.0000
  H   H14       1.0  0.40971605382899423  0.04747063056316139  0.39993791450230276  1.0000
  H   H15       1.0  0.22100886835900013  0.674171803617881  0.5866221450278175  1.0000
  H   H16       1.0  0.7210122153449988  0.3258292891001062  0.41338087319041245  1.0000
  H   H17       1.0  0.3251383460042804  0.5510719663510315  0.4155347352685226  1.0000
  H   H18       1.0  0.8251417391010492  0.4489353047662589  0.5844710121299812  1.0000
  C   C1        1.0  0.299045966527828  0.8109111075235377  0.020913008567632105  1.0000
  C   C2        1.0  0.7990623416216849  0.18907772079682417  0.979088310688482  1.0000
  C   C3        1.0  0.5124416385036312  0.7192062369187937  0.1739674359595469  1.0000
  C   C4        1.0  0.012462094907647301  0.2807861130776458  0.8260311527296408  1.0000
  C   C5        1.0  0.32105009697552594  0.6967341687439871  0.0975340460709617  1.0000
  C   C6        1.0  0.8210579316414341  0.30325139723633027  0.902461045434606  1.0000
  C   C7        1.0  0.16610035748177407  0.5608377794879614  0.0909679359048425  1.0000
  C   C8        1.0  0.6661012291005264  0.4391493845543835  0.9090265236983512  1.0000
  C   C9        1.0  0.2030462817438092  0.43904282447554976  0.1530872110189563  1.0000
  C   C10       1.0  0.7030481976129082  0.5609460443254476  0.8469066371325127  1.0000
  C   C11       1.0  0.4025965155146451  0.45523797821177675  0.2200734149804973  1.0000
  C   C12       1.0  0.9025968338575086  0.5447498604080822  0.779922605846096  1.0000
  C   C13       1.0  0.7566835268432328  0.6070009890002198  0.3051242675664554  1.0000
  C   C14       1.0  0.25668274684691983  0.39299817369492024  0.694877108653408  1.0000
  C   C15       1.0  0.676904387809614  0.6863461564030331  0.4074101486467541  1.0000
  C   C16       1.0  0.17691747249320142  0.3136580402785398  0.5925886280896222  1.0000
  C   C17       1.0  0.8361440733469648  0.8022754363206416  0.45960664618670677  1.0000
  C   C18       1.0  0.336155850218816  0.19772605682220495  0.5403889423561594  1.0000
  C   C19       1.0  0.7823021612576896  0.8652776001813365  0.5585305594466021  1.0000
  C   C20       1.0  0.2823187924670449  0.13473288619081808  0.4414634870372893  1.0000
  C   C21       1.0  0.5621863851442511  0.8167327377354069  0.6059576782584983  1.0000
  C   C22       1.0  0.06218811128158561  0.18327962268733702  0.3940417283009978  1.0000
  C   C23       1.0  0.3978133419629018  0.7061760286576159  0.5518645501490838  1.0000
  C   C24       1.0  0.897815181904825  0.2938273999013461  0.4481379147013271  1.0000
  C   C25       1.0  0.455529062250605  0.6395200774342837  0.45435302884189344  1.0000
  C   C26       1.0  0.9555337985593155  0.3604829014076571  0.5456494045607059  1.0000
  C   C27       1.0  0.5029941418851749  0.8848313007646808  0.7128356201010887  1.0000
  C   C28       1.0  0.0029778202577262  0.11518387033408566  0.2871669893330377  1.0000
  N   N1        1.0  0.5490887574982395  0.590425104498955  0.23074022841523598  1.0000
  N   N2        1.0  0.049089494252072506  0.4095701458892407  0.7692585889257443  1.0000
  O   O1        1.0  0.4243174727216683  0.9425983763374502  0.02666073812307699  1.0000
  O   O2        1.0  0.9243257195449459  0.0573897386808753  0.9733360524651289  1.0000
  O   O3        1.0  0.1572433100726514  0.7683601899244932  0.9445548916067635  1.0000
  O   O4        1.0  0.6572803781126026  0.23163878862286677  0.05545318533931719  1.0000
  O   O5        1.0  0.6574646975904912  0.8399638356892323  0.19491887597941115  1.0000
  O   O6        1.0  0.1575023175915291  0.1600411631977252  0.8050919112474872  1.0000
  O   O7        1.0  0.6579732937501107  0.9751950236210406  0.7622947267702286  1.0000
  O   O8        1.0  0.1579507754569534  0.024840513203201898  0.2376945453339587  1.0000
  O   O9        1.0  0.28390023901413747  0.8384869529320723  0.7457437679438854  1.0000
  O   O10       1.0  0.7838601541096182  0.1615233271024152  0.2542681862120233  1.0000
