data_image0
_chemical_formula_structural       Zn4H56C56Br8N16O8
_chemical_formula_sum              "Zn4 H56 C56 Br8 N16 O8"
_cell_length_a       7.5048033790001965
_cell_length_b       12.210050405002514
_cell_length_c       22.76751512400413
_cell_angle_alpha    90.00006888164813
_cell_angle_beta     90.00000389764381
_cell_angle_gamma    90.00002589657636

_space_group_name_H-M_alt    "P 1"
_space_group_IT_number       1

loop_
  _space_group_symop_operation_xyz
  'x, y, z'

loop_
  _atom_site_type_symbol
  _atom_site_label
  _atom_site_symmetry_multiplicity
  _atom_site_fract_x
  _atom_site_fract_y
  _atom_site_fract_z
  _atom_site_occupancy
  Zn  Zn1       1.0  0.25000009662271333  0.5000007082401012  0.2501750279393065  1.0000
  Zn  Zn2       1.0  0.250000280535815  0.9999994627667945  0.2498251288411525  1.0000
  Zn  Zn3       1.0  0.7499999218988762  0.4999997001116512  0.749824641370367  1.0000
  Zn  Zn4       1.0  0.7499997379855118  1.2658802010000025e-07  0.7501749796905415  1.0000
  H   H1        1.0  0.4949220681099006  0.9919485759245177  0.0928967167741561  1.0000
  H   H2        1.0  0.005075428445984201  0.008050849722749798  0.0928968334423175  1.0000
  H   H3        1.0  0.0050756381644774  0.4919484674558062  0.4071038740413258  1.0000
  H   H4        1.0  0.49492325425860884  0.508050844085254  0.40710344562149464  1.0000
  H   H5        1.0  0.5050752854515395  0.008051013429920297  0.9071033917575094  1.0000
  H   H6        1.0  0.9949232575957441  0.9919495586298054  0.9071037143119155  1.0000
  H   H7        1.0  0.9949230478769097  0.5080511218988235  0.5928962344903539  1.0000
  H   H8        1.0  0.5050754317827284  0.4919487452688784  0.5928962236879016  1.0000
  H   H9        1.0  0.14668897957538718  0.6629425871865638  0.1574570119216858  1.0000
  H   H10       1.0  0.35331385992479614  0.3370578022925699  0.15745647009224234  1.0000
  H   H11       1.0  0.3533151470175754  0.16294243056756127  0.3425433669313378  1.0000
  H   H12       1.0  0.1466890623015473  0.8370583741339459  0.3425427032680873  1.0000
  H   H13       1.0  0.8533137039058758  0.3370570021691108  0.8425435358323271  1.0000
  H   H14       1.0  0.6466861585971343  0.662943425057115  0.8425436384399773  1.0000
  H   H15       1.0  0.6466848715031548  0.8370555207923761  0.6574567415998304  1.0000
  H   H16       1.0  0.8533136211801421  0.16294285321463065  0.6574560875973178  1.0000
  H   H17       1.0  0.2949087640381052  0.8029739005499223  0.09489950722396402  1.0000
  H   H18       1.0  0.20508873292209273  0.19702634858749243  0.09489931100306141  1.0000
  H   H19       1.0  0.2050888031895326  0.30297384311922565  0.405100522622071  1.0000
  H   H20       1.0  0.2949100888297168  0.6970262829250871  0.40510021136385893  1.0000
  H   H21       1.0  0.7050899220032817  0.19702568880470042  0.9051006013077156  1.0000
  H   H22       1.0  0.7949099531198982  0.8029748787620078  0.9051007975291442  1.0000
  H   H23       1.0  0.7949112153311048  0.6970241082397236  0.5948987074645232  1.0000
  H   H24       1.0  0.705088597211585  0.3029733064285551  0.5948990187232468  1.0000
  H   H25       1.0  0.7937425927771287  0.7094568387324214  0.176380047996112  1.0000
  H   H26       1.0  0.7062571353359174  0.2905437320201756  0.176381229717407  1.0000
  H   H27       1.0  0.7062584528354349  0.2094557798337462  0.32361861539801146  1.0000
  H   H28       1.0  0.7937439699401948  0.7905426642409665  0.32361924280617427  1.0000
  H   H29       1.0  0.20625875822431539  0.290543569618535  0.8236187428690088  1.0000
  H   H30       1.0  0.293741550705775  0.7094566763318824  0.8236188788145355  1.0000
  H   H31       1.0  0.29374023320585957  0.7905438095198889  0.6763806146891015  1.0000
  H   H32       1.0  0.20625871354076963  0.2094561061172655  0.6763813049475688  1.0000
  H   H33       1.0  0.6251518549455923  0.5707948811357113  0.23437139803409224  1.0000
  H   H34       1.0  0.8748492173463517  0.42920581971335986  0.2343713552870881  1.0000
  H   H35       1.0  0.8748504211208258  0.07079537694384899  0.2656289329165348  1.0000
  H   H36       1.0  0.6251533224364961  0.9292045750306172  0.2656283281251178  1.0000
  H   H37       1.0  0.37485082853567053  0.429204708219956  0.7656291497199136  1.0000
  H   H38       1.0  0.12514946869568178  0.5707954076366306  0.7656291924674008  1.0000
  H   H39       1.0  0.12514959740076387  0.9292050314079107  0.7343707363931388  1.0000
  H   H40       1.0  0.37485069352458583  0.07079501432375679  0.734370901962059  1.0000
  H   H41       1.0  0.7627971383409076  0.886637861595595  0.1232566086552822  1.0000
  H   H42       1.0  0.737201246574756  0.11336177098125688  0.12325679849210051  1.0000
  H   H43       1.0  0.7372013726812482  0.3866377494643202  0.37674348655505707  1.0000
  H   H44       1.0  0.7627970633721189  0.6133616327868694  0.3767435598820514  1.0000
  H   H45       1.0  0.23720154770017393  0.11336090876158521  0.8767434998761346  1.0000
  H   H46       1.0  0.26279743946727757  0.8866394563687335  0.8767437492623883  1.0000
  H   H47       1.0  0.26279731336009593  0.6133618398898121  0.6232561827543321  1.0000
  H   H48       1.0  0.23720162266922526  0.38663795656725597  0.623256109427345  1.0000
  H   H49       1.0  0.735206773004073  0.8075668589614435  0.05893335778088021  1.0000
  H   H50       1.0  0.7647915989354389  0.19243344831026826  0.05893359919208051  1.0000
  H   H51       1.0  0.7647930123173905  0.307565260798242  0.4410666864874102  1.0000
  H   H52       1.0  0.7352067691920681  0.6924334467582793  0.4410668101241414  1.0000
  H   H53       1.0  0.2647919130373566  0.19243273039367634  0.9410671899730829  1.0000
  H   H54       1.0  0.23520708710659477  0.8075677790397223  0.9410669485624084  1.0000
  H   H55       1.0  0.23520700620368018  0.6924335095596206  0.5589338612663113  1.0000
  H   H56       1.0  0.2647919168492692  0.30756614259584586  0.5589328591852549  1.0000
  C   C1        1.0  0.2907740378466314  0.6741227431547756  0.1591862353080344  1.0000
  C   C2        1.0  0.2092261370425135  0.3258776502033101  0.15918568297223604  1.0000
  C   C3        1.0  0.20922743201268898  0.17412254265178717  0.3408137115254846  1.0000
  C   C4        1.0  0.29077411199734365  0.8258774391720962  0.3408134831849807  1.0000
  C   C5        1.0  0.7092259806743967  0.3258760272025967  0.8408138732233966  1.0000
  C   C6        1.0  0.7907738814793817  0.6741235771458775  0.8408139863377002  1.0000
  C   C7        1.0  0.7907739189882009  0.8258762277047821  0.6591855185613938  1.0000
  C   C8        1.0  0.7092259065238479  0.17412215018124041  0.6591853076798629  1.0000
  C   C9        1.0  0.3743472054305457  0.752606421400145  0.12455490209956112  1.0000
  C   C10       1.0  0.1256542949523691  0.24739471326365256  0.1245542972847034  1.0000
  C   C11       1.0  0.1256543221767714  0.252606275386306  0.3754455345194643  1.0000
  C   C12       1.0  0.374345896339534  0.7473929651323631  0.3754448183092975  1.0000
  C   C13       1.0  0.6256554780506748  0.24739316795503188  0.8754452064321612  1.0000
  C   C14       1.0  0.8743443910895722  0.7526065140853572  0.875445372025226  1.0000
  C   C15       1.0  0.8743443638642249  0.7473924949698938  0.6245536955673785  1.0000
  C   C16       1.0  0.6256541221810609  0.25260498622609606  0.6245539725550202  1.0000
  C   C17       1.0  0.5587197961198811  0.7663123746890292  0.1295194381073372  1.0000
  C   C18       1.0  0.9412785900592482  0.2336872719379386  0.1295197101429721  1.0000
  C   C19       1.0  0.9412786263672925  0.2663123051672045  0.3704801403608898  1.0000
  C   C20       1.0  0.5587184759422712  0.7336862440352762  0.37048028652845494  1.0000
  C   C21       1.0  0.4412788899211577  0.23368639566766802  0.8704802312017891  1.0000
  C   C22       1.0  0.0587214284626469  0.7663139554112561  0.8704799591669713  1.0000
  C   C23       1.0  0.058720059673788697  0.7336864651899828  0.629519968170527  1.0000
  C   C24       1.0  0.4412788776188634  0.26631252632172675  0.6295198220029478  1.0000
  C   C25       1.0  0.650784812573299  0.6997819944228784  0.16948996326736682  1.0000
  C   C26       1.0  0.8492175791095562  0.3002185608719117  0.16949027605480183  1.0000
  C   C27       1.0  0.8492175584012641  0.199782628668757  0.33051001156113813  1.0000
  C   C28       1.0  0.6507848657647981  0.8002166498620654  0.3305093242569797  1.0000
  C   C29       1.0  0.34921920338756957  0.3002167759350485  0.8305101452641068  1.0000
  C   C30       1.0  0.15078110693273325  0.6997834854750238  0.8305098324776665  1.0000
  C   C31       1.0  0.15078112763986704  0.8002161416889277  0.6694905361925622  1.0000
  C   C32       1.0  0.34921781771633686  0.1997829394921311  0.6694899058301758  1.0000
  C   C33       1.0  0.5583759709072353  0.6230026465256273  0.2022546022153905  1.0000
  C   C34       1.0  0.9416277598651064  0.3769971632755968  0.20225452736420382  1.0000
  C   C35       1.0  0.9416290085333472  0.12300323292458161  0.2977457623702194  1.0000
  C   C36       1.0  0.5583760739830622  0.8769967911003606  0.2977446831905155  1.0000
  C   C37       1.0  0.44162937753362286  0.3769961238329741  0.7977459455383809  1.0000
  C   C38       1.0  0.058370926177182994  0.6230048830713387  0.7977455811682647  1.0000
  C   C39       1.0  0.058372342467627895  0.8769955374329683  0.7022543461612258  1.0000
  C   C40       1.0  0.4416292744582648  0.12300361725164072  0.7022545468969386  1.0000
  C   C41       1.0  0.6618444435239396  0.8492079943097367  0.0944089150320622  1.0000
  C   C42       1.0  0.8381552680523396  0.15079239254841073  0.0944095705202415  1.0000
  C   C43       1.0  0.8381553724371713  0.3492071559265498  0.4055911560638279  1.0000
  C   C44       1.0  0.661844401915822  0.6507922910416539  0.4055912511909483  1.0000
  C   C45       1.0  0.3381555749973941  0.1507915950450709  0.9055911934996389  1.0000
  C   C46       1.0  0.16184475046968322  0.8492088348022545  0.9055914164565523  1.0000
  C   C47       1.0  0.16184464608321744  0.6507899764354547  0.5944085132447938  1.0000
  C   C48       1.0  0.3381542841255225  0.34920729831247843  0.5944084181184408  1.0000
  C   C49       1.0  0.5499961044513241  0.9476227100087441  0.0088993942602187  1.0000
  C   C50       1.0  0.9500035898746119  0.0523783040139136  0.0088991104646183  1.0000
  C   C51       1.0  0.9500011189634207  0.44762291350865985  0.49110117946206344  1.0000
  C   C52       1.0  0.5499973401599618  0.5523759062948486  0.49110120862015794  1.0000
  C   C53       1.0  0.4500012491105069  0.0523776983441167  0.9911015927162767  1.0000
  C   C54       1.0  0.049997761127308096  0.9476229233364464  0.9911014372898991  1.0000
  C   C55       1.0  0.049998899559327  0.5523807708323574  0.5088980506263852  1.0000
  C   C56       1.0  0.4500000134001851  0.4476204070688539  0.5088980214658818  1.0000
  Br  Br1       1.0  0.017145267549935308  0.5915941312863424  0.3017849908435295  1.0000
  Br  Br2       1.0  0.482853603626637  0.4084057629804151  0.3017849371726058  1.0000
  Br  Br3       1.0  0.48285214414527644  0.09159368684733239  0.19821490282070192  1.0000
  Br  Br4       1.0  0.017146706137580698  0.9084067940683057  0.1982151605984228  1.0000
  Br  Br5       1.0  0.9828534184917501  0.40840627706571553  0.6982151176884132  1.0000
  Br  Br6       1.0  0.5171477473749846  0.5915946453725098  0.6982156105816558  1.0000
  Br  Br7       1.0  0.5171505393357378  0.9084050835113969  0.8017860841553315  1.0000
  Br  Br8       1.0  0.9828519799043604  0.09159443328069732  0.8017845087114992  1.0000
  N   N1        1.0  0.3802726985754958  0.6098839152297232  0.19725405024133383  1.0000
  N   N2        1.0  0.11972881647333367  0.3901165635298439  0.19725353723955416  1.0000
  N   N3        1.0  0.11973005649713998  0.10988360447769449  0.302746294428502  1.0000
  N   N4        1.0  0.38027414479309846  0.890116291945759  0.3027456703036719  1.0000
  N   N5        1.0  0.619728652425529  0.3901148551283242  0.802746497512395  1.0000
  N   N6        1.0  0.8802698695686502  0.6098846638196561  0.8027465712926513  1.0000
  N   N7        1.0  0.8802699620238029  0.8901151658786973  0.6972529356583622  1.0000
  N   N8        1.0  0.6197285386882995  0.10988411640538229  0.697253120561463  1.0000
  N   N9        1.0  0.5562267815460586  0.9339348723431941  0.0674279554133363  1.0000
  N   N10       1.0  0.9437729245871226  0.0660654539858641  0.0674285587376389  1.0000
  N   N11       1.0  0.9437717642767894  0.4339341238126195  0.43257217026796013  1.0000
  N   N12       1.0  0.5562266830390499  0.5660645646870464  0.4325722083878603  1.0000
  N   N13       1.0  0.44377190449528564  0.0660647170109314  0.9325717138960599  1.0000
  N   N14       1.0  0.0562257614549537  0.9339357733646165  0.9325724282391338  1.0000
  N   N15       1.0  0.056226921764334685  0.5660646465450584  0.56742837748574  1.0000
  N   N16       1.0  0.44377200300203157  0.4339342056701411  0.5674279001435565  1.0000
  O   O1        1.0  0.6175022777593001  0.8855429747104253  0.9718415266326588  1.0000
  O   O2        1.0  0.8824976108278264  0.11445692358578441  0.9718421597284816  1.0000
  O   O3        1.0  0.8824950008460775  0.3855429399017041  0.528158782037103  1.0000
  O   O4        1.0  0.6175034657529467  0.6144551440393542  0.5281588527378035  1.0000
  O   O5        1.0  0.3824964082820443  0.1144566146437072  0.0281581426767374  1.0000
  O   O6        1.0  0.11750107521424981  0.8855443037647034  0.028158827248297803  1.0000
  O   O7        1.0  0.1175023527148014  0.6144550114583539  0.4718417657163201  1.0000
  O   O8        1.0  0.38249788524777273  0.38554280732125795  0.4718416950156623  1.0000
