data_image0
_chemical_formula_structural       Zn4H64C90N4Cl12O16
_chemical_formula_sum              "Zn4 H64 C90 N4 Cl12 O16"
_cell_length_a       12.437452256890857
_cell_length_b       12.63476579760276
_cell_length_c       22.46738721705052
_cell_angle_alpha    89.90480356459673
_cell_angle_beta     89.83361790901012
_cell_angle_gamma    89.32999287555006

_space_group_name_H-M_alt    "P 1"
_space_group_IT_number       1

loop_
  _space_group_symop_operation_xyz
  'x, y, z'

loop_
  _atom_site_type_symbol
  _atom_site_label
  _atom_site_symmetry_multiplicity
  _atom_site_fract_x
  _atom_site_fract_y
  _atom_site_fract_z
  _atom_site_occupancy
  Zn  Zn1       1.0  0.6184386886457744  0.5007282077505906  0.4975247637987295  1.0000
  Zn  Zn2       1.0  0.3864503638711767  0.5017187543191497  0.499975505406347  1.0000
  Zn  Zn3       1.0  0.0064547003365121  0.8904433905994156  0.0008919981326088001  1.0000
  Zn  Zn4       1.0  0.9977225676698397  0.12026142447144396  0.00012259699210660026  1.0000
  H   H1        1.0  0.6443477052821294  0.172603385514691  0.7460661905064043  1.0000
  H   H2        1.0  0.34805827157337893  0.846955941969874  0.7365271718046031  1.0000
  H   H3        1.0  0.30939199955972196  0.12908661152177817  0.7489979539624088  1.0000
  H   H4        1.0  0.6954718226615528  0.8809178971522229  0.751476229172411  1.0000
  H   H5        1.0  0.37570882873801287  0.04669810083082381  0.6508120812814653  1.0000
  H   H6        1.0  0.6430425310709537  0.9515142032486781  0.6576252855480432  1.0000
  H   H7        1.0  0.4709933931805494  0.8698134111096253  0.835766171665149  1.0000
  H   H8        1.0  0.5226148347887403  0.13181385261210474  0.8396551477742946  1.0000
  H   H9        1.0  0.6444525040985241  0.8332361687825129  0.2537385888522579  1.0000
  H   H10       1.0  0.3695265612486622  0.18442417088152044  0.24772769876537373  1.0000
  H   H11       1.0  0.30484203116697023  0.8940782846762405  0.2505467417995532  1.0000
  H   H12       1.0  0.6980760912757517  0.11717009103877983  0.2524744968984933  1.0000
  H   H13       1.0  0.36743163235028936  0.9610902555965243  0.344146701962778  1.0000
  H   H14       1.0  0.6237967799176546  0.0391720837174105  0.3492798373736221  1.0000
  H   H15       1.0  0.4824738643935619  0.1296705517016861  0.15525428788725998  1.0000
  H   H16       1.0  0.5277350585400384  0.8777772001924189  0.1570922491664462  1.0000
  H   H17       1.0  0.32456110996622556  0.6054619686691328  0.6664333687580495  1.0000
  H   H18       1.0  0.25445668537000904  0.7013830710272869  0.6248606061114756  1.0000
  H   H19       1.0  0.2564925237976325  0.7105442366191499  0.7041896710834478  1.0000
  H   H20       1.0  0.6981098721799056  0.8885471906626421  0.5675431621417246  1.0000
  H   H21       1.0  0.6325575141325146  0.7855329899534169  0.5278940719015921  1.0000
  H   H22       1.0  0.7254797156295967  0.7534656249258377  0.5840270948108496  1.0000
  H   H23       1.0  0.8609482751120867  0.8049407610353829  0.8526787129091884  1.0000
  H   H24       1.0  0.9443568285560174  0.9097694979946456  0.8318819240520623  1.0000
  H   H25       1.0  0.871327064544552  0.8405504599314572  0.7762832823910699  1.0000
  H   H26       1.0  0.5800827478538936  0.20803960056817067  0.9238933385748567  1.0000
  H   H27       1.0  0.7205488504830698  0.23557030260379727  0.9219318390220579  1.0000
  H   H28       1.0  0.6719677268841124  0.1373545745053661  0.9702686399674006  1.0000
  H   H29       1.0  0.7248838261662486  0.324532181780775  0.7200029942683202  1.0000
  H   H30       1.0  0.6613377319905569  0.41696991388439386  0.6709252483553243  1.0000
  H   H31       1.0  0.7519412819015656  0.32235725428492407  0.6420234494127043  1.0000
  H   H32       1.0  0.3337445050082196  0.1043884126626295  0.5577970707438594  1.0000
  H   H33       1.0  0.40684413711872475  0.20368533706057687  0.5192880253901819  1.0000
  H   H34       1.0  0.30150128202902954  0.2408930238313758  0.5671901745805314  1.0000
  H   H35       1.0  0.1395351314474738  0.20463101673177422  0.8490222342430866  1.0000
  H   H36       1.0  0.0556011563830765  0.1016559995474111  0.8263512152470796  1.0000
  H   H37       1.0  0.1321791519516324  0.1716685491196017  0.7721919339965169  1.0000
  H   H38       1.0  0.4076361138318277  0.7899565071718226  0.9173096345303405  1.0000
  H   H39       1.0  0.2663527785945022  0.7670059918619714  0.9141590237179995  1.0000
  H   H40       1.0  0.31660437214669923  0.860510991030317  0.9644512859358442  1.0000
  H   H41       1.0  0.299141495433652  0.3459520120034584  0.2710714559335655  1.0000
  H   H42       1.0  0.3590420220278645  0.4294142480948794  0.32537816485957183  1.0000
  H   H43       1.0  0.2598854954070405  0.3390827882488949  0.347326198127007  1.0000
  H   H44       1.0  0.6689616234256094  0.09804265635390412  0.44126077968057587  1.0000
  H   H45       1.0  0.5879723519869985  0.1920428375112948  0.48019480594408737  1.0000
  H   H46       1.0  0.6955835922015366  0.23613432267539744  0.4364385889113649  1.0000
  H   H47       1.0  0.8746018061173615  0.18890735980013326  0.15528534505092037  1.0000
  H   H48       1.0  0.953227183767858  0.07987759996669301  0.17764730326351238  1.0000
  H   H49       1.0  0.8770372894572774  0.15161524755998815  0.2316956858315962  1.0000
  H   H50       1.0  0.725810656050882  0.763722091058831  0.0811896222223183  1.0000
  H   H51       1.0  0.6955995343376955  0.8657862270794116  0.0302860850271216  1.0000
  H   H52       1.0  0.5896520091875814  0.8056884801859071  0.07135995750778788  1.0000
  H   H53       1.0  0.6556516954530239  0.586836436231863  0.3236952698824069  1.0000
  H   H54       1.0  0.74192992407891  0.6756557541965906  0.3592666269505713  1.0000
  H   H55       1.0  0.7257071435719739  0.6822472019706823  0.280419824498594  1.0000
  H   H56       1.0  0.3144373101134761  0.8971220671657607  0.4345271563448279  1.0000
  H   H57       1.0  0.3841972116683081  0.7937320675725278  0.4729759731810147  1.0000
  H   H58       1.0  0.2850039597878506  0.7619502721871925  0.4207567107094831  1.0000
  H   H59       1.0  0.1315121182528642  0.8230607489912459  0.1525412124655858  1.0000
  H   H60       1.0  0.05358298402453699  0.933508170439801  0.17331819356939349  1.0000
  H   H61       1.0  0.1266238117214797  0.8619520516205271  0.22859304550004814  1.0000
  H   H62       1.0  0.2882039540939516  0.24376246803919346  0.0758002615056341  1.0000
  H   H63       1.0  0.3210070916694577  0.13998404178033752  0.026546724469362497  1.0000
  H   H64       1.0  0.424751330807851  0.20116823307606785  0.0683106222035263  1.0000
  C   C1        1.0  0.5214981678505667  0.6500643933830049  0.4195986936554448  1.0000
  C   C2        1.0  0.4719396064569283  0.35277080166343205  0.42177486174001894  1.0000
  C   C3        1.0  0.5346805700634576  0.3515184276322715  0.5753761996203792  1.0000
  C   C4        1.0  0.4818598998831902  0.6523322898411552  0.5765418654997347  1.0000
  C   C5        1.0  0.1479876632611976  0.03903769740378489  0.07992961895234878  1.0000
  C   C6        1.0  0.14374431260599613  0.9803400960781518  0.9162819383205941  1.0000
  C   C7        1.0  0.8517586918000791  0.02855241684850541  0.9207239367090166  1.0000
  C   C8        1.0  0.8633768072118783  0.9711599127031932  0.0840121933950684  1.0000
  C   C9        1.0  0.14124318249760393  0.4968089904157865  0.4691269240880445  1.0000
  C   C10       1.0  0.1569183535917702  0.45871873911084293  0.5695907860453814  1.0000
  C   C11       1.0  0.045735930342452505  0.46205724472131504  0.5781906858808483  1.0000
  C   C12       1.0  0.978600409896366  0.4782819729521466  0.5276455293657918  1.0000
  C   C13       1.0  0.8642680502663752  0.49456141973501394  0.5281845768023601  1.0000
  C   C14       1.0  0.8501901589508948  0.4542866694034872  0.4280894912575376  1.0000
  C   C15       1.0  0.9611959438512799  0.4596332426888664  0.4194116892958206  1.0000
  C   C16       1.0  0.0276622948334548  0.4782902397236273  0.46979063484770467  1.0000
  C   C17       1.0  0.5016339990069483  0.0035537117591460006  0.7469805997302712  1.0000
  C   C18       1.0  0.4017300213246102  0.0011463151684694  0.7877124839062261  1.0000
  C   C19       1.0  0.5981985195489871  0.005581102522704401  0.7899634495300704  1.0000
  C   C20       1.0  0.4994229733230426  0.9069046392321599  0.7049478455473306  1.0000
  C   C21       1.0  0.5066233008987879  0.10066144284851933  0.7052096464206556  1.0000
  C   C22       1.0  0.5868269696003453  0.17651172446592514  0.7096950085896195  1.0000
  C   C23       1.0  0.41283038761795865  0.8377478435696946  0.7042216908938456  1.0000
  C   C24       1.0  0.3127075500078931  0.06863737376049531  0.7837120018651973  1.0000
  C   C25       1.0  0.6888762015141696  0.9401094838453545  0.7865978198233136  1.0000
  C   C26       1.0  0.5987263770163835  0.25730725745576427  0.6675571941671804  1.0000
  C   C27       1.0  0.40343232947053315  0.75731303359175  0.6619046515466633  1.0000
  C   C28       1.0  0.22649959922807034  0.0619695592463287  0.8242318328291347  1.0000
  C   C29       1.0  0.7728651039857865  0.9469382121111781  0.8281936373346637  1.0000
  C   C30       1.0  0.5266157593651358  0.26284789263716146  0.619378697412742  1.0000
  C   C31       1.0  0.4860578489023268  0.7431625893544975  0.6193359468480749  1.0000
  C   C32       1.0  0.22979540347839844  0.9840681639558683  0.869368078273112  1.0000
  C   C33       1.0  0.765802369637484  0.022999396563534405  0.8740139638225484  1.0000
  C   C34       1.0  0.44434193569593833  0.186899055131164  0.6136521502800675  1.0000
  C   C35       1.0  0.5738973384214248  0.8138024934012124  0.6182369599127852  1.0000
  C   C36       1.0  0.3180280831473398  0.9124631745438025  0.8727266721169257  1.0000
  C   C37       1.0  0.67500904547682  0.09124392586040392  0.8776228295500842  1.0000
  C   C38       1.0  0.4362214668292096  0.10762584493100753  0.6567611226151867  1.0000
  C   C39       1.0  0.578079960646008  0.8943856890492158  0.6607088461988511  1.0000
  C   C40       1.0  0.4019151832794421  0.9234738952780365  0.8322485080543486  1.0000
  C   C41       1.0  0.5933738316108901  0.08033176495651873  0.8359459479655412  1.0000
  C   C42       1.0  0.502002289671502  0.004540286348806401  0.2504626681255715  1.0000
  C   C43       1.0  0.4045759971852974  0.010562836621524203  0.20821188409054506  1.0000
  C   C44       1.0  0.601685361292958  0.999114601476677  0.20962637676559132  1.0000
  C   C45       1.0  0.4991430836202325  0.10179237301554173  0.29215919842663135  1.0000
  C   C46       1.0  0.5028902563839354  0.906565540937365  0.29187507699604953  1.0000
  C   C47       1.0  0.5836554654491906  0.8292335916694926  0.2885494759243769  1.0000
  C   C48       1.0  0.42405980875558674  0.18386146243953047  0.2855182527507409  1.0000
  C   C49       1.0  0.3117777130685297  0.9508717638113497  0.21418508219785073  1.0000
  C   C50       1.0  0.6934778872415635  0.0599727513162591  0.2162788583046691  1.0000
  C   C51       1.0  0.5923766363801379  0.7468183883435985  0.32995944207962674  1.0000
  C   C52       1.0  0.4131650955773623  0.26530884515221237  0.3273067343337317  1.0000
  C   C53       1.0  0.22632831268730771  0.9603302651825772  0.1736608380369944  1.0000
  C   C54       1.0  0.7808167599451326  0.0508175388716978  0.17667168976530687  1.0000
  C   C55       1.0  0.5157095042898021  0.7400191793480959  0.3760465304487752  1.0000
  C   C56       1.0  0.4808975067454142  0.26494857821849394  0.3773441065598674  1.0000
  C   C57       1.0  0.23437572413082114  0.0333038526431793  0.1262829492386288  1.0000
  C   C58       1.0  0.7756951934041467  0.9767268304160552  0.1298216180208414  1.0000
  C   C59       1.0  0.4324556444630759  0.8171154366185575  0.3805087423310738  1.0000
  C   C60       1.0  0.5592821031458614  0.1838533027208413  0.3848303022399335  1.0000
  C   C61       1.0  0.32700054303861503  0.09612066702158731  0.11998129509614588  1.0000
  C   C62       1.0  0.6841965568760389  0.9125138660216195  0.12309037013022106  1.0000
  C   C63       1.0  0.42844701723442574  0.899047692141778  0.33861047918816206  1.0000
  C   C64       1.0  0.5665723361235494  0.1040281498067372  0.3420316376293684  1.0000
  C   C65       1.0  0.4100689051010846  0.082685090001668  0.1608289543739687  1.0000
  C   C66       1.0  0.5992128661664822  0.9258968753793015  0.16288136897653518  1.0000
  C   C67       1.0  0.056988784853416505  0.3667700712878883  0.9984878057259576  1.0000
  C   C68       1.0  0.8777248226424775  0.3540879817550434  0.024810350219851795  1.0000
  C   C69       1.0  0.8607575906402333  0.46314502849260464  0.0196375452804105  1.0000
  C   C70       1.0  0.9514896109158928  0.5282049200502786  0.0086566775260835  1.0000
  C   C71       1.0  0.9505790722734985  0.6409141062226099  0.00011295720688760096  1.0000
  C   C72       1.0  0.1299424906382214  0.6528784166007072  0.025293388298777596  1.0000
  C   C73       1.0  0.14710032762896222  0.5440490828713181  0.018760394416787597  1.0000
  C   C74       1.0  0.05621462117168361  0.47921428687757134  0.007982163682129298  1.0000
  C   C75       1.0  0.30440322494073513  0.69010464031895  0.6646640417166053  1.0000
  C   C76       1.0  0.6615685735737743  0.8101269090538141  0.5717206770179502  1.0000
  C   C77       1.0  0.8675100802674011  0.8720980789986684  0.8217527898741463  1.0000
  C   C78       1.0  0.6609476263937496  0.17253953951685472  0.9259337617380081  1.0000
  C   C79       1.0  0.6889042341955474  0.33449417475587506  0.6757566653133651  1.0000
  C   C80       1.0  0.3680109987788143  0.18378593831033646  0.5616614853126761  1.0000
  C   C81       1.0  0.1334372018764753  0.1386367844644738  0.817431689414583  1.0000
  C   C82       1.0  0.32784703394523257  0.8278327709824043  0.9196023067089668  1.0000
  C   C83       1.0  0.3285009397993974  0.3495986721395282  0.3170416239862277  1.0000
  C   C84       1.0  0.6316211751562265  0.17705221730418688  0.4384627173776251  1.0000
  C   C85       1.0  0.8765129993189619  0.12109774461692523  0.18596545706036946  1.0000
  C   C86       1.0  0.673087036938398  0.8328140731816092  0.0737867964931027  1.0000
  C   C87       1.0  0.6838384144514223  0.668786068979415  0.3227767827835634  1.0000
  C   C88       1.0  0.35015411198854457  0.8176379536695467  0.42993445114598217  1.0000
  C   C89       1.0  0.129370230005506  0.8914927882946274  0.1826490342058236  1.0000
  C   C90       1.0  0.3411277360250367  0.1743315724717078  0.06996970469071329  1.0000
  N   N1        1.0  0.20255320059675347  0.48433724441623854  0.5166626114823599  1.0000
  N   N2        1.0  0.8034907397404752  0.48048964956702633  0.4807476474695632  1.0000
  N   N3        1.0  0.9722033788058158  0.3075135286684231  0.0089141595875475  1.0000
  N   N4        1.0  0.03534712855484659  0.6998897543581821  0.010434127395946298  1.0000
  Cl  Cl1       1.0  0.7687454600571256  0.4167014589561404  0.37161958885176455  1.0000
  Cl  Cl2       1.0  0.012729390430273204  0.43175615424308234  0.3505493825127671  1.0000
  Cl  Cl3       1.0  0.20201821455885494  0.5500870012771628  0.4082542294528366  1.0000
  Cl  Cl4       1.0  0.23968217051987042  0.4248434837802649  0.6266623344995067  1.0000
  Cl  Cl5       1.0  0.9955270333053791  0.4348197994065259  0.6473416297619607  1.0000
  Cl  Cl6       1.0  0.8011622348247799  0.5467934593020445  0.5888703678166464  1.0000
  Cl  Cl7       1.0  0.22877962685429762  0.7317883492721083  0.0514737297471939  1.0000
  Cl  Cl8       1.0  0.2728641392085223  0.49283102795977385  0.031169185052775095  1.0000
  Cl  Cl9       1.0  0.1645883832117079  0.3042588081339872  0.9664884790181673  1.0000
  Cl  Cl10      1.0  0.7788550946524142  0.2743129216561968  0.05048587155888381  1.0000
  Cl  Cl11      1.0  0.7354502573892249  0.5142388988320477  0.0338380269596001  1.0000
  Cl  Cl12      1.0  0.8425981003744031  0.7043649869866757  0.9692796998240921  1.0000
  O   O1        1.0  0.6136552430723442  0.6256297053168042  0.44158229739586113  1.0000
  O   O2        1.0  0.4340534557489023  0.603339685598499  0.4313322808512865  1.0000
  O   O3        1.0  0.37883597399611096  0.378672864874794  0.44179568952524306  1.0000
  O   O4        1.0  0.559299063357429  0.3967971628303674  0.43611762070244703  1.0000
  O   O5        1.0  0.4467338983777367  0.3970465996753988  0.561340225913284  1.0000
  O   O6        1.0  0.6273242088934198  0.37703429276320594  0.5553631555153726  1.0000
  O   O7        1.0  0.5699542729326624  0.6040933477785445  0.5654913082493493  1.0000
  O   O8        1.0  0.39029767947381805  0.6279318096917593  0.5545568680873457  1.0000
  O   O9        1.0  0.1198952175411421  0.951270537867913  0.0576777432568889  1.0000
  O   O10       1.0  0.10976852343944901  0.12984712216940866  0.0650146792649764  1.0000
  O   O11       1.0  0.11410952279202041  0.0681408470273084  0.9388820833217294  1.0000
  O   O12       1.0  0.107624764087241  0.889361387339939  0.9314820398927706  1.0000
  O   O13       1.0  0.8876460529577272  0.12002999325681431  0.9347483205516198  1.0000
  O   O14       1.0  0.8821859469728681  0.9414866017837227  0.9439114135519445  1.0000
  O   O15       1.0  0.9012125720396824  0.8802151670685917  0.068919265644027  1.0000
  O   O16       1.0  0.8926422484927558  0.058932883324295894  0.062061772919371094  1.0000
