data_image0
_chemical_formula_structural       Na2H20C18S2N2O14
_chemical_formula_sum              "Na2 H20 C18 S2 N2 O14"
_cell_length_a       5.367230310623802
_cell_length_b       7.591988000135982
_cell_length_c       14.13637498064076
_cell_angle_alpha    80.48883872894012
_cell_angle_beta     90.61760717237082
_cell_angle_gamma    76.04505771761559

_space_group_name_H-M_alt    "P 1"
_space_group_IT_number       1

loop_
  _space_group_symop_operation_xyz
  'x, y, z'

loop_
  _atom_site_type_symbol
  _atom_site_label
  _atom_site_symmetry_multiplicity
  _atom_site_fract_x
  _atom_site_fract_y
  _atom_site_fract_z
  _atom_site_occupancy
  Na  Na1       1.0  0.8394147398327336  0.4397286237442017  0.20938613348678808  1.0000
  Na  Na2       1.0  0.16057293642847284  0.5602819572864064  0.7906105085731879  1.0000
  H   H1        1.0  0.6613423139296161  0.46921476178874855  0.6969073053798314  1.0000
  H   H2        1.0  0.3386485226119119  0.530793127998443  0.3030966534192316  1.0000
  H   H3        1.0  0.8575255192606976  0.6248101336210822  0.036854659975475136  1.0000
  H   H4        1.0  0.14247097114767374  0.3751893182952061  0.9631316741243269  1.0000
  H   H5        1.0  0.6785460140679479  0.5690659472842868  0.9663615009857481  1.0000
  H   H6        1.0  0.321418387361696  0.43092127914818706  0.03364448844926931  1.0000
  H   H7        1.0  0.6883225400495476  0.8620563685184237  0.122549606558664  1.0000
  H   H8        1.0  0.3116853516187703  0.1379390713139799  0.8774505071198959  1.0000
  H   H9        1.0  0.9046064520234793  0.6349720960096549  0.47722160487726484  1.0000
  H   H10       1.0  0.09539639898842722  0.3650274980274801  0.5227802595465576  1.0000
  H   H11       1.0  0.9106920941429879  0.8179316874232685  0.3153081942707843  1.0000
  H   H12       1.0  0.08931685426691163  0.18206653406051032  0.6846944850106098  1.0000
  H   H13       1.0  0.1095720444398935  0.090830182051846  0.3293714564423951  1.0000
  H   H14       1.0  0.8904370265419036  0.9091665963557459  0.6706242822950229  1.0000
  H   H15       1.0  0.10562242729649539  0.8921399593541255  0.4890555394291951  1.0000
  H   H16       1.0  0.8943701744646406  0.10785541174747243  0.510936851382688  1.0000
  H   H17       1.0  0.2907683436408919  0.8822903335259937  0.021374766598384616  1.0000
  H   H18       1.0  0.7092330474921127  0.11770786986465963  0.9786258182775072  1.0000
  H   H19       1.0  0.11548405705728021  0.023374764989199496  0.09828488338629882  1.0000
  H   H20       1.0  0.8845228579552399  0.9766289424071884  0.9017144583811146  1.0000
  C   C1        1.0  0.48179772679203847  0.6500168629948179  0.5905064610299959  1.0000
  C   C2        1.0  0.5181968910066033  0.34997448479708754  0.4094983282732443  1.0000
  C   C3        1.0  0.5017851177726772  0.7551817954256137  0.49313545353431465  1.0000
  C   C4        1.0  0.4982138318534126  0.24481776678377543  0.5068628898477883  1.0000
  C   C5        1.0  0.730495024310258  0.7327358101468705  0.4444452394681377  1.0000
  C   C6        1.0  0.26950552050522  0.26725965064588314  0.5555570206717206  1.0000
  C   C7        1.0  0.7349565835289982  0.8368423596423112  0.35406853731845445  1.0000
  C   C8        1.0  0.26504422911330755  0.16315720220867294  0.6459297995566758  1.0000
  C   C9        1.0  0.5118448791571596  0.9664678220759342  0.3136337391848727  1.0000
  C   C10       1.0  0.4881614924353386  0.033537250289697305  0.6863640613929078  1.0000
  C   C11       1.0  0.2826022856369407  0.9901292193081448  0.3610153828674072  1.0000
  C   C12       1.0  0.7174042864351764  0.009864855913420503  0.6389862785077511  1.0000
  C   C13       1.0  0.2803458308779697  0.8817979926621718  0.45032511826049426  1.0000
  C   C14       1.0  0.7196553097880811  0.11819464706733383  0.5496703289027494  1.0000
  C   C15       1.0  0.2814594293440464  0.9073015627389156  0.09573919469099218  1.0000
  C   C16       1.0  0.7185471827709692  0.09269803709032941  0.9042633635300135  1.0000
  C   C17       1.0  0.2346342071680212  0.7361020916039467  0.1590084319537155  1.0000
  C   C18       1.0  0.7653654361052348  0.2639071678693909  0.8409946599319795  1.0000
  S   S1        1.0  0.5187661376069953  0.09507624340697161  0.197163789845888  1.0000
  S   S2        1.0  0.4812455201366534  0.904924720316309  0.8028372076645667  1.0000
  N   N1        1.0  0.5153677017354213  0.9607276881337227  0.11883915023300064  1.0000
  N   N2        1.0  0.4846391431357446  0.03927600624484031  0.8811587779121482  1.0000
  O   O1        1.0  0.701364101612093  0.540995597086507  0.6303501938666969  1.0000
  O   O2        1.0  0.2986224955754296  0.4590081467968759  0.369652753533103  1.0000
  O   O3        1.0  0.273646629039071  0.6663817452735046  0.6299009564841073  1.0000
  O   O4        1.0  0.7263407042817321  0.3336192035822805  0.3700980051836211  1.0000
  O   O5        1.0  0.7662523484579041  0.1406920455641441  0.1899156268667923  1.0000
  O   O6        1.0  0.23375449641326915  0.8593116488144263  0.8100823012783496  1.0000
  O   O7        1.0  0.286424951280722  0.24331264927327825  0.17977869068512578  1.0000
  O   O8        1.0  0.7135822967277577  0.7566896541003987  0.8202179514051197  1.0000
  O   O9        1.0  0.4141555282718912  0.6405401798921133  0.2190460128149994  1.0000
  O   O10       1.0  0.5858471750418773  0.3594718869098302  0.7809624654110935  1.0000
  O   O11       1.0  0.018180721527734603  0.7000834336855348  0.14750239721462322  1.0000
  O   O12       1.0  0.9818359117031863  0.2999188809139497  0.8524956259630159  1.0000
  O   O13       1.0  0.7256536360757198  0.5558651972383188  0.034387157148465526  1.0000
  O   O14       1.0  0.2743348241280188  0.4441385462866593  0.9656157837443616  1.0000
