data_image0
_chemical_formula_structural       Zn2H28C24N8O12
_chemical_formula_sum              "Zn2 H28 C24 N8 O12"
_cell_length_a       7.929481975158356
_cell_length_b       10.396959080952536
_cell_length_c       10.396939900260636
_cell_angle_alpha    95.83751818559062
_cell_angle_beta     103.2253992560463
_cell_angle_gamma    103.22529188428697

_space_group_name_H-M_alt    "P 1"
_space_group_IT_number       1

loop_
  _space_group_symop_operation_xyz
  'x, y, z'

loop_
  _atom_site_type_symbol
  _atom_site_label
  _atom_site_symmetry_multiplicity
  _atom_site_fract_x
  _atom_site_fract_y
  _atom_site_fract_z
  _atom_site_occupancy
  Zn  Zn1       1.0  0.7500013965715198  0.6438461209685685  0.3561552316570555  1.0000
  Zn  Zn2       1.0  0.24999683074438647  0.3561543749255378  0.6438462331593655  1.0000
  H   H1        1.0  0.768504656027929  0.6081620671717758  0.6091461794345676  1.0000
  H   H2        1.0  0.2685026614267727  0.6091439339162434  0.6081615297936694  1.0000
  H   H3        1.0  0.23149708609795278  0.3918374080611287  0.3908567726597809  1.0000
  H   H4        1.0  0.7314965123878707  0.39085555034485964  0.3918380800363935  1.0000
  H   H5        1.0  0.5898551271770457  0.6563073266279813  0.5635799555241904  1.0000
  H   H6        1.0  0.08985353878272657  0.5635784877351924  0.6563064689036936  1.0000
  H   H7        1.0  0.4101453219624957  0.34369215560557353  0.43642276686232856  1.0000
  H   H8        1.0  0.9101439778965457  0.43642000386732593  0.3436937093729854  1.0000
  H   H9        1.0  0.20056422357330916  0.1481199153100761  0.3403114638611413  1.0000
  H   H10       1.0  0.7005674781314041  0.34031547664613276  0.14811797307450555  1.0000
  H   H11       1.0  0.799433293105956  0.8518785762924422  0.6596887144155446  1.0000
  H   H12       1.0  0.2994325640425401  0.659690019201882  0.8518804619192083  1.0000
  H   H13       1.0  0.2506982228336767  0.16018697976734586  0.1827396555142329  1.0000
  H   H14       1.0  0.750703442545536  0.1827439304978711  0.16018834233724993  1.0000
  H   H15       1.0  0.7492992938455955  0.8398115118351794  0.8172605227624459  1.0000
  H   H16       1.0  0.2492978808404585  0.8172615616648853  0.839812244263385  1.0000
  H   H17       1.0  0.9441569071289848  0.008367025209445  0.15378345716881373  1.0000
  H   H18       1.0  0.4441590727359497  0.15378232390384033  0.008368607860802499  1.0000
  H   H19       1.0  0.0558424731120297  0.9916294514155837  0.8462178158828735  1.0000
  H   H20       1.0  0.5558417523269199  0.846218154673551  0.9916313944721725  1.0000
  H   H21       1.0  0.036668107010129396  0.9054614097527751  0.26105409482340053  1.0000
  H   H22       1.0  0.5366670124346697  0.2610531244119585  0.9054593855517226  1.0000
  H   H23       1.0  0.9633345757273375  0.09453705550482988  0.7389479632341321  1.0000
  H   H24       1.0  0.4633321613799737  0.7389463598491444  0.09454022427833311  1.0000
  H   H25       1.0  0.08658167542568403  0.9141113509170822  0.10356795079323428  1.0000
  H   H26       1.0  0.5865844160423704  0.10356733182005938  0.9141136253281843  1.0000
  H   H27       1.0  0.9134193501764116  0.0858861216819378  0.8964346757109212  1.0000
  H   H28       1.0  0.4134177020068319  0.8964331397566807  0.0858866067126201  1.0000
  C   C1        1.0  0.6722758422503432  0.939374242638998  0.3740847788915361  1.0000
  C   C2        1.0  0.17228211068681526  0.3740812228664581  0.9393625660722407  1.0000
  C   C3        1.0  0.3277232710863061  0.06063225986891751  0.6259126282399023  1.0000
  C   C4        1.0  0.8277200191366845  0.625919245394883  0.06063574406947941  1.0000
  C   C5        1.0  0.8502014294026026  0.16130153075020812  0.4714756812716062  1.0000
  C   C6        1.0  0.3501871909856717  0.47147371071709887  0.1612987560094084  1.0000
  C   C7        1.0  0.14980071808233922  0.8386989325380297  0.5285197460214732  1.0000
  C   C8        1.0  0.6498048072606436  0.5285238042556982  0.8386984187417782  1.0000
  C   C9        1.0  0.6841880209270386  0.07618131018048051  0.3991496534998903  1.0000
  C   C10       1.0  0.18419340318516925  0.3991532559916847  0.07618780112358081  1.0000
  C   C11       1.0  0.3158111882104818  0.923818164134424  0.6008441906328983  1.0000
  C   C12       1.0  0.8158083448278574  0.6008462175835163  0.9238141900212187  1.0000
  C   C13       1.0  0.5342190759186138  0.1325142345567158  0.3588318669646995  1.0000
  C   C14       1.0  0.034223126372204066  0.35883337225553896  0.13251803037207574  1.0000
  C   C15       1.0  0.46577851890009464  0.8674772338259016  0.6411676311619631  1.0000
  C   C16       1.0  0.9657769821668862  0.6411651036879745  0.8674816463707131  1.0000
  C   C17       1.0  0.22179129763451036  0.0912149762403658  0.2532036402644096  1.0000
  C   C18       1.0  0.7217962344406175  0.25320539603203684  0.09121351691808145  1.0000
  C   C19       1.0  0.7782062190447617  0.9087835153621526  0.7467965380122692  1.0000
  C   C20       1.0  0.2782056771822211  0.7467980831807849  0.9087850519010985  1.0000
  C   C21       1.0  0.06405690326172221  0.9724506303798037  0.18920989910591857  1.0000
  C   C22       1.0  0.5640608275002916  0.1892106874130874  0.9724516141201746  1.0000
  C   C23       1.0  0.9359418946295933  0.027547857537463506  0.8107924307776813  1.0000
  C   C24       1.0  0.4359423594474449  0.8107927897721792  0.027550067255468418  1.0000
  N   N1        1.0  0.6707531546379784  0.8261086406187914  0.3554109570787602  1.0000
  N   N2        1.0  0.1707537818895872  0.3554136485717335  0.8261227023010635  1.0000
  N   N3        1.0  0.329246013289513  0.17389084530001503  0.6445896137008449  1.0000
  N   N4        1.0  0.8292444395391739  0.644586848980076  0.1738797234648999  1.0000
  N   N5        1.0  0.9886739305682398  0.23226287792279984  0.5324240910461384  1.0000
  N   N6        1.0  0.4886875922669773  0.5324299751849823  0.2322706162224151  1.0000
  N   N7        1.0  0.011326201519438051  0.7677355913899079  0.4675717418984676  1.0000
  N   N8        1.0  0.5113165235180616  0.46757249534039147  0.7677320930155035  1.0000
  O   O1        1.0  0.6718473401323094  0.6105884541234302  0.5309551023573319  1.0000
  O   O2        1.0  0.17184215262869168  0.5309539000999877  0.6105879003981515  1.0000
  O   O3        1.0  0.3281573521152764  0.38941200676740806  0.4690475109982161  1.0000
  O   O4        1.0  0.82815960127148  0.46904557181751727  0.38941312979710574  1.0000
  O   O5        1.0  0.5458416936197564  0.2552905502897644  0.3762969845036467  1.0000
  O   O6        1.0  0.04584739815600604  0.37629879228408203  0.255292448318869  1.0000
  O   O7        1.0  0.4541566796445267  0.7447139562150653  0.6237039408357817  1.0000
  O   O8        1.0  0.9541563534799948  0.623702678582049  0.7447110590735024  1.0000
  O   O9        1.0  0.3787181757040869  0.040103713660783996  0.2984003852694528  1.0000
  O   O10       1.0  0.8787226628893804  0.298401464975548  0.04010482600453  1.0000
  O   O11       1.0  0.6212787645126311  0.9598967875762766  0.7015998888895894  1.0000
  O   O12       1.0  0.12127722744904901  0.7016000219194468  0.9598951094157188  1.0000
