data_image0
_chemical_formula_structural       ZnSiH12C24N4Cl4F6
_chemical_formula_sum              "Zn1 Si1 H12 C24 N4 Cl4 F6"
_cell_length_a       7.741785247373298
_cell_length_b       14.006853949193404
_cell_length_c       14.006811475359216
_cell_angle_alpha    89.9951605631298
_cell_angle_beta     90.32508543359104
_cell_angle_gamma    90.3227395146968

_space_group_name_H-M_alt    "P 1"
_space_group_IT_number       1

loop_
  _space_group_symop_operation_xyz
  'x, y, z'

loop_
  _atom_site_type_symbol
  _atom_site_label
  _atom_site_symmetry_multiplicity
  _atom_site_fract_x
  _atom_site_fract_y
  _atom_site_fract_z
  _atom_site_occupancy
  Zn  Zn1       1.0  0.5000041859121254  0.4999998544846493  0.5000005987008433  1.0000
  Si  Si1       1.0  5.363219202015289e-07  0.4999931435028984  0.4999975253984131  1.0000
  H   H1        1.0  0.23369412063951236  0.6623221072264444  0.5000431500883378  1.0000
  H   H2        1.0  0.2249042510432773  0.8395960150486702  0.4999934224596173  1.0000
  H   H3        1.0  0.7723677583847459  0.6627762576632676  0.4999115023950436  1.0000
  H   H4        1.0  0.2276638049748314  0.3372349110446464  0.5000668845530922  1.0000
  H   H5        1.0  0.7663391374114213  0.33766978404045744  0.5000323362476988  1.0000
  H   H6        1.0  0.7751057596922238  0.16039584026308523  0.500082741627274  1.0000
  H   H7        1.0  0.2337002746981938  0.5000711293890703  0.6623196417746795  1.0000
  H   H8        1.0  0.22491682847741853  0.49999010460336296  0.8395940094980003  1.0000
  H   H9        1.0  0.7723739783618198  0.4999426830898983  0.6627791598134676  1.0000
  H   H10       1.0  0.22766560752081944  0.500092770855062  0.3372277963475056  1.0000
  H   H11       1.0  0.7663400273858018  0.4998600908585474  0.3376794661289891  1.0000
  H   H12       1.0  0.7751039070609024  0.49990895833750687  0.16040007158363778  1.0000
  C   C1        1.0  0.352745374136795  0.7039902505968955  0.4999548876691262  1.0000
  C   C2        1.0  0.3483984802232031  0.8028733754351907  0.4999257805670678  1.0000
  C   C3        1.0  0.503515912437166  0.8558996263242732  0.4999160788026342  1.0000
  C   C4        1.0  0.6586836016992024  0.8032037165301845  0.499894073193694  1.0000
  C   C5        1.0  0.65315988679  0.7037027727948554  0.4998985559360276  1.0000
  C   C6        1.0  0.502283798726026  0.9565152929670974  0.500010268909513  1.0000
  C   C7        1.0  0.49771992281023364  0.043485832933726015  0.500089445094133  1.0000
  C   C8        1.0  0.4964940535098705  0.1441057946051316  0.5001379525168445  1.0000
  C   C9        1.0  0.34133650249032843  0.1968002935788604  0.5001235629581158  1.0000
  C   C10       1.0  0.34687309012816303  0.29630696926597005  0.5001048212118275  1.0000
  C   C11       1.0  0.6472890830056597  0.29601163873265085  0.5000927564420861  1.0000
  C   C12       1.0  0.65162175732425  0.1971170685392068  0.5001311230806207  1.0000
  C   C13       1.0  0.3527492182017369  0.49998651913063713  0.7039871121401473  1.0000
  C   C14       1.0  0.34840328927419506  0.4999310506777093  0.8028726378755662  1.0000
  C   C15       1.0  0.5035303129134404  0.49989819687031206  0.8558972496205397  1.0000
  C   C16       1.0  0.6586923470428374  0.49990727021096865  0.8032043462658149  1.0000
  C   C17       1.0  0.6531637738245806  0.49993322196404927  0.7037065939684408  1.0000
  C   C18       1.0  0.5022900504391429  0.49992813683500986  0.956527481928546  1.0000
  C   C19       1.0  0.49772042849895115  0.4999794772782593  0.0434730083302597  1.0000
  C   C20       1.0  0.4964958169409073  0.5000379989663628  0.14410397785331944  1.0000
  C   C21       1.0  0.34133271094842843  0.5000710463469389  0.19679759187162194  1.0000
  C   C22       1.0  0.34687304539232133  0.5000672447180535  0.2962996452805767  1.0000
  C   C23       1.0  0.6472911608503011  0.49995897999004774  0.29601270927916784  1.0000
  C   C24       1.0  0.6516227671169119  0.499995864028257  0.19712359224955375  1.0000
  N   N1        1.0  0.5027182823525109  0.6551465803104219  0.49994249611800956  1.0000
  N   N2        1.0  0.4973069962140426  0.3448545818756941  0.5000794318457833  1.0000
  N   N3        1.0  0.502721670971752  0.49998314118309406  0.6551471244433882  1.0000
  N   N4        1.0  0.49731504186000547  0.5000001909331858  0.3448555455881816  1.0000
  Cl  Cl1       1.0  0.8554073622950396  0.8608106469398608  0.4999525395607021  1.0000
  Cl  Cl2       1.0  0.14459724433106658  0.1392090464498708  0.5000500790984075  1.0000
  Cl  Cl3       1.0  0.8554169201135264  0.499953524048479  0.8608172466361166  1.0000
  Cl  Cl4       1.0  0.14460575992821134  0.5000562018264391  0.13919325389474574  1.0000
  F   F1        1.0  0.22789952022454674  0.5003817628514186  0.5003887183882794  1.0000
  F   F2        1.0  0.7721152035621585  0.4996079611963324  0.49960178016456763  1.0000
  F   F3        1.0  0.999995441125705  0.5857132056055294  0.41426388514852147  1.0000
  F   F4        1.0  0.9999877495595938  0.4142741737323164  0.5857327001567395  1.0000
  F   F5        1.0  0.0002894490599061028  0.585724405511627  0.585721198672637  1.0000
  F   F6        1.0  0.9997201118186396  0.41425745690035143  0.4142778594381084  1.0000
