data_image0
_chemical_formula_structural       Mn2H20C12O10
_chemical_formula_sum              "Mn2 H20 C12 O10"
_cell_length_a       4.661765679000246
_cell_length_b       7.994551575946881
_cell_length_c       10.366119822155119
_cell_angle_alpha    108.11483691782067
_cell_angle_beta     90.00002666842948
_cell_angle_gamma    89.99996724387383

_space_group_name_H-M_alt    "P 1"
_space_group_IT_number       1

loop_
  _space_group_symop_operation_xyz
  'x, y, z'

loop_
  _atom_site_type_symbol
  _atom_site_label
  _atom_site_symmetry_multiplicity
  _atom_site_fract_x
  _atom_site_fract_y
  _atom_site_fract_z
  _atom_site_occupancy
  Mn  Mn1       1.0  0.8298188220652634  0.2003649485099004  0.5701655897255691  1.0000
  Mn  Mn2       1.0  0.32981263031734187  0.7996295510806631  0.4298317322196255  1.0000
  H   H1        1.0  0.0027157328063366994  0.22077966536560467  0.25711622934444733  1.0000
  H   H2        1.0  0.5027193892576705  0.7792215082533003  0.7428845464221184  1.0000
  H   H3        1.0  0.16056155646759862  0.020188848488814398  0.1671907907306149  1.0000
  H   H4        1.0  0.6605565280895647  0.9798149139001352  0.8328106364496293  1.0000
  H   H5        1.0  0.6115965675204933  0.19215733217484401  0.1367721130900819  1.0000
  H   H6        1.0  0.11159295703755127  0.8078451275934455  0.8632289927399555  1.0000
  H   H7        1.0  0.411063046025788  0.3872812842645529  0.20277047795665482  1.0000
  H   H8        1.0  0.9110626311102265  0.6127210931738603  0.7972306714256662  1.0000
  H   H9        1.0  0.23615346002542736  0.0802163980972921  0.9535947570200421  1.0000
  H   H10       1.0  0.7361498295676866  0.919783397110251  0.04640670358900677  1.0000
  H   H11       1.0  0.0458751958308383  0.27745291330238325  0.019733799259100196  1.0000
  H   H12       1.0  0.5458748608963119  0.7225482466053064  0.9802660176610445  1.0000
  H   H13       1.0  0.4655148826068256  0.4480316360997064  0.9736728649655292  1.0000
  H   H14       1.0  0.9655115919865124  0.5519680923589546  0.026326698754267845  1.0000
  H   H15       1.0  0.6657030415026384  0.2555833960633933  0.9104375860364159  1.0000
  H   H16       1.0  0.16570299043473818  0.7444150968909112  0.0895606547292047  1.0000
  H   H17       1.0  0.2605237159392573  0.408722891203432  0.6073898081420879  1.0000
  H   H18       1.0  0.7605207622175668  0.5912755793758462  0.39261037665909976  1.0000
  H   H19       1.0  0.04902007932077619  0.5492774043091515  0.5767723035110919  1.0000
  H   H20       1.0  0.5490194398178331  0.45072112626282024  0.42322881565373643  1.0000
  C   C1        1.0  0.3414844598951348  0.1406567772296867  0.3584391288220132  1.0000
  C   C2        1.0  0.8414836437660539  0.8593429853271246  0.6415604168599529  1.0000
  C   C3        1.0  0.21184681097117417  0.15553516882951607  0.2293149142978947  1.0000
  C   C4        1.0  0.7118461417634734  0.8444672596848264  0.7706842758661665  1.0000
  C   C5        1.0  0.39253791754875766  0.24592137224210825  0.1479360950568989  1.0000
  C   C6        1.0  0.8925395654276257  0.7540810084426041  0.85206408650852  1.0000
  C   C7        1.0  0.26336148104653734  0.22135146392257352  0.0079866528683326  1.0000
  C   C8        1.0  0.7633675385109129  0.7786470077216592  0.9920144974691071  1.0000
  C   C9        1.0  0.44390508847531157  0.30542369883581694  0.9224677224770659  1.0000
  C   C10       1.0  0.9439060008177123  0.6945747194813021  0.07753152387105186  1.0000
  C   C11       1.0  0.33058959261884974  0.2847839310135568  0.7815620112395721  1.0000
  C   C12       1.0  0.8305863389361503  0.715213202374933  0.21843690439929725  1.0000
  O   O1        1.0  0.5827170760832416  0.21275181898968745  0.3983998520316021  1.0000
  O   O2        1.0  0.08271750785038279  0.7872453806971436  0.601598062436004  1.0000
  O   O3        1.0  0.1990642500413884  0.0540888934109418  0.423732885217774  1.0000
  O   O4        1.0  0.6990611370528937  0.945910904607693  0.5762647095057574  1.0000
  O   O5        1.0  0.4902457680489222  0.3432266266771434  0.7030954728078811  1.0000
  O   O6        1.0  0.9902469422758668  0.6567704609716499  0.2969025009275441  1.0000
  O   O7        1.0  0.08489514871845927  0.2177757710668047  0.748434145613416  1.0000
  O   O8        1.0  0.5848961535476604  0.7822240601850226  0.2515643976294514  1.0000
  O   O9        1.0  0.0855792394235948  0.42207291967935134  0.554706731487407  1.0000
  O   O10       1.0  0.5855784978899905  0.5779255989954206  0.44529342787138393  1.0000
