data_image0
_chemical_formula_structural       ZnMo8H30C30N16O28
_chemical_formula_sum              "Zn1 Mo8 H30 C30 N16 O28"
_cell_length_a       7.267497171374655
_cell_length_b       10.510825055417165
_cell_length_c       16.408
_cell_angle_alpha    96.04301560384889
_cell_angle_beta     93.63625180205224
_cell_angle_gamma    95.75878768893614

_space_group_name_H-M_alt    "P 1"
_space_group_IT_number       1

loop_
  _space_group_symop_operation_xyz
  'x, y, z'

loop_
  _atom_site_type_symbol
  _atom_site_label
  _atom_site_symmetry_multiplicity
  _atom_site_fract_x
  _atom_site_fract_y
  _atom_site_fract_z
  _atom_site_occupancy
  Zn  Zn1       1.0  6.404011899127324e-07  0.4999994900625495  0.5000002273837794  1.0000
  Mo  Mo1       1.0  0.3495595530746911  0.6620901185366534  0.3877797351491807  1.0000
  Mo  Mo2       1.0  0.6504410158228708  0.3379098239161493  0.6122207035720564  1.0000
  Mo  Mo3       1.0  0.3682858059268881  0.7347795413547686  0.5867524415966727  1.0000
  Mo  Mo4       1.0  0.631713384205419  0.2652204010980341  0.4132485678523139  1.0000
  Mo  Mo5       1.0  0.2720439200001792  0.9705421292286687  0.4552213708394532  1.0000
  Mo  Mo6       1.0  0.7279580276626447  0.0294578132241341  0.5447791066128431  1.0000
  Mo  Mo7       1.0  0.6200308266666923  0.9700474927908758  0.3309976048695304  1.0000
  Mo  Mo8       1.0  0.37996974223087693  0.029952449661927  0.6690034433105082  1.0000
  H   H1        1.0  0.2991673216435587  0.8375936704931065  0.2268090414278419  1.0000
  H   H2        1.0  0.7008346260192655  0.1624062719596964  0.773192045483249  1.0000
  H   H3        1.0  0.8885953605946926  0.5701156486109156  0.3020227580104873  1.0000
  H   H4        1.0  0.11140520830287673  0.42988429384189436  0.6979782901695515  1.0000
  H   H5        1.0  0.6412896155931592  0.5762148815733994  0.18043761999069116  1.0000
  H   H6        1.0  0.35871371083491976  0.42378506087941054  0.8195622867338557  1.0000
  H   H7        1.0  0.6563023859511716  0.7439052949336968  0.161344117358766  1.0000
  H   H8        1.0  0.34369971125936877  0.2560956098468097  0.8386558197334538  1.0000
  H   H9        1.0  0.807548159725819  0.5402565447358825  0.7905176306780959  1.0000
  H   H10       1.0  0.1924508808587717  0.4597424353892237  0.2094814812957679  1.0000
  H   H11       1.0  0.8855436219278091  0.6588701700525164  0.6687178310704027  1.0000
  H   H12       1.0  0.11446231248306303  0.3411288100725827  0.3312820840175164  1.0000
  H   H13       1.0  0.8798692768402105  0.9062769230961933  0.9414529045814034  1.0000
  H   H14       1.0  0.1201213416051203  0.093721094701209  0.058546515366209896  1.0000
  H   H15       1.0  0.951800215446049  0.0115691036091761  0.8134747891627043  1.0000
  H   H16       1.0  0.04819744637328685  0.9884298765159231  0.1865255029977035  1.0000
  H   H17       1.0  0.7476892355161624  0.2755808211160371  0.9331930807882003  1.0000
  H   H18       1.0  0.2523114829291231  0.7244200836644694  0.0668062081141656  1.0000
  H   H19       1.0  0.6747776254385016  0.05698808406521041  0.9800613565958045  1.0000
  H   H20       1.0  0.3252258505372936  0.943012820715289  0.019939228686268996  1.0000
  H   H21       1.0  0.6027944359813375  0.2493699015516384  0.2197156379243168  1.0000
  H   H22       1.0  0.39720229571589283  0.7506319655565648  0.7802836038836175  1.0000
  H   H23       1.0  0.601326079741071  0.0457875519651267  0.1284347771604715  1.0000
  H   H24       1.0  0.3986786254522698  0.9542123904876761  0.8715657777539221  1.0000
  H   H25       1.0  0.9358863981115705  0.885821685505384  0.6885753486561512  1.0000
  H   H26       1.0  0.06411692831650842  0.11417825694741882  0.311423948609594  1.0000
  H   H27       1.0  0.26169187158348006  0.3248981910846922  0.5096085873563466  1.0000
  H   H28       1.0  0.7383071690011107  0.6751007890404068  0.49039174353511317  1.0000
  H   H29       1.0  0.0530446647474889  0.2571849648031872  0.5167321829939341  1.0000
  H   H30       1.0  0.9469531466195634  0.7428149776496156  0.483266349888801  1.0000
  C   C1        1.0  0.172692099084891  0.7732274199521356  0.2276721635886716  1.0000
  C   C2        1.0  0.8273096990302096  0.2267715601729705  0.7723288542236943  1.0000
  C   C3        1.0  0.9663118309479871  0.637497834163625  0.2677828307075885  1.0000
  C   C4        1.0  0.03369149548009891  0.3625021082891777  0.7322176854757529  1.0000
  C   C5        1.0  0.7205213941098165  0.6538891618774159  0.15418080612905524  1.0000
  C   C6        1.0  0.2794791747877525  0.346110780575394  0.8458202420509835  1.0000
  C   C7        1.0  0.7924916168839432  0.6495509886058954  0.946259190631558  1.0000
  C   C8        1.0  0.20750619448310917  0.3504489538469073  0.05373995170997859  1.0000
  C   C9        1.0  0.8375002938670661  0.7148612826205465  0.8748588385716971  1.0000
  C   C10       1.0  0.16249215198666891  0.2851396221599529  0.1251396084855543  1.0000
  C   C11       1.0  0.842044540244686  0.6439887344999988  0.7978873655444829  1.0000
  C   C12       1.0  0.15795021449641672  0.3560092832974036  0.2021115611374924  1.0000
  C   C13       1.0  0.8828542876651826  0.7076361262490849  0.7304542602951329  1.0000
  C   C14       1.0  0.11714795909308152  0.2923657408591183  0.2695451364370172  1.0000
  C   C15       1.0  0.8787000930978125  0.8492994246356815  0.8820766188416513  1.0000
  C   C16       1.0  0.1212934324257517  0.1506995554894246  0.1179223382079968  1.0000
  C   C17       1.0  0.9181523921623056  0.9082131264285564  0.8130367587033049  1.0000
  C   C18       1.0  0.08184571830017973  0.0917887406796467  0.18696252183568868  1.0000
  C   C19       1.0  0.7411367325208646  0.5006923660065397  0.022772069965213904  1.0000
  C   C20       1.0  0.25886245761144283  0.4993075764462631  0.9772271111073677  1.0000
  C   C21       1.0  0.7087088970167701  0.3739037668785627  0.0519784485288071  1.0000
  C   C22       1.0  0.291293050646054  0.6260961755742471  0.9480202005470844  1.0000
  C   C23       1.0  0.7130162432601568  0.2643764397051527  0.9956797090992994  1.0000
  C   C24       1.0  0.2869843256374125  0.7356235027476501  0.0043201201631432925  1.0000
  C   C25       1.0  0.6745832954133348  0.1440874018628477  0.022531387283464696  1.0000
  C   C26       1.0  0.3254188017972055  0.8559135029176517  0.9774679403499531  1.0000
  C   C27       1.0  0.6353053211213435  0.2515765189676955  0.15585816404718858  1.0000
  C   C28       1.0  0.3646927893411488  0.7484253481405077  0.8441405070330035  1.0000
  C   C29       1.0  0.634102498676498  0.1370412384435795  0.10395537890541111  1.0000
  C   C30       1.0  0.3658995985340425  0.8629596663369199  0.8960457771044119  1.0000
  N   N1        1.0  0.1376779887973854  0.6967108198711927  0.2884884465510069  1.0000
  N   N2        1.0  0.8623239588654388  0.3032891225816101  0.7115126403600839  1.0000
  N   N3        1.0  0.033683243261045  0.7643528339029046  0.17093753409272947  1.0000
  N   N4        1.0  0.966320083167034  0.2356471085498981  0.8290635915494136  1.0000
  N   N5        1.0  0.9050536148927578  0.677052389615973  0.1968054506155354  1.0000
  N   N6        1.0  0.09494818322234981  0.3229465905091331  0.8031955671968305  1.0000
  N   N7        1.0  0.7349539768589111  0.6186198516730883  0.06720224520307029  1.0000
  N   N8        1.0  0.265046592038658  0.3813800907797145  0.932798193518174  1.0000
  N   N9        1.0  0.7679992184640981  0.7138835576773701  0.018879057599029598  1.0000
  N   N10       1.0  0.23199874245067065  0.2861173471031364  0.9811207633000335  1.0000
  N   N11       1.0  0.7757046220390083  0.5189304005765933  0.9457720634431227  1.0000
  N   N12       1.0  0.22428782381472706  0.48107050420391323  0.0542269930729304  1.0000
  N   N13       1.0  0.9184023472209262  0.8365456956278265  0.7400006293863015  1.0000
  N   N14       1.0  0.0815966933636645  0.1634532844972796  0.2599997015051585  1.0000
  N   N15       1.0  0.672144525365944  0.3683617216543666  0.1311138921029951  1.0000
  N   N16       1.0  0.3278575718445964  0.6316391831261399  0.8688860449892247  1.0000
  O   O1        1.0  0.17327542909599467  0.5425497716449428  0.405446882692722  1.0000
  O   O2        1.0  0.8267236114885963  0.4574492084801633  0.5945528387399364  1.0000
  O   O3        1.0  0.48096960436283354  0.5911915875682112  0.3169794048075332  1.0000
  O   O4        1.0  0.51902973531719  0.4088093172122953  0.6830210642813839  1.0000
  O   O5        1.0  0.4946230972964259  0.6735321948894395  0.4880999156466004  1.0000
  O   O6        1.0  0.5053757937404485  0.3264658229079629  0.5119009556049363  1.0000
  O   O7        1.0  0.20301690274474285  0.6007436523182292  0.5846540723981377  1.0000
  O   O8        1.0  0.796982137839848  0.3992553278068769  0.4153468679521239  1.0000
  O   O9        1.0  0.538464849918306  0.7115749335251138  0.6582524541810812  1.0000
  O   O10       1.0  0.4615343402140014  0.288425008927689  0.3417479458091108  1.0000
  O   O11       1.0  0.19913281992181456  0.7997385857589309  0.47310319588299876  1.0000
  O   O12       1.0  0.800867599428031  0.2002603943661754  0.5268971737395134  1.0000
  O   O13       1.0  0.21149856514680473  0.061148226712234105  0.5433200836272789  1.0000
  O   O14       1.0  0.7885032329683029  0.938850753412872  0.456680934185087  1.0000
  O   O15       1.0  0.4994787190241966  0.0762856414329462  0.4381692729118356  1.0000
  O   O16       1.0  0.500521700325649  0.9237133386921598  0.5618310967106765  1.0000
  O   O17       1.0  0.12554264165707  0.0048655288511057  0.3762188464626064  1.0000
  O   O18       1.0  0.8744579272404922  0.9951344136016971  0.6237822017174324  1.0000
  O   O19       1.0  0.757577286425118  0.1395663863283332  0.3523010653103924  1.0000
  O   O20       1.0  0.24242190370718936  0.8604335561244696  0.6476993346797997  1.0000
  O   O21       1.0  0.4779332187103123  0.0005196569579908  0.24827239859880018  1.0000
  O   O22       1.0  0.5220658218742713  0.9994793231671153  0.7517279322926597  1.0000
  O   O23       1.0  0.7757312914254656  0.8774253763230462  0.287053573739918  1.0000
  O   O24       1.0  0.22426912792438003  0.1225736038020599  0.7129474053413958  1.0000
  O   O25       1.0  0.4385180952673979  0.8479675630989051  0.3725860052177765  1.0000
  O   O26       1.0  0.5614838523954264  0.1520323793538978  0.6274150816933144  1.0000
  O   O27       1.0  0.1277206642601314  0.3302612433566949  0.49778231313622007  1.0000
  O   O28       1.0  0.8722799046374377  0.6697386990961078  0.5022162972086193  1.0000
