data_image0
_chemical_formula_structural       Zn4H8C32Cl8O16
_chemical_formula_sum              "Zn4 H8 C32 Cl8 O16"
_cell_length_a       7.171175680084345
_cell_length_b       7.508659958759716
_cell_length_c       16.96918808634053
_cell_angle_alpha    98.72194082992189
_cell_angle_beta     90.00043833751103
_cell_angle_gamma    89.99959459664541

_space_group_name_H-M_alt    "P 1"
_space_group_IT_number       1

loop_
  _space_group_symop_operation_xyz
  'x, y, z'

loop_
  _atom_site_type_symbol
  _atom_site_label
  _atom_site_symmetry_multiplicity
  _atom_site_fract_x
  _atom_site_fract_y
  _atom_site_fract_z
  _atom_site_occupancy
  Zn  Zn1       1.0  0.7271441880349343  0.35097200331281897  0.43384823892480995  1.0000
  Zn  Zn2       1.0  0.22714304507987745  0.1490217046185123  0.5661545296982952  1.0000
  Zn  Zn3       1.0  0.27285753530068035  0.64901561986035  0.5661519426005484  1.0000
  Zn  Zn4       1.0  0.7728544948183966  0.8509766921499843  0.4338475627807412  1.0000
  H   H1        1.0  0.9870027664220657  0.45440479421272056  0.1911129346685101  1.0000
  H   H2        1.0  0.48700120016781057  0.045592838772520794  0.8088850511612335  1.0000
  H   H3        1.0  0.013000351319867301  0.545600350228355  0.8088872592844608  1.0000
  H   H4        1.0  0.5129949452570627  0.9544095947130057  0.191118494326588  1.0000
  H   H5        1.0  0.6416986741091717  0.5401219920645486  0.2834779168194004  1.0000
  H   H6        1.0  0.14170350832542766  0.9598791650831726  0.7165199962107209  1.0000
  H   H7        1.0  0.3583030491449293  0.4598764344422577  0.7165176953376218  1.0000
  H   H8        1.0  0.8582954259883305  0.0401286768226043  0.28347979179510224  1.0000
  C   C1        1.0  0.16844168904867723  0.5250154683169228  0.2929705253852859  1.0000
  C   C2        1.0  0.6684482361843533  0.9749760955990252  0.7070285902487187  1.0000
  C   C3        1.0  0.8315600342712981  0.47497888902196184  0.7070307032096679  1.0000
  C   C4        1.0  0.3315548816082483  0.025019606405344088  0.29297331905872437  1.0000
  C   C5        1.0  0.35422867635021754  0.5464323696874086  0.31917982222870483  1.0000
  C   C6        1.0  0.8542335152244291  0.9535635309059957  0.6808172446939765  1.0000
  C   C7        1.0  0.6457702579959486  0.45356334855640756  0.6808185523484127  1.0000
  C   C8        1.0  0.1457612357137492  0.04643352931474  0.31918239970839585  1.0000
  C   C9        1.0  0.4983998903554435  0.5191871519852282  0.2632115933362726  1.0000
  C   C10       1.0  0.9983971701526997  0.9808160107955144  0.7367852565699381  1.0000
  C   C11       1.0  0.5016004384020148  0.4808193587699278  0.7367845683574075  1.0000
  C   C12       1.0  0.0015989752200055998  0.0191877944052408  0.2632130784211242  1.0000
  C   C13       1.0  0.4611237429930241  0.46633246645799886  0.18270085538974  1.0000
  C   C14       1.0  0.9611244144080402  0.033666670544341984  0.8172953807703323  1.0000
  C   C15       1.0  0.5388821636747493  0.533671341419307  0.8172968904945321  1.0000
  C   C16       1.0  0.038875914364268696  0.9663384874276061  0.1827018675750267  1.0000
  C   C17       1.0  0.27522103472961845  0.44038664733304234  0.1568566841961569  1.0000
  C   C18       1.0  0.7752219795876343  0.059609501034216784  0.843141691932516  1.0000
  C   C19       1.0  0.7247806885343592  0.55961715514713  0.8431422399235942  1.0000
  C   C20       1.0  0.22477556031063978  0.9403888957342801  0.15686040054652042  1.0000
  C   C21       1.0  0.13035116604091  0.4726082426375127  0.21216844257511977  1.0000
  C   C22       1.0  0.6303527465310736  0.027387387147164995  0.7878300173931976  1.0000
  C   C23       1.0  0.8696519517105443  0.5273955517249361  0.7878322489087993  1.0000
  C   C24       1.0  0.3696447933599528  0.9726150490389358  0.2121729389758897  1.0000
  C   C25       1.0  0.4007697608013102  0.5943313372640728  0.40523614109342543  1.0000
  C   C26       1.0  0.9007706134676213  0.9056616014645512  0.5947608755473155  1.0000
  C   C27       1.0  0.5992417237828889  0.4056643836483003  0.5947616443808882  1.0000
  C   C28       1.0  0.09922832087016077  0.09433681152738418  0.40523768220935363  1.0000
  C   C29       1.0  0.0045359080491991  0.5537868788248518  0.3488444611618746  1.0000
  C   C30       1.0  0.5045360826073663  0.9462056150478517  0.6511565428945403  1.0000
  C   C31       1.0  0.9954630263384697  0.4462074731128994  0.6511579456705479  1.0000
  C   C32       1.0  0.4954600628426603  0.05378873419331849  0.3488464530546338  1.0000
  Cl  Cl1       1.0  0.22214683255433698  0.3681563590384369  0.058677400919663086  1.0000
  Cl  Cl2       1.0  0.7221504067332203  0.1318481944187795  0.941317838467697  1.0000
  Cl  Cl3       1.0  0.7778465238521618  0.6318514937016386  0.9413200305952856  1.0000
  Cl  Cl4       1.0  0.27784713308695064  0.86816503969181  0.058681726774501876  1.0000
  Cl  Cl5       1.0  0.6429958213479948  0.43073204042386937  0.115896686961662  1.0000
  Cl  Cl6       1.0  0.14299683159327253  0.06926755890911808  0.8841020838834055  1.0000
  Cl  Cl7       1.0  0.3570072963821359  0.569271764756877  0.884101648039355  1.0000
  Cl  Cl8       1.0  0.8570048916234467  0.9307497200162159  0.1158971670133724  1.0000
  O   O1        1.0  0.5683743443164528  0.5817721335372282  0.42959784645037763  1.0000
  O   O2        1.0  0.06837266654298448  0.9182186627858611  0.5703997135870935  1.0000
  O   O3        1.0  0.43163853473923547  0.41822358737114473  0.5703999390259256  1.0000
  O   O4        1.0  0.9316206899195121  0.081779744812934  0.4296000224030578  1.0000
  O   O5        1.0  0.26475462712492254  0.6475723064467971  0.45162206668641863  1.0000
  O   O6        1.0  0.7647550388056387  0.8524160180527787  0.5483753734295292  1.0000
  O   O7        1.0  0.7352526740619537  0.3524247510333467  0.5483781668545975  1.0000
  O   O8        1.0  0.23524529003333322  0.14757968936874016  0.45162535763248723  1.0000
  O   O9        1.0  0.9198748220263367  0.7030999396728245  0.3511355817788271  1.0000
  O   O10       1.0  0.4198824377755485  0.7968955733104437  0.6488640290906744  1.0000
  O   O11       1.0  0.08011992890459402  0.29690115996551464  0.6488649265135962  1.0000
  O   O12       1.0  0.5801067353391572  0.20309338374993044  0.3511391896101657  1.0000
  O   O13       1.0  0.957646813704187  0.42239893447622723  0.3833800525572002  1.0000
  O   O14       1.0  0.4576471144198492  0.0775975223261653  0.6166171687354877  1.0000
  O   O15       1.0  0.04235212062826581  0.5775994812202824  0.616617916078745  1.0000
  O   O16       1.0  0.5423490310682693  0.9223914266004769  0.3833878173374927  1.0000
