data_image0
_chemical_formula_structural       Cs2H20C30N2O10
_chemical_formula_sum              "Cs2 H20 C30 N2 O10"
_cell_length_a       6.602592827072295
_cell_length_b       9.389075355005245
_cell_length_c       11.343267128403589
_cell_angle_alpha    100.51853425918992
_cell_angle_beta     89.99980723705403
_cell_angle_gamma    90.00052954013002

_space_group_name_H-M_alt    "P 1"
_space_group_IT_number       1

loop_
  _space_group_symop_operation_xyz
  'x, y, z'

loop_
  _atom_site_type_symbol
  _atom_site_label
  _atom_site_symmetry_multiplicity
  _atom_site_fract_x
  _atom_site_fract_y
  _atom_site_fract_z
  _atom_site_occupancy
  Cs  Cs1       1.0  0.6698521294923909  0.4075000366061944  0.8773293989030008  1.0000
  Cs  Cs2       1.0  0.16984894800688727  0.592503638200661  0.12267263495285621  1.0000
  H   H1        1.0  0.24699908891960123  0.7175057115967789  0.8749836404901998  1.0000
  H   H2        1.0  0.7469944047012974  0.28249737904703653  0.12501992515851157  1.0000
  H   H3        1.0  0.523798331716492  0.8619788280986712  0.022640926555368427  1.0000
  H   H4        1.0  0.023790230210778404  0.13802390835085993  0.9773586044304992  1.0000
  H   H5        1.0  0.3843100306997584  0.9204039545112792  0.9060565292272642  1.0000
  H   H6        1.0  0.884298307056973  0.0795988702739407  0.09394232862111812  1.0000
  H   H7        1.0  0.7339608669378279  0.9642565153727178  0.8960117505661671  1.0000
  H   H8        1.0  0.233950448894177  0.0357453773376548  0.10398813991320568  1.0000
  H   H9        1.0  0.6673759459897326  0.47860317084457193  0.4786768327456059  1.0000
  H   H10       1.0  0.16736495889131225  0.5213972470146544  0.5213256155635548  1.0000
  H   H11       1.0  0.6627950148034429  0.47244026936435546  0.25808685159083206  1.0000
  H   H12       1.0  0.16279645413881383  0.5275568536000251  0.7419133648412171  1.0000
  H   H13       1.0  0.6634875003609509  0.20702103435835542  0.5823172811106403  1.0000
  H   H14       1.0  0.16349130238839393  0.7929803927734724  0.4176800311719049  1.0000
  H   H15       1.0  0.6606477774187169  0.9749932535892968  0.21770280816587473  1.0000
  H   H16       1.0  0.16066809845888494  0.025000589721990703  0.7822951739606268  1.0000
  H   H17       1.0  0.6717220589982488  0.7044967930199633  0.17854283529944578  1.0000
  H   H18       1.0  0.17173663320490817  0.29550252745215744  0.8214550376950528  1.0000
  H   H19       1.0  0.6568483202372165  0.20509416733581523  0.3598654753748391  1.0000
  H   H20       1.0  0.15685690915204023  0.7949018186536849  0.6401328244264448  1.0000
  C   C1        1.0  0.8683188630955883  0.7603732508584926  0.8948780516441488  1.0000
  C   C2        1.0  0.36831264288500876  0.23962842381604324  0.10512419641929678  1.0000
  C   C3        1.0  0.6759084583899552  0.7100606579409857  0.6541061020998457  1.0000
  C   C4        1.0  0.17589846935913309  0.2899419383562146  0.3458922375591342  1.0000
  C   C5        1.0  0.48789599232695485  0.8356443041000717  0.9258588478265466  1.0000
  C   C6        1.0  0.987888531466851  0.16435483562106162  0.0741392790289623  1.0000
  C   C7        1.0  0.6887900871490019  0.8512193500599637  0.861886305961356  1.0000
  C   C8        1.0  0.18878096151276938  0.14878115204749787  0.13811082417178971  1.0000
  C   C9        1.0  0.6687131782481475  0.7098226041491883  0.52391924502831  1.0000
  C   C10       1.0  0.16870849167019492  0.29017671400782774  0.4760803965860276  1.0000
  C   C11       1.0  0.6679814153287466  0.978445614416337  0.6918925292034146  1.0000
  C   C12       1.0  0.16797870755578265  0.021555890495029904  0.3081100754396076  1.0000
  C   C13       1.0  0.6665317008308805  0.842096967521613  0.4807035619957817  1.0000
  C   C14       1.0  0.16653410454404852  0.15790343681703695  0.5192980043420903  1.0000
  C   C15       1.0  0.6669450627876757  0.579083966732668  0.4434856168908752  1.0000
  C   C16       1.0  0.1669386031219489  0.42091639047099244  0.5565106522039898  1.0000
  C   C17       1.0  0.6657765837752975  0.9759706276209529  0.5618364858346538  1.0000
  C   C18       1.0  0.1657761796300505  0.0240275889431487  0.43816300176256107  1.0000
  C   C19       1.0  0.666254894434566  0.8405047823627144  0.3544605314809957  1.0000
  C   C20       1.0  0.166261126909383  0.15949235397441447  0.6455387986949148  1.0000
  C   C21       1.0  0.6656065414946328  0.5766076670923754  0.318939419945977  1.0000
  C   C22       1.0  0.1656084758139471  0.4233916316548374  0.681060224760877  1.0000
  C   C23       1.0  0.6644048349827117  0.10506750951692112  0.5185270427159097  1.0000
  C   C24       1.0  0.16441263936746256  0.8949328566897847  0.48147187732098473  1.0000
  C   C25       1.0  0.6640037517368498  0.9745465792085783  0.3137631179310675  1.0000
  C   C26       1.0  0.1640155513017163  0.025449451544709196  0.6862351747380941  1.0000
  C   C27       1.0  0.6671402471311155  0.7049326657119794  0.2750483955302983  1.0000
  C   C28       1.0  0.16714780534529444  0.29506555940607626  0.7249510907040317  1.0000
  C   C29       1.0  0.6628315672504498  0.10421344786247032  0.39428288034642384  1.0000
  C   C30       1.0  0.16284320230948873  0.8957847503196349  0.6057166101795559  1.0000
  N   N1        1.0  0.6717395501570352  0.8451255620790902  0.7313430067703733  1.0000
  N   N2        1.0  0.1717282293776705  0.1548737832677745  0.2686575146373471  1.0000
  O   O1        1.0  0.6874045919808935  0.596810181541507  0.6945441450147456  1.0000
  O   O2        1.0  0.18739481822237988  0.4031882033944214  0.3054588522580985  1.0000
  O   O3        1.0  0.3915481692230641  0.6983231647137489  0.8980424149629728  1.0000
  O   O4        1.0  0.8915453870485522  0.3016775637381385  0.10195877020305488  1.0000
  O   O5        1.0  0.8456437668211408  0.6979235627391632  0.9836338734361476  1.0000
  O   O6        1.0  0.34564343160780453  0.302083386328718  0.016369181927295508  1.0000
  O   O7        1.0  0.6682222342188736  0.0934003277276858  0.7658260158420375  1.0000
  O   O8        1.0  0.16822709038414982  0.9065935629097837  0.23417195874408495  1.0000
  O   O9        1.0  0.029254759142325795  0.7647323438719412  0.8337688893852402  1.0000
  O   O10       1.0  0.5292446679313015  0.2352704515449986  0.166233284581935  1.0000
