data_image0
_chemical_formula_structural       Al2H24C48Br6O12
_chemical_formula_sum              "Al2 H24 C48 Br6 O12"
_cell_length_a       4.086367810046915
_cell_length_b       28.667925158143372
_cell_length_c       28.66783416870644
_cell_angle_alpha    119.999919571837
_cell_angle_beta     89.99951086487276
_cell_angle_gamma    90.00005576443377

_space_group_name_H-M_alt    "P 1"
_space_group_IT_number       1

loop_
  _space_group_symop_operation_xyz
  'x, y, z'

loop_
  _atom_site_type_symbol
  _atom_site_label
  _atom_site_symmetry_multiplicity
  _atom_site_fract_x
  _atom_site_fract_y
  _atom_site_fract_z
  _atom_site_occupancy
  Al  Al1       1.0  0.9768007361607899  0.5000044617349175  0.5000002324949051  1.0000
  Al  Al2       1.0  0.9768633446610692  0.16666821424383466  0.8333330146333537  1.0000
  H   H1        1.0  0.14542947261826097  0.19572947514159705  0.7074280232002792  1.0000
  H   H2        1.0  0.1667163458394612  0.25073375215782073  0.6632773541258388  1.0000
  H   H3        1.0  0.8403529501604368  0.35965475517903667  0.7851007204866464  1.0000
  H   H4        1.0  0.8228151610069574  0.30319878891478425  0.8279438929085999  1.0000
  H   H5        1.0  0.8403547909588481  0.30702185954284283  0.5482337727099207  1.0000
  H   H6        1.0  0.16660167050341096  0.4159208713119257  0.6700450378671761  1.0000
  H   H7        1.0  0.14529081179978928  0.4709281934133713  0.6258990448201303  1.0000
  H   H8        1.0  0.8227807137664841  0.36347872160693834  0.5053939291195135  1.0000
  H   H9        1.0  0.1454113659113787  0.011704104712641947  0.8042690104296853  1.0000
  H   H10       1.0  0.1667111019758067  0.9125493119661031  0.7492653221063534  1.0000
  H   H11       1.0  0.8403908287948808  0.9254511780185837  0.6403462727347887  1.0000
  H   H12       1.0  0.8228523373463615  0.024750904718139777  0.6968019343329247  1.0000
  H   H13       1.0  0.8403568802755714  0.7412202512462472  0.6929813540684009  1.0000
  H   H14       1.0  0.1665857023527835  0.7541332496648752  0.584086146712501  1.0000
  H   H15       1.0  0.14527955205561227  0.6549808548208346  0.529078904063674  1.0000
  H   H16       1.0  0.8227753508772437  0.641925066949085  0.6365234735990484  1.0000
  H   H17       1.0  0.1454264927899231  0.2925685193620921  0.9883010284321543  1.0000
  H   H18       1.0  0.1667309691874834  0.3367186443448986  0.08745633490979539  1.0000
  H   H19       1.0  0.8403609611045724  0.21489147920211593  0.0745491995993461  1.0000
  H   H20       1.0  0.8228128853524838  0.17204850869744365  0.9752490048765452  1.0000
  H   H21       1.0  0.8404297762095823  0.4517555964578719  0.2587821664453642  1.0000
  H   H22       1.0  0.16661865287148458  0.3299523776410637  0.2458714085270373  1.0000
  H   H23       1.0  0.14530847466362218  0.37410007445669186  0.3450248812865908  1.0000
  H   H24       1.0  0.8228588516028948  0.4945953452894046  0.3580785221016711  1.0000
  C   C1        1.0  0.4778464624014375  0.4634990972977349  0.4177244287763315  1.0000
  C   C2        1.0  0.4778331801957307  0.4542295167519867  0.5365001141073975  1.0000
  C   C3        1.0  0.47782598578667285  0.5822795065804128  0.5457740022102726  1.0000
  C   C4        1.0  0.47791045150471934  0.21244617530316376  0.7968354043929935  1.0000
  C   C5        1.0  0.47791030466515844  0.08439212200122623  0.7875530221647721  1.0000
  C   C6        1.0  0.4779045107939695  0.20316253009165317  0.9156091086069155  1.0000
  C   C7        1.0  0.487000095667362  0.24546610736613428  0.770068256168699  1.0000
  C   C8        1.0  0.3039635532061666  0.23096775449403154  0.723422393902908  1.0000
  C   C9        1.0  0.31798661275540496  0.2618683555446069  0.6985178508723706  1.0000
  C   C10       1.0  0.5146840551723528  0.30850395470902475  0.7197034201702337  1.0000
  C   C11       1.0  0.6888006605910632  0.3235918622250651  0.767620356484251  1.0000
  C   C12       1.0  0.6786441301672425  0.29221854410187115  0.7919671917869238  1.0000
  C   C13       1.0  0.5314039342166623  0.3413016462805346  0.6933629157807389  1.0000
  C   C14       1.0  0.5313980977326338  0.3253587674557963  0.6399661359210143  1.0000
  C   C15       1.0  0.6887674570790026  0.34307792692031563  0.5657066463920799  1.0000
  C   C16       1.0  0.5146163426129107  0.35816330261101104  0.6136216154714091  1.0000
  C   C17       1.0  0.3178714726164884  0.4047933490481625  0.6348110789083279  1.0000
  C   C18       1.0  0.303832936763186  0.4356953543548201  0.6099079531746483  1.0000
  C   C19       1.0  0.4869112594502737  0.4211981718209543  0.5632647022918178  1.0000
  C   C20       1.0  0.6785954208484595  0.3744513845120779  0.5413631822916827  1.0000
  C   C21       1.0  0.48700227574270366  0.024610064302670792  0.754533147883194  1.0000
  C   C22       1.0  0.30395736459748685  0.9924613509374469  0.7690302297354493  1.0000
  C   C23       1.0  0.31799255213205396  0.9366539691201794  0.7381281937153686  1.0000
  C   C24       1.0  0.5146941842362622  0.9112024795534455  0.6914932344680551  1.0000
  C   C25       1.0  0.6888175789029986  0.944031417113493  0.6764071337594617  1.0000
  C   C26       1.0  0.6786562331922426  0.9997551161874865  0.7077821353933942  1.0000
  C   C27       1.0  0.5314115045022162  0.8520717453122941  0.6587017561169404  1.0000
  C   C28       1.0  0.5313864458616776  0.8146190126990691  0.6746462921537459  1.0000
  C   C29       1.0  0.6887733762160835  0.722635423067956  0.6569261144529079  1.0000
  C   C30       1.0  0.514604579355762  0.7554639757031155  0.6418393878538851  1.0000
  C   C31       1.0  0.31785900469010636  0.7300259499985985  0.5952116307213019  1.0000
  C   C32       1.0  0.30381791391981494  0.6742206845440392  0.5643089046106126  1.0000
  C   C33       1.0  0.4869066320956534  0.6420769210818591  0.5788064053815702  1.0000
  C   C34       1.0  0.6785914724169259  0.6669202930214482  0.6255516355951583  1.0000
  C   C35       1.0  0.4869940579964761  0.22992411125521528  0.9753931572526965  1.0000
  C   C36       1.0  0.30395765722419543  0.27657143943097406  0.00754221310155151  1.0000
  C   C37       1.0  0.3179954739063859  0.3014755491399157  0.06334932381884065  1.0000
  C   C38       1.0  0.51469257087318  0.2802906467505366  0.0887988551663028  1.0000
  C   C39       1.0  0.6888015367301037  0.2323721315016058  0.05596771783824292  1.0000
  C   C40       1.0  0.6786351281038777  0.2080258671463469  0.00024598380871770773  1.0000
  C   C41       1.0  0.53142951380147  0.3066298192017243  0.1479337221013779  1.0000
  C   C42       1.0  0.5314383844834296  0.3600256320389049  0.18538576454810848  1.0000
  C   C43       1.0  0.6888422354390683  0.4342854016507047  0.2773653852738533  1.0000
  C   C44       1.0  0.5146663511491097  0.38637274076026523  0.2445378474182434  1.0000
  C   C45       1.0  0.3179113474240083  0.3651854038679687  0.2699790852699877  1.0000
  C   C46       1.0  0.30386065000878665  0.39008887887435867  0.32578476876157236  1.0000
  C   C47       1.0  0.48694911049191353  0.43672990466419753  0.3579291351175869  1.0000
  C   C48       1.0  0.6786531588651528  0.4586280908289382  0.3330823452180525  1.0000
  Br  Br1       1.0  0.582629123769827  0.4172403505731595  0.7441050722330047  1.0000
  Br  Br2       1.0  0.5827162962878845  0.2494259497680602  0.5892221655079055  1.0000
  Br  Br3       1.0  0.582681659981084  0.8268667369473094  0.5827593218427082  1.0000
  Br  Br4       1.0  0.5826768087923213  0.8398064103567221  0.7505783181814182  1.0000
  Br  Br5       1.0  0.5826476936556161  0.25588886739938477  0.173132714406762  1.0000
  Br  Br6       1.0  0.5827440150273232  0.41077199537495807  0.16019938630297753  1.0000
  O   O1        1.0  0.7094641652322266  0.5565863377975404  0.5529717782589572  1.0000
  O   O2        1.0  0.7094671634308227  0.4963930050835117  0.4434176921694331  1.0000
  O   O3        1.0  0.7094628002252391  0.44703185692164754  0.5036094142736048  1.0000
  O   O4        1.0  0.2402026479988635  0.5607881192614955  0.5128089161308368  1.0000
  O   O5        1.0  0.24019893552829066  0.4871943155819095  0.5479740401167987  1.0000
  O   O6        1.0  0.24020933359365418  0.45202871868443856  0.4392161334687259  1.0000
  O   O7        1.0  0.7095069185164462  0.17027094491255215  0.8899123136007603  1.0000
  O   O8        1.0  0.7095063872419444  0.2196422773253276  0.8297271506967904  1.0000
  O   O9        1.0  0.709507469598826  0.11008903371894962  0.7803579682612423  1.0000
  O   O10       1.0  0.2402956289081004  0.21463516799858692  0.8941170645163298  1.0000
  O   O11       1.0  0.24029742041741994  0.10588431936132997  0.8205171251580694  1.0000
  O   O12       1.0  0.24028889677568085  0.17948182324040826  0.7853629515341893  1.0000
