data_image0
_chemical_formula_structural       Ag4H22C32S4N14
_chemical_formula_sum              "Ag4 H22 C32 S4 N14"
_cell_length_a       4.045730660176548
_cell_length_b       11.447109394918794
_cell_length_c       20.189201391917422
_cell_angle_alpha    89.99904250292457
_cell_angle_beta     90.98547485228401
_cell_angle_gamma    90.00111207418492

_space_group_name_H-M_alt    "P 1"
_space_group_IT_number       1

loop_
  _space_group_symop_operation_xyz
  'x, y, z'

loop_
  _atom_site_type_symbol
  _atom_site_label
  _atom_site_symmetry_multiplicity
  _atom_site_fract_x
  _atom_site_fract_y
  _atom_site_fract_z
  _atom_site_occupancy
  Ag  Ag1       1.0  0.1527366179559593  0.4771570990507571  0.09890153046800516  1.0000
  Ag  Ag2       1.0  0.8472162574655825  0.4771690657404689  0.4010997216025628  1.0000
  Ag  Ag3       1.0  0.8472778853557513  0.522830929707837  0.9010965879073108  1.0000
  Ag  Ag4       1.0  0.152746135712178  0.5228408023890907  0.5988999791462815  1.0000
  H   H1        1.0  0.3901758840439342  0.608408608937907  0.21261683543112742  1.0000
  H   H2        1.0  0.6097992661160773  0.6084135186601073  0.287379340385577  1.0000
  H   H3        1.0  0.6098142676257227  0.3915811669556959  0.7873776284110219  1.0000
  H   H4        1.0  0.39019067781284617  0.39158411945071236  0.7126171035220492  1.0000
  H   H5        1.0  0.5000125160533598  0.11503672750976793  0.25000217767297517  1.0000
  H   H6        1.0  0.5000161409659967  0.8849582898660343  0.7500024896096702  1.0000
  H   H7        1.0  0.1499376041981222  0.039578037685622285  0.19019132050298274  1.0000
  H   H8        1.0  0.8500337472741251  0.039577841284483405  0.3098153432236045  1.0000
  H   H9        1.0  0.8500249964864252  0.9604152323968761  0.8098064002213048  1.0000
  H   H10       1.0  0.14997935246002211  0.9604136816058427  0.6901961408259251  1.0000
  H   H11       1.0  0.8286886353184357  0.9506728684398664  0.09887522952108437  1.0000
  H   H12       1.0  0.1713553972948247  0.9506827716233701  0.4011310079042898  1.0000
  H   H13       1.0  0.1713164500165192  0.0493291376800826  0.9011183578201878  1.0000
  H   H14       1.0  0.828691524958323  0.04932709651443899  0.598888166527281  1.0000
  H   H15       1.0  0.6681939034086496  0.07765971888613879  0.9994041023828897  1.0000
  H   H16       1.0  0.33186111772596394  0.07769379854128292  0.5005925966785012  1.0000
  H   H17       1.0  0.3318562415980537  0.9223318044687048  0.0005843805488296998  1.0000
  H   H18       1.0  0.6681518273313997  0.9223457713910079  0.4994203722226869  1.0000
  H   H19       1.0  0.8285717855558374  0.28714259237207773  0.0011581958505928007  1.0000
  H   H20       1.0  0.17144903909899512  0.2871601232172337  0.49883106766249324  1.0000
  H   H21       1.0  0.171470737005663  0.7128559195921227  0.9988322103469184  1.0000
  H   H22       1.0  0.828531019383888  0.7128672166819497  0.5011653003676173  1.0000
  C   C1        1.0  0.4999820287524628  0.4455044350530031  0.2499983465481462  1.0000
  C   C2        1.0  0.5000103346554212  0.5544897087267415  0.7499986113360178  1.0000
  C   C3        1.0  0.499980709541603  0.20971390425093261  0.2499989939475355  1.0000
  C   C4        1.0  0.5000013517690788  0.7902819866023163  0.7500018483946885  1.0000
  C   C5        1.0  0.3358151654462275  0.27266445482517543  0.2000923749919891  1.0000
  C   C6        1.0  0.6641739769850403  0.27266850151621463  0.2999086776280463  1.0000
  C   C7        1.0  0.6641938749133586  0.7273253210086636  0.7999106557617278  1.0000
  C   C8        1.0  0.3358278049142598  0.7273308837278519  0.7000928112001359  1.0000
  C   C9        1.0  0.1538645897517483  0.21272372759301567  0.14537578194238415  1.0000
  C   C10       1.0  0.8461216543423689  0.21273093000237955  0.3546228620915527  1.0000
  C   C11       1.0  0.846125094074317  0.7872677953998275  0.8546231371217768  1.0000
  C   C12       1.0  0.1538874902033953  0.7872667080931561  0.645379178574174  1.0000
  C   C13       1.0  0.07628039410467842  0.09342780192025657  0.14797301871779203  1.0000
  C   C14       1.0  0.9236994085641116  0.09343124987470469  0.352027238037813  1.0000
  C   C15       1.0  0.9236725284534731  0.9065715832396535  0.8520226461371645  1.0000
  C   C16       1.0  0.07631673494732638  0.9065733768502611  0.6479788196035796  1.0000
  C   C17       1.0  0.8980436041742407  0.0426378022719618  0.09580629309290598  1.0000
  C   C18       1.0  0.1019780704435078  0.04264626161209859  0.4041937902601304  1.0000
  C   C19       1.0  0.10194176071245661  0.9573659509550866  0.9041866477378446  1.0000
  C   C20       1.0  0.8980378652102275  0.9573618594151511  0.5958142474672028  1.0000
  C   C21       1.0  0.8061920300184368  0.11217984650268419  0.041828856672630386  1.0000
  C   C22       1.0  0.1938086539042416  0.11220046819057218  0.4581703857410061  1.0000
  C   C23       1.0  0.19381310714058486  0.8878160445437827  0.9581642356717094  1.0000
  C   C24       1.0  0.8061778312571944  0.8878181357627284  0.541835444619778  1.0000
  C   C25       1.0  0.8944815355271913  0.22969103376368594  0.04234216790126059  1.0000
  C   C26       1.0  0.10549851473957968  0.22970494359327626  0.4576532901780296  1.0000
  C   C27       1.0  0.1055310163363004  0.7703057308906268  0.957650981242764  1.0000
  C   C28       1.0  0.8944858108586047  0.7703162811451847  0.5423495510824166  1.0000
  C   C29       1.0  0.6107686098444773  0.708900029981464  0.10776837475388845  1.0000
  C   C30       1.0  0.3892040920814069  0.7089108293756183  0.3922307629361795  1.0000
  C   C31       1.0  0.3892164947054297  0.291088872297756  0.8922270412743242  1.0000
  C   C32       1.0  0.6107973258095782  0.29108506148460117  0.6077741910874221  1.0000
  S   S1        1.0  0.6564137353402302  0.5889876109390356  0.06227410596907387  1.0000
  S   S2        1.0  0.34354018638422446  0.5889967641567964  0.4377260605101369  1.0000
  S   S3        1.0  0.3435861986654061  0.41100478572184335  0.9377214236503304  1.0000
  S   S4        1.0  0.6564263698396218  0.41100349446526957  0.5622811035365698  1.0000
  N   N1        1.0  0.3356808352891179  0.3901325385155161  0.20003478861853807  1.0000
  N   N2        1.0  0.6642949820394222  0.390135710864925  0.2999635268985798  1.0000
  N   N3        1.0  0.664306273024337  0.6098598580371899  0.7999651015580864  1.0000
  N   N4        1.0  0.3357071117868032  0.609863674423636  0.7000349917761424  1.0000
  N   N5        1.0  0.49997759973401645  0.5628196413164517  0.24999922526048823  1.0000
  N   N6        1.0  0.5000122401724739  0.4371762496135644  0.749998208706479  1.0000
  N   N7        1.0  0.06214525483897399  0.27905183861784616  0.09289406809163837  1.0000
  N   N8        1.0  0.937852164429074  0.2790625104857797  0.4071020312022425  1.0000
  N   N9        1.0  0.9378843379377454  0.7209423053084407  0.9071016887347124  1.0000
  N   N10       1.0  0.0621352043381549  0.7209491049296942  0.5928953837564633  1.0000
  N   N11       1.0  0.564345940486028  0.7951325454661742  0.13837679597423144  1.0000
  N   N12       1.0  0.4356481612303611  0.7951524234830102  0.3616266165624323  1.0000
  N   N13       1.0  0.4356908588801219  0.20485635695739296  0.8616209977827648  1.0000
  N   N14       1.0  0.5643166511690225  0.204844340902639  0.6383735982079626  1.0000
