data_image0
_chemical_formula_structural       Cd2H56C56N16Cl4O16
_chemical_formula_sum              "Cd2 H56 C56 N16 Cl4 O16"
_cell_length_a       8.842345321
_cell_length_b       10.47885039094564
_cell_length_c       17.934
_cell_angle_alpha    90.0
_cell_angle_beta     90.0
_cell_angle_gamma    98.68587433725665

_space_group_name_H-M_alt    "P 1"
_space_group_IT_number       1

loop_
  _space_group_symop_operation_xyz
  'x, y, z'

loop_
  _atom_site_type_symbol
  _atom_site_label
  _atom_site_symmetry_multiplicity
  _atom_site_fract_x
  _atom_site_fract_y
  _atom_site_fract_z
  _atom_site_occupancy
  Cd  Cd1       1.0  0.0  0.0  0.0  1.0000
  Cd  Cd2       1.0  0.4999999368648673  0.4999995167333253  0.5  1.0000
  H   H1        1.0  0.8876410079238185  0.7677404522768967  0.7344580127132829  1.0000
  H   H2        1.0  0.6123591482107925  0.7322600286728758  0.23445857031337172  1.0000
  H   H3        1.0  0.1123592113459253  0.23226051193955038  0.2655414296866283  1.0000
  H   H4        1.0  0.3876408982889501  0.2677399701686696  0.7655414296866283  1.0000
  H   H5        1.0  0.6839590114045463  0.8008045425127294  0.9873882011821139  1.0000
  H   H6        1.0  0.8160407991900627  0.6991940076872467  0.48738820118211384  1.0000
  H   H7        1.0  0.3160419932468699  0.1991944909539214  0.0126112412177974  1.0000
  H   H8        1.0  0.18395794361799744  0.3008050257794039  0.5126112412177977  1.0000
  H   H9        1.0  0.6433039476288869  0.6273141235768875  0.7690030110404822  1.0000
  H   H10       1.0  0.8566962085057243  0.872686357372885  0.269003011040482  1.0000
  H   H11       1.0  0.35669722979253043  0.3726858752646578  0.230996988959518  1.0000
  H   H12       1.0  0.14330270707234402  0.1273136414686675  0.730996988959518  1.0000
  H   H13       1.0  0.3788786463336677  0.737899748823466  0.9739355414296896  1.0000
  H   H14       1.0  0.12112098064269358  0.7621007321263065  0.47393609902977835  1.0000
  H   H15       1.0  0.621121572936076  0.2621012153929811  0.0260644585703105  1.0000
  H   H16       1.0  0.8788788930870484  0.2378983013403513  0.5260639009702217  1.0000
  H   H17       1.0  0.5086596905333494  0.6559519699081591  0.0227930188468832  1.0000
  H   H18       1.0  0.9913391619095863  0.8440475456667116  0.5227930188468832  1.0000
  H   H19       1.0  0.4913401831963924  0.3440470635584916  0.9772069811531168  1.0000
  H   H20       1.0  0.0086595808984811  0.1559514877999391  0.4772069811531169  1.0000
  H   H21       1.0  0.3326158837940056  0.5683239250965713  0.9891451990632306  1.0000
  H   H22       1.0  0.16738357041235472  0.9316755904783065  0.48914519906323056  1.0000
  H   H23       1.0  0.6673841627057373  0.4316760737449811  0.0108553585368583  1.0000
  H   H24       1.0  0.832616303317387  0.0683234429883512  0.5108548009367695  1.0000
  H   H25       1.0  0.022648195061023568  0.9163830867286435  0.8312010705921722  1.0000
  H   H26       1.0  0.4773514319153307  0.5836173942211289  0.331201628192261  1.0000
  H   H27       1.0  0.977352982360394  0.0836169121129089  0.16879892940782787  1.0000
  H   H28       1.0  0.5226474836627304  0.4163826046204235  0.668798371807739  1.0000
  H   H29       1.0  0.116385408826261  0.6443027910212749  0.8043966767034689  1.0000
  H   H30       1.0  0.3836140453800994  0.8556967245536029  0.3043961191033802  1.0000
  H   H31       1.0  0.8836146376734817  0.3556972078202705  0.1956038808966198  1.0000
  H   H32       1.0  0.6163860011196434  0.1443032742879495  0.6956038808966201  1.0000
  H   H33       1.0  0.10141570111122182  0.5235324606071643  0.7341240102598405  1.0000
  H   H34       1.0  0.3985848840168131  0.9764670549677134  0.2341240102598405  1.0000
  H   H35       1.0  0.898584345388521  0.4764675382343881  0.2658759897401595  1.0000
  H   H36       1.0  0.6014151624829296  0.023532943873839  0.7658765473402482  1.0000
  H   H37       1.0  0.2849834478012099  0.6068124568808813  0.7618467714954846  1.0000
  H   H38       1.0  0.2150163519451525  0.893188989443793  0.2618473290955734  1.0000
  H   H39       1.0  0.7150167714685338  0.39318850733556593  0.23815322850451542  1.0000
  H   H40       1.0  0.7849836945545903  0.1068110093977594  0.7381526709044266  1.0000
  H   H41       1.0  0.1864319500798501  0.24399947069189662  0.9159061001449729  1.0000
  H   H42       1.0  0.3135691177066989  0.2560000460414287  0.41590554254488415  1.0000
  H   H43       1.0  0.8135680964198926  0.7560005281496558  0.0840938998550271  1.0000
  H   H44       1.0  0.686430928793044  0.7439999528001167  0.5840944574551159  1.0000
  H   H45       1.0  0.8790415014137453  0.4654313724073447  0.8061458681833358  1.0000
  H   H46       1.0  0.6209604410710554  0.03457007507577  0.3061475409836092  1.0000
  H   H47       1.0  0.1209577597043179  0.5345705571839972  0.1938541318166642  1.0000
  H   H48       1.0  0.37904073635036895  0.9654299237657753  0.6938530166164796  1.0000
  H   H49       1.0  0.7190327456580691  0.1109746713302258  0.9227735028437608  1.0000
  H   H50       1.0  0.7809691968267316  0.38902677615288894  0.4227735028437607  1.0000
  H   H51       1.0  0.2809684317633483  0.8890253275113196  0.0772264971562393  1.0000
  H   H52       1.0  0.2190310224430121  0.6109741880635582  0.5772264971562393  1.0000
  H   H53       1.0  0.6626706174135251  0.2993154523127188  0.848244674919151  1.0000
  H   H54       1.0  0.8373300213796001  0.20068502979550124  0.3482452325192399  1.0000
  H   H55       1.0  0.33732942908621777  0.7006845465288265  0.15175532508084905  1.0000
  H   H56       1.0  0.1626700251201427  0.799314969046044  0.6517547674807602  1.0000
  C   C1        1.0  0.4996417054305979  0.6215566276888183  0.9041318166610921  1.0000
  C   C2        1.0  0.00035774877576242757  0.8784428878860596  0.4041334894613585  1.0000
  C   C3        1.0  0.5003585138391459  0.3784443365276289  0.0958676257388191  1.0000
  C   C4        1.0  0.9996421249539793  0.1215561455805911  0.5958665105386416  1.0000
  C   C5        1.0  0.6454168037390461  0.6996197380169988  0.8818534626965544  1.0000
  C   C6        1.0  0.8545823942438915  0.8003817083076683  0.3818534626965544  1.0000
  C   C7        1.0  0.3545830699906958  0.3003792954496518  0.1181470949035344  1.0000
  C   C8        1.0  0.1454166941041777  0.1996192559087788  0.6181470949035345  1.0000
  C   C9        1.0  0.8405550373330329  0.7708113098255183  0.7904561168729813  1.0000
  C   C10       1.0  0.6594439878799038  0.7291891711242613  0.2904566744730701  1.0000
  C   C11       1.0  0.15944518193671092  0.229189654390936  0.20954332552692995  1.0000
  C   C12       1.0  0.3405558858498381  0.2708098623423965  0.7095433255269299  1.0000
  C   C13       1.0  0.7272378537198563  0.7873993466874794  0.9315813538530194  1.0000
  C   C14       1.0  0.7727632605664354  0.7126001688873984  0.4315813538530193  1.0000
  C   C15       1.0  0.272763323701561  0.212600652154066  0.0684186461469807  1.0000
  C   C16       1.0  0.2272366131633063  0.2873988645792593  0.5684186461469807  1.0000
  C   C17       1.0  0.18485007317386964  0.4644264171391583  0.8392321846771509  1.0000
  C   C18       1.0  0.3151496909210039  0.0355721342192723  0.3392327422772397  1.0000
  C   C19       1.0  0.8151499733258732  0.5355735817023941  0.1607678153228491  1.0000
  C   C20       1.0  0.684850182808738  0.9644268992473854  0.6607672577227603  1.0000
  C   C21       1.0  0.7047125232809607  0.692986647096987  0.8095606111296975  1.0000
  C   C22       1.0  0.7952865019319759  0.8070138338527855  0.3095606111296973  1.0000
  C   C23       1.0  0.2952876959887831  0.3070143171194601  0.1904393888703027  1.0000
  C   C24       1.0  0.20471224087608422  0.1929851996138652  0.6904393888703027  1.0000
  C   C25       1.0  0.42600711123337476  0.6466737517692849  0.9767620162819242  1.0000
  C   C26       1.0  0.07399234297298563  0.853325763805593  0.4767631314821017  1.0000
  C   C27       1.0  0.573992935266368  0.3533262470722676  0.0232374261179871  1.0000
  C   C28       1.0  0.9260075307567561  0.1466732696610578  0.5232368685178984  1.0000
  C   C29       1.0  0.9156161905379606  0.8539947686094891  0.8438569198171066  1.0000
  C   C30       1.0  0.5843826619049752  0.6460047469653887  0.3438580350172842  1.0000
  C   C31       1.0  0.0843838559617822  0.1460052302320634  0.1561425225828046  1.0000
  C   C32       1.0  0.415615908133084  0.3539933211263673  0.6561430801828934  1.0000
  C   C33       1.0  0.1707787634811311  0.5649875894511709  0.7814163042266102  1.0000
  C   C34       1.0  0.3292206907252293  0.935011926123707  0.28141630422661024  1.0000
  C   C35       1.0  0.8292212830186116  0.4350124093903815  0.21858369577338985  1.0000
  C   C36       1.0  0.6707782248528318  0.0649880727178456  0.7185836957733898  1.0000
  C   C37       1.0  0.07127377825455031  0.25950146079429  0.9011152001784312  1.0000
  C   C38       1.0  0.4287263313803181  0.2404990213139371  0.4011157577785198  1.0000
  C   C39       1.0  0.9287253100935118  0.7404995034221571  0.0988853574216577  1.0000
  C   C40       1.0  0.5712737151194247  0.7595009775276154  0.5988847998215692  1.0000
  C   C41       1.0  0.051302439241361214  0.3689662857849925  0.8594251143080172  1.0000
  C   C42       1.0  0.4486984557751867  0.1310322655734382  0.3594256719081059  1.0000
  C   C43       1.0  0.948698910950057  0.6310346784314547  0.1405748856919828  1.0000
  C   C44       1.0  0.551301417954555  0.8689667678932124  0.6405748856919831  1.0000
  C   C45       1.0  0.9014909315523953  0.3834942126159149  0.8395081967213117  1.0000
  C   C46       1.0  0.598509880010731  0.11650723486720692  0.3395081967213116  1.0000
  C   C47       1.0  0.09850946048734951  0.616507716975434  0.1604923608787772  1.0000
  C   C48       1.0  0.40149016648901176  0.8834927639743384  0.6604923608787772  1.0000
  C   C49       1.0  0.8106105789511703  0.1854668599129425  0.903995762239319  1.0000
  C   C50       1.0  0.6893910179936285  0.3145326568203828  0.4039963198394077  1.0000
  C   C51       1.0  0.1893894675485654  0.8145331389286099  0.09600368016059241  1.0000
  C   C52       1.0  0.3106090285061143  0.6854673420211697  0.5960042377606811  1.0000
  C   C53       1.0  0.7804871555835788  0.290705273602839  0.8622973123675737  1.0000
  C   C54       1.0  0.7195144413612198  0.20929424313048633  0.3622978699676622  1.0000
  C   C55       1.0  0.21951402183783844  0.7092947252387063  0.13770324523252242  1.0000
  C   C56       1.0  0.28048560513852294  0.7907057557110663  0.6377026876324265  1.0000
  N   N1        1.0  0.8597983930104007  0.861394367198038  0.9133868629418985  1.0000
  N   N2        1.0  0.6402028940458849  0.6386061137517416  0.4133868629418984  1.0000
  N   N3        1.0  0.14020278441101652  0.1386056316435145  0.0866125794580128  1.0000
  N   N4        1.0  0.35979715245385085  0.3613938850898109  0.5866125794580128  1.0000
  N   N5        1.0  0.4391353116313965  0.5350860673792042  0.8567268874762988  1.0000
  N   N6        1.0  0.060866404418319996  0.9649134481956666  0.3567268874762988  1.0000
  N   N7        1.0  0.5608658657900207  0.4649139314623413  0.1432731125237012  1.0000
  N   N8        1.0  0.9391334693114216  0.0350855852709842  0.6432731125237012  1.0000
  N   N9        1.0  0.31047535076993427  0.45658564222249953  0.875131593621056  1.0000
  N   N10       1.0  0.18952554424661366  0.0434129091359239  0.3751321512211447  1.0000
  N   N11       1.0  0.6895246957298085  0.5434143566190457  0.12486784877885532  1.0000
  N   N12       1.0  0.810474329483128  0.9565861243307268  0.6248678487788553  1.0000
  N   N13       1.0  0.954807860235384  0.1705865712444705  0.923021077283373  1.0000
  N   N14       1.0  0.5451937367094217  0.3294129454888548  0.4230199620831954  1.0000
  N   N15       1.0  0.0451921862643587  0.8294134275970819  0.0769794803167159  1.0000
  N   N16       1.0  0.45480630979032094  0.6705870533526976  0.5769794803167159  1.0000
  Cl  Cl1       1.0  0.3519157117532999  0.0112861979254646  0.8816337682614019  1.0000
  Cl  Cl2       1.0  0.1480843978815756  0.4887142841827625  0.381633768261402  1.0000
  Cl  Cl3       1.0  0.648084334746443  0.9887138009160878  0.1183662317385981  1.0000
  Cl  Cl4       1.0  0.8519158213881682  0.5112866800336846  0.6183662317385982  1.0000
  O   O1        1.0  0.2502526415003103  0.9660815518215173  0.9451505520240886  1.0000
  O   O2        1.0  0.249746985476051  0.5339189291282551  0.4451505520240887  1.0000
  O   O3        1.0  0.7497462740777578  0.033918447020028  0.0548494479759114  1.0000
  O   O4        1.0  0.7502530610236918  0.4660810697132974  0.5548494479759114  1.0000
  O   O5        1.0  0.4092937341083244  0.1484225289751393  0.8913806178209003  1.0000
  O   O6        1.0  0.0907073336782247  0.351576987758186  0.3913806178209002  1.0000
  O   O7        1.0  0.590707270543092  0.8515765044915113  0.10861938217909993  1.0000
  O   O8        1.0  0.909292712821518  0.6484230110833664  0.6086193821790999  1.0000
  O   O9        1.0  0.2641847269276171  0.9916630212276303  0.8126151444184231  1.0000
  O   O10       1.0  0.23581472727874342  0.5083364943472404  0.3126151444184231  1.0000
  O   O11       1.0  0.7358153195721258  0.0083369776139151  0.1873848555815769  1.0000
  O   O12       1.0  0.7641853192209993  0.49166350449430496  0.6873848555815771  1.0000
  O   O13       1.0  0.4779133859332275  0.9373008300054337  0.880629530500727  1.0000
  O   O14       1.0  0.022086068273132805  0.562698685569444  0.3806300881008156  1.0000
  O   O15       1.0  0.5220866605665151  0.0626991688361187  0.11937046949927321  1.0000
  O   O16       1.0  0.9779139782266101  0.4373013132721084  0.6193704694992732  1.0000
