data_image0
_chemical_formula_structural       Ca2H44C24N4Cl4O8
_chemical_formula_sum              "Ca2 H44 C24 N4 Cl4 O8"
_cell_length_a       8.770544640008003
_cell_length_b       8.770532372712182
_cell_length_c       11.421498064484258
_cell_angle_alpha    78.83124854252662
_cell_angle_beta     78.83128169498552
_cell_angle_gamma    84.96173398252779

_space_group_name_H-M_alt    "P 1"
_space_group_IT_number       1

loop_
  _space_group_symop_operation_xyz
  'x, y, z'

loop_
  _atom_site_type_symbol
  _atom_site_label
  _atom_site_symmetry_multiplicity
  _atom_site_fract_x
  _atom_site_fract_y
  _atom_site_fract_z
  _atom_site_occupancy
  Ca  Ca1       1.0  0.5629024782670269  0.437097496420641  0.24999999665245556  1.0000
  Ca  Ca2       1.0  0.43709783089942533  0.5629021660243579  0.7499994948696624  1.0000
  H   H1        1.0  0.37538152153724264  0.6160388388033766  0.44810674904719155  1.0000
  H   H2        1.0  0.38396071138205906  0.6246186120381835  0.0518923663841022  1.0000
  H   H3        1.0  0.6246187272469113  0.3839619883114622  0.551893453096028  1.0000
  H   H4        1.0  0.6160383734601851  0.3753822128544542  0.9481062588364821  1.0000
  H   H5        1.0  0.0391625692269315  0.8045470089025171  0.3217789713086603  1.0000
  H   H6        1.0  0.19545291202594942  0.960837302891065  0.1782209432055026  1.0000
  H   H7        1.0  0.9608376786696979  0.19545381732498163  0.678220355557194  1.0000
  H   H8        1.0  0.8045473980280275  0.03916236044128141  0.8217794235939666  1.0000
  H   H9        1.0  0.9600627783225377  0.9539424462862273  0.4046434398436247  1.0000
  H   H10       1.0  0.0460578628312263  0.0399365023533562  0.09535659344670222  1.0000
  H   H11       1.0  0.03993630740723119  0.046058379493750606  0.5953560606543178  1.0000
  H   H12       1.0  0.9539435472322706  0.9600643243216637  0.9046425597870709  1.0000
  H   H13       1.0  0.8951264029252854  0.6064014719898267  0.4720108678344985  1.0000
  H   H14       1.0  0.3935982093754475  0.10487336134236361  0.02799009491691609  1.0000
  H   H15       1.0  0.10487274318677456  0.3935981891203113  0.5279879220423497  1.0000
  H   H16       1.0  0.6064031429683183  0.8951286326645231  0.972012394770033  1.0000
  H   H17       1.0  0.9305191948731206  0.7289943911812955  0.5692840383506591  1.0000
  H   H18       1.0  0.271006236563302  0.06948052398835358  0.9307166873050932  1.0000
  H   H19       1.0  0.0694799530139889  0.2710052717035225  0.4307165020809052  1.0000
  H   H20       1.0  0.7289962761722818  0.9305214686913671  0.06928387819505129  1.0000
  H   H21       1.0  0.3255708303505997  0.8381467021804169  0.3081742878325145  1.0000
  H   H22       1.0  0.16185383112134838  0.6744294209566633  0.19182463202704983  1.0000
  H   H23       1.0  0.6744294779283279  0.16185295937724223  0.6918243284122455  1.0000
  H   H24       1.0  0.8381465402024445  0.3255690785931833  0.808175899428676  1.0000
  H   H25       1.0  0.5170397930802578  0.8069180208316098  0.22727934204157663  1.0000
  H   H26       1.0  0.19308171627731235  0.48295994832872685  0.2727197984008924  1.0000
  H   H27       1.0  0.48295935391932665  0.19308164116586818  0.7727203231126297  1.0000
  H   H28       1.0  0.8069186541589488  0.5170385503337728  0.7272798577774822  1.0000
  H   H29       1.0  0.7823208075265596  0.9958625737887417  0.2625673289874372  1.0000
  H   H30       1.0  0.004136877346134296  0.21767932700674922  0.23743267974372634  1.0000
  H   H31       1.0  0.217679439482545  0.004138251551417201  0.7374311226010661  1.0000
  H   H32       1.0  0.9958623326983157  0.7823191729829161  0.7625689006214459  1.0000
  H   H33       1.0  0.7971095095548505  0.7942440294934697  0.25076733966953674  1.0000
  H   H34       1.0  0.2057564086937944  0.20289115908800429  0.24923246668386412  1.0000
  H   H35       1.0  0.20289073834178584  0.20575679673402897  0.7492319871963247  1.0000
  H   H36       1.0  0.7942427400808396  0.7971085046841608  0.7507689490250514  1.0000
  H   H37       1.0  0.4945753615535934  0.0134954315553131  0.3552587643593769  1.0000
  H   H38       1.0  0.986502961920856  0.5054251168535728  0.14474143058239253  1.0000
  H   H39       1.0  0.505424886343036  0.9865053946721859  0.6447405625064847  1.0000
  H   H40       1.0  0.013496186853778588  0.49457454691858516  0.8552599851265299  1.0000
  H   H41       1.0  0.42872443501556734  0.872088026982638  0.4875185910153662  1.0000
  H   H42       1.0  0.12791144389947814  0.5712741059347337  0.012482501965330088  1.0000
  H   H43       1.0  0.5712758128810619  0.1279127992448608  0.5124807358504881  1.0000
  H   H44       1.0  0.8720866039781112  0.4287243936074106  0.9875192520319376  1.0000
  C   C1        1.0  0.9343865583376284  0.8460939625309079  0.37831419847780273  1.0000
  C   C2        1.0  0.1539060146127369  0.06561351269817099  0.12168577577183731  1.0000
  C   C3        1.0  0.06561362740166028  0.15390802659175054  0.6216840884544368  1.0000
  C   C4        1.0  0.8460930728920742  0.934387314856494  0.8783154752808287  1.0000
  C   C5        1.0  0.8768195767120373  0.7259903210147057  0.49104492816996986  1.0000
  C   C6        1.0  0.27401039757983625  0.12317967635567578  0.008955940216978302  1.0000
  C   C7        1.0  0.1231818324639349  0.27401050477297406  0.5089533497864451  1.0000
  C   C8        1.0  0.7259911385733842  0.8768188263037118  0.9910470434387406  1.0000
  C   C9        1.0  0.4448611601589149  0.7938161152094451  0.3182173698178731  1.0000
  C   C10       1.0  0.20618363790075017  0.5551395060012112  0.18178162335595968  1.0000
  C   C11       1.0  0.5551391490075376  0.206183547235554  0.681782121704245  1.0000
  C   C12       1.0  0.7938166721532197  0.44486015733113493  0.8182187434435164  1.0000
  C   C13       1.0  0.7945337347777935  0.8765910165994556  0.3129194356768111  1.0000
  C   C14       1.0  0.1234086695533136  0.2054658234308988  0.1870806390965356  1.0000
  C   C15       1.0  0.20546645096150223  0.1234109725232031  0.6870788512554356  1.0000
  C   C16       1.0  0.8765904792213134  0.7945338403412593  0.8129207766123798  1.0000
  C   C17       1.0  0.703352284986849  0.7608113311647883  0.514436513651397  1.0000
  C   C18       1.0  0.23918833589657135  0.2966480402412656  0.9855642352383855  1.0000
  C   C19       1.0  0.2966470467097082  0.23918484037253757  0.4855645207489303  1.0000
  C   C20       1.0  0.760815400275696  0.7033527891034768  0.014436321285927424  1.0000
  C   C21       1.0  0.5027768873285224  0.8896310657456185  0.39727121048211705  1.0000
  C   C22       1.0  0.11036904351161783  0.49722443823061707  0.1027293777649305  1.0000
  C   C23       1.0  0.49722452362249214  0.11036976181674872  0.6027288180290143  1.0000
  C   C24       1.0  0.8896301656453075  0.5027740608717011  0.8972713273228834  1.0000
  N   N1        1.0  0.6619076420290712  0.8466618243911694  0.4132845987896943  1.0000
  N   N2        1.0  0.15333640901629758  0.3380927786558914  0.08671467682565039  1.0000
  N   N3        1.0  0.33809376625937654  0.1533390005091704  0.5867128038893696  1.0000
  N   N4        1.0  0.846660416312126  0.6619068851085643  0.9132879614247998  1.0000
  Cl  Cl1       1.0  0.7815315199946652  0.3683617723521167  0.3924777645924209  1.0000
  Cl  Cl2       1.0  0.6316397168092108  0.2184674806892914  0.10752305647232421  1.0000
  Cl  Cl3       1.0  0.21846524583898483  0.6316390569695259  0.6075264595564889  1.0000
  Cl  Cl4       1.0  0.3683604671550355  0.7815345066586873  0.8924734799052062  1.0000
  O   O1        1.0  0.6117634209618358  0.7168834442133161  0.6119674458196229  1.0000
  O   O2        1.0  0.28311697581639095  0.38823521775702835  0.8880325614863978  1.0000
  O   O3        1.0  0.38824165408656347  0.2831138871327211  0.38802642882251365  1.0000
  O   O4        1.0  0.7168859098632369  0.6117597975517481  0.11197424361543545  1.0000
  O   O5        1.0  0.44752199348481264  0.6310814405463745  0.3678612599850055  1.0000
  O   O6        1.0  0.3689182168936042  0.5524760666420433  0.1321381556341095  1.0000
  O   O7        1.0  0.5524771535147721  0.3689182214511036  0.6321384051691936  1.0000
  O   O8        1.0  0.6310821535426642  0.4475224320204633  0.8678615005442653  1.0000
