data_image0
_chemical_formula_structural       Cu3H24C39N9
_chemical_formula_sum              "Cu3 H24 C39 N9"
_cell_length_a       9.076704332860048
_cell_length_b       9.076684657859966
_cell_length_c       11.598961490194878
_cell_angle_alpha    90.00062992248154
_cell_angle_beta     89.99948902421613
_cell_angle_gamma    120.00004945809985

_space_group_name_H-M_alt    "P 1"
_space_group_IT_number       1

loop_
  _space_group_symop_operation_xyz
  'x, y, z'

loop_
  _atom_site_type_symbol
  _atom_site_label
  _atom_site_symmetry_multiplicity
  _atom_site_fract_x
  _atom_site_fract_y
  _atom_site_fract_z
  _atom_site_occupancy
  Cu  Cu1       1.0  0.9942938637565604  0.19180009598684222  0.009826612094734299  1.0000
  Cu  Cu2       1.0  0.8081915659174115  0.8025026961366419  0.3431588874229377  1.0000
  Cu  Cu3       1.0  0.1975003572611129  0.0057052480941877015  0.6764883329701873  1.0000
  H   H1        1.0  0.6220494070499072  0.0711145573065224  0.9103114839475596  1.0000
  H   H2        1.0  0.9288804940439659  0.5509301296085666  0.24364156710575458  1.0000
  H   H3        1.0  0.449072393767672  0.37794885521947913  0.5769715109336815  1.0000
  H   H4        1.0  0.4484317304253622  0.21416001782696262  0.8838500052365462  1.0000
  H   H5        1.0  0.7858434395251237  0.2342682017104777  0.21718403289550994  1.0000
  H   H6        1.0  0.7657339545924627  0.5515714861524043  0.5505135899140968  1.0000
  H   H7        1.0  0.5872864314355654  0.5287641669532802  0.9190057379933448  1.0000
  H   H8        1.0  0.4712426024276439  0.058520962947227355  0.25234271636639954  1.0000
  H   H9        1.0  0.9414818322258045  0.41271974681806256  0.5856749959176781  1.0000
  H   H10       1.0  0.8578660862133702  0.8066799119338977  0.9693613420187505  1.0000
  H   H11       1.0  0.1933238640593231  0.05118439126792399  0.30269818311041524  1.0000
  H   H12       1.0  0.9488129567305138  0.1421313378980359  0.6360352086746204  1.0000
  H   H13       1.0  0.377052925140056  0.4426099127342125  0.08909216109229588  1.0000
  H   H14       1.0  0.5573866502794759  0.9344415184605733  0.42242606691181817  1.0000
  H   H15       1.0  0.06555946322435359  0.6229527806276636  0.7557597672649551  1.0000
  H   H16       1.0  0.5563931131848532  0.759576692725211  0.11406495158805541  1.0000
  H   H17       1.0  0.24042013186100067  0.796817556971497  0.4474012528102094  1.0000
  H   H18       1.0  0.2031764319012338  0.4436063178448107  0.7807383264019379  1.0000
  H   H19       1.0  0.4223408291212182  0.9395185460541808  0.0799157337112817  1.0000
  H   H20       1.0  0.060480416538489096  0.4828233980893372  0.41325179363672504  1.0000
  H   H21       1.0  0.5171718947845464  0.5776548663272364  0.7465864520510551  1.0000
  H   H22       1.0  0.1549673592136146  0.9529011468518076  0.029019946112235604  1.0000
  H   H23       1.0  0.04709512367345781  0.20205881278177878  0.36235641953950193  1.0000
  H   H24       1.0  0.7979361680999517  0.8450309027759955  0.6956941168625476  1.0000
  C   C1        1.0  0.9069225957298882  0.04099218084001419  0.132226024519305  1.0000
  C   C2        1.0  0.9590069554752817  0.8659308198778317  0.4655583745873527  1.0000
  C   C3        1.0  0.13407328078766773  0.09308226723244666  0.7988861003266763  1.0000
  C   C4        1.0  0.6774091553941588  0.20712439925131307  0.926519358439407  1.0000
  C   C5        1.0  0.792882204489665  0.4702834763991887  0.25985177600080783  1.0000
  C   C6        1.0  0.5297148666187823  0.32259509487991506  0.5931836433462934  1.0000
  C   C7        1.0  0.5809557438137034  0.28788520222455094  0.9113626587698535  1.0000
  C   C8        1.0  0.7121177645591957  0.2930724999155885  0.24469649488581519  1.0000
  C   C9        1.0  0.7069323781331889  0.41904327464939667  0.5780260361388087  1.0000
  C   C10       1.0  0.6579648245799917  0.461688142203762  0.9298915164633286  1.0000
  C   C11       1.0  0.5383172696561402  0.19627450321627984  0.2632285284433351  1.0000
  C   C12       1.0  0.8037258420790537  0.34204084776399657  0.5965632258536999  1.0000
  C   C13       1.0  0.8304034199202093  0.5536300542497655  0.9639521063077937  1.0000
  C   C14       1.0  0.44637034330011016  0.27676397671388026  0.29729259743255204  1.0000
  C   C15       1.0  0.7232392745602213  0.1696090604341265  0.6306235773582998  1.0000
  C   C16       1.0  0.9152189211080995  0.45946939411300736  0.9805546087810414  1.0000
  C   C17       1.0  0.5405296138282979  0.4557486304628569  0.31389107111996845  1.0000
  C   C18       1.0  0.5442497019689867  0.08477577248536507  0.647221887163461  1.0000
  C   C19       1.0  0.9218864306418627  0.7335017823604841  0.9825637046168367  1.0000
  C   C20       1.0  0.26650363442413294  0.1883833035167085  0.31590228204170506  1.0000
  C   C21       1.0  0.811610699483076  0.07810620081455255  0.6492340170021152  1.0000
  C   C22       1.0  0.32407098927350114  0.5253672760440719  0.07316628076275579  1.0000
  C   C23       1.0  0.474631728860409  0.7987046816504132  0.40649676441925925  1.0000
  C   C24       1.0  0.2012921704520921  0.6759340638196746  0.7398261889797837  1.0000
  C   C25       1.0  0.42369974325405474  0.7025357387736829  0.08737572014896951  1.0000
  C   C26       1.0  0.29745934416295927  0.7211588536873914  0.42070695432445154  1.0000
  C   C27       1.0  0.27883920462129913  0.576303740839698  0.7540388246459956  1.0000
  C   C28       1.0  0.3492933319148718  0.8017929495312967  0.06926617108275929  1.0000
  C   C29       1.0  0.19820784447866663  0.5475022161781807  0.4025980416922721  1.0000
  C   C30       1.0  0.4524912458539986  0.6507044748363525  0.7359300088346502  1.0000
  C   C31       1.0  0.17676518747407488  0.7241572590867161  0.035718620183580206  1.0000
  C   C32       1.0  0.2758429169748808  0.4526092769695963  0.3690555600351643  1.0000
  C   C33       1.0  0.5473860384797644  0.823228891990652  0.7023843076411467  1.0000
  C   C34       1.0  0.0885742517650742  0.5449111873091111  0.020045206922297602  1.0000
  C   C35       1.0  0.4550878786750587  0.5436631220143793  0.35337891036856217  1.0000
  C   C36       1.0  0.456333073730114  0.9114243296297526  0.6867068845002465  1.0000
  C   C37       1.0  0.08846345011270525  0.8155529701324367  0.0163994956937685  1.0000
  C   C38       1.0  0.18445522238570797  0.2729066444965936  0.3497370022718442  1.0000
  C   C39       1.0  0.7270875790956454  0.9115499800580407  0.6830668013740179  1.0000
  N   N1        1.0  0.8563807341475776  0.9466346158638852  0.21119407429596754  1.0000
  N   N2        1.0  0.053364325329681585  0.9097415222586204  0.5445197213771708  1.0000
  N   N3        1.0  0.09024890093312621  0.14362098082964533  0.8778642346049496  1.0000
  N   N4        1.0  0.8395461223918518  0.2891425013046172  0.9607722008064387  1.0000
  N   N5        1.0  0.7108582209264825  0.5504041313861234  0.29410548019546207  1.0000
  N   N6        1.0  0.44959464802179383  0.16045505366952978  0.6274362964993756  1.0000
  N   N7        1.0  0.161310917097886  0.44776002007936455  0.04054119156123899  1.0000
  N   N8        1.0  0.5522316709018186  0.7135442667913096  0.3738699240510854  1.0000
  N   N9        1.0  0.2864557971095819  0.8386891438373637  0.707198666000835  1.0000
