data_image0
_chemical_formula_structural       Zn2H16C20Br4N4
_chemical_formula_sum              "Zn2 H16 C20 Br4 N4"
_cell_length_a       4.936312643456365
_cell_length_b       8.527796590076877
_cell_length_c       14.614802089373761
_cell_angle_alpha    76.72542379672167
_cell_angle_beta     80.2293030659847
_cell_angle_gamma    73.18238350700348

_space_group_name_H-M_alt    "P 1"
_space_group_IT_number       1

loop_
  _space_group_symop_operation_xyz
  'x, y, z'

loop_
  _atom_site_type_symbol
  _atom_site_label
  _atom_site_symmetry_multiplicity
  _atom_site_fract_x
  _atom_site_fract_y
  _atom_site_fract_z
  _atom_site_occupancy
  Zn  Zn1       1.0  0.43872551238836666  0.24979017826191097  0.7498585212135467  1.0000
  Zn  Zn2       1.0  0.5612644166128864  0.7502094156841325  0.25014173418109925  1.0000
  H   H1        1.0  0.366455472213012  0.9194607027787927  0.7382658592235315  1.0000
  H   H2        1.0  0.027623787211808883  0.5798800042018614  0.7621552349532478  1.0000
  H   H3        1.0  0.6335338930262965  0.0805401389527773  0.26173427628303614  1.0000
  H   H4        1.0  0.9723689539994925  0.42010969952946914  0.2378436604441703  1.0000
  H   H5        1.0  0.166183328399882  0.8004649002063219  0.6355178661378814  1.0000
  H   H6        1.0  0.6057104973913928  0.6998252195220405  0.8651092354701291  1.0000
  H   H7        1.0  0.8338199839585059  0.19952854353323352  0.3644807835642041  1.0000
  H   H8        1.0  0.3942829049836051  0.30017593256724956  0.13488310626516412  1.0000
  H   H9        1.0  0.025358029648565504  0.28307736104097353  0.4459831797303905  1.0000
  H   H10       1.0  0.7514865027306642  0.2161995320728565  0.053690521571020645  1.0000
  H   H11       1.0  0.9746587213674831  0.7169199318509029  0.5540124869416728  1.0000
  H   H12       1.0  0.2485086550852455  0.7838122482026934  0.9463158913997418  1.0000
  H   H13       1.0  0.2418454378638516  0.3779908153240897  0.556248592005751  1.0000
  H   H14       1.0  0.1739219889875091  0.12097577668051678  0.9438084348450672  1.0000
  H   H15       1.0  0.7581554729307175  0.6220099957730838  0.4437523418033962  1.0000
  H   H16       1.0  0.8260860195803874  0.8790272162816352  0.05620016692810034  1.0000
  C   C1        1.0  0.28574147767922414  0.9954239973279403  0.6729540883656354  1.0000
  C   C2        1.0  0.9560741820556871  0.5040868095661256  0.8274053316365978  1.0000
  C   C3        1.0  0.7142575022564801  0.004573167587913898  0.3270447529554446  1.0000
  C   C4        1.0  0.04393279454861005  0.4959092337828536  0.17259047400505517  1.0000
  C   C5        1.0  0.1704361022386326  0.9306824262189368  0.6145987640302123  1.0000
  C   C6        1.0  0.7177770757797437  0.5693055489412515  0.8857814278807438  1.0000
  C   C7        1.0  0.8295776281511282  0.0693134824572894  0.3854004441982966  1.0000
  C   C8        1.0  0.28221346568432903  0.43069914529100123  0.1142156106268715  1.0000
  C   C9        1.0  0.06639829541030937  0.031983121946431894  0.5311275640360121  1.0000
  C   C10       1.0  0.6297311355458678  0.46789284465515385  0.9689366046399782  1.0000
  C   C11       1.0  0.9336128359438192  0.9680154613341899  0.4688668992629985  1.0000
  C   C12       1.0  0.370255484141758  0.5321130478963242  0.031061549596472608  1.0000
  C   C13       1.0  0.09595710794629046  0.19589075539902015  0.5096979303747631  1.0000
  C   C14       1.0  0.800215154004363  0.30356271131935847  0.9901920228475091  1.0000
  C   C15       1.0  0.9040526940673674  0.8041027003093575  0.49030043414494173  1.0000
  C   C16       1.0  0.19977837918408875  0.696447972917973  0.009810689191681371  1.0000
  C   C17       1.0  0.21466763331111616  0.2518651957252445  0.5714932185375189  1.0000
  C   C18       1.0  0.037033635803140945  0.2472689483699426  0.9285158026637887  1.0000
  C   C19       1.0  0.7853306297469379  0.748131941904589  0.4285063071172317  1.0000
  C   C20       1.0  0.9629730543687103  0.7527354986970992  0.07148748973428815  1.0000
  Br  Br1       1.0  0.7214460612319158  0.008783179027716402  0.8429108591181417  1.0000
  Br  Br2       1.0  0.5724771839594139  0.4911987963247881  0.6566271567843173  1.0000
  Br  Br3       1.0  0.27854505719340505  0.9912275699931214  0.15709021815283108  1.0000
  Br  Br4       1.0  0.4275256690518534  0.5087908222000979  0.34337390558303577  1.0000
  N   N1        1.0  0.30533103272911477  0.15420336583012073  0.6527874802386364  1.0000
  N   N2        1.0  0.1127406793532657  0.34491082316571214  0.8473771703695263  1.0000
  N   N3        1.0  0.694666207219882  0.8457911943705769  0.34721433819330366  1.0000
  N   N4        1.0  0.8872551887406323  0.6550973331088059  0.15262659882992588  1.0000
