data_image0
_chemical_formula_structural       Cd4H48C40N8O32
_chemical_formula_sum              "Cd4 H48 C40 N8 O32"
_cell_length_a       7.55821536749085
_cell_length_b       10.681083945101411
_cell_length_c       17.874101623476676
_cell_angle_alpha    90.0006994840586
_cell_angle_beta     89.99855559567006
_cell_angle_gamma    104.75907503933831

_space_group_name_H-M_alt    "P 1"
_space_group_IT_number       1

loop_
  _space_group_symop_operation_xyz
  'x, y, z'

loop_
  _atom_site_type_symbol
  _atom_site_label
  _atom_site_symmetry_multiplicity
  _atom_site_fract_x
  _atom_site_fract_y
  _atom_site_fract_z
  _atom_site_occupancy
  Cd  Cd1       1.0  0.9060297731584299  0.7564115130298604  0.9624144029835692  1.0000
  Cd  Cd2       1.0  0.5939688104230498  0.2435836553285924  0.4624086402608397  1.0000
  Cd  Cd3       1.0  0.09396720222220269  0.24358703724415418  0.03758382009886671  1.0000
  Cd  Cd4       1.0  0.4060321266258741  0.7564148744174164  0.5375907017375994  1.0000
  H   H1        1.0  0.7839581044556495  0.9406072745179228  0.0516499629761356  1.0000
  H   H2        1.0  0.7160273449123336  0.05939746055980781  0.5516487145325543  1.0000
  H   H3        1.0  0.2160435483670611  0.0593931915435277  0.9483504979629488  1.0000
  H   H4        1.0  0.28397527057440913  0.9406020305022055  0.44835174639776904  1.0000
  H   H5        1.0  0.59161216388938  0.8494540824225538  0.0187578181186652  1.0000
  H   H6        1.0  0.908381738284355  0.1505396118959936  0.5187546158961922  1.0000
  H   H7        1.0  0.40838781044894995  0.15054542233146861  0.9812432022945714  1.0000
  H   H8        1.0  0.09162423414011313  0.8494618017865823  0.4812458450231887  1.0000
  H   H9        1.0  0.13304051982220236  0.6404689725840528  0.8661738491723624  1.0000
  H   H10       1.0  0.36694494524180504  0.35951590570056885  0.3661755197485235  1.0000
  H   H11       1.0  0.8669574181758933  0.3595286026991076  0.1338260523073487  1.0000
  H   H12       1.0  0.6330556339047034  0.6404816558905821  0.6338238222482746  1.0000
  H   H13       1.0  0.22782788207295818  0.6996608375488051  0.9437080843854347  1.0000
  H   H14       1.0  0.27216480791762626  0.3003238036866733  0.4437092179010805  1.0000
  H   H15       1.0  0.772171734409518  0.3003376990417763  0.0562912576201171  1.0000
  H   H16       1.0  0.7278378075691164  0.6996756873753398  0.556291243029243  1.0000
  H   H17       1.0  0.7505791676647816  0.493138887569337  0.9758527055375481  1.0000
  H   H18       1.0  0.749426346850619  0.5068592884110288  0.47584441561528484  1.0000
  H   H19       1.0  0.2494172028766286  0.5068616058732757  0.0241483148986816  1.0000
  H   H20       1.0  0.2505781939331372  0.49313825265782907  0.5241571642348717  1.0000
  H   H21       1.0  0.3183321228247139  0.8371318578233301  0.3283921447246811  1.0000
  H   H22       1.0  0.1816765678300598  0.16285252465609548  0.8283914681752407  1.0000
  H   H23       1.0  0.6816631740870562  0.1628657311404069  0.6716060783632258  1.0000
  H   H24       1.0  0.8183159521018197  0.8371518687756776  0.1716078738900038  1.0000
  H   H25       1.0  0.6077510712246622  0.16085926639583895  0.1963120905966989  1.0000
  H   H26       1.0  0.892243209787054  0.8391245501406671  0.6963191702855482  1.0000
  H   H27       1.0  0.3922460151371114  0.8391431633536331  0.8036883703741395  1.0000
  H   H28       1.0  0.10776336743006712  0.1608749203818931  0.3036801716860681  1.0000
  H   H29       1.0  0.4985683471996865  0.03788121683587781  0.07940900579287562  1.0000
  H   H30       1.0  0.0013995717477826553  0.9620853828298198  0.5794116780889951  1.0000
  H   H31       1.0  0.5014293439392148  0.9621192697564354  0.9205908956988865  1.0000
  H   H32       1.0  0.9986102513483176  0.0379121308521562  0.4205882233266607  1.0000
  H   H33       1.0  0.5992544790219584  0.5482461517605373  0.8702344268441351  1.0000
  H   H34       1.0  0.9007800861431645  0.4517420941291589  0.3702330569659651  1.0000
  H   H35       1.0  0.4007424962810617  0.4517523985277805  0.12976659358169232  1.0000
  H   H36       1.0  0.09922085087471537  0.5482564356225693  0.6297674039698293  1.0000
  H   H37       1.0  0.4935067319766092  0.6431522494882316  0.9283518316431412  1.0000
  H   H38       1.0  0.00650948170871859  0.35683987733764866  0.428357353761605  1.0000
  H   H39       1.0  0.5064909591622921  0.3568482371040886  0.0716480698486137  1.0000
  H   H40       1.0  0.9934894189378769  0.6431567229489376  0.5716431071780192  1.0000
  H   H41       1.0  0.5702078400910651  0.6520557364772017  0.0686142570854003  1.0000
  H   H42       1.0  0.9297737799141714  0.3479520970494079  0.5686145173533108  1.0000
  H   H43       1.0  0.42978853045034526  0.3479447569654113  0.9313867633508296  1.0000
  H   H44       1.0  0.0702281197522154  0.6520454577057464  0.431386503042404  1.0000
  H   H45       1.0  0.7292903821939163  0.5660062829584191  0.0987796369099314  1.0000
  H   H46       1.0  0.7706862071998374  0.43399993632740314  0.5987738477256528  1.0000
  H   H47       1.0  0.27070598834750115  0.43399421048419384  0.9012213835262984  1.0000
  H   H48       1.0  0.22931472980251752  0.5659985934271887  0.4012271726788228  1.0000
  C   C1        1.0  0.2565531369223778  0.8070225214713604  0.06664662309437831  1.0000
  C   C2        1.0  0.24342963387119454  0.19295357448153547  0.5666449455094025  1.0000
  C   C3        1.0  0.7434494786264595  0.19297696957921315  0.9333515999612273  1.0000
  C   C4        1.0  0.7565763385687987  0.8070478391981766  0.4333549559413044  1.0000
  C   C5        1.0  0.34694267837446807  0.8678570639926377  0.1375120213369456  1.0000
  C   C6        1.0  0.15304683578800388  0.1321235811892478  0.6375091879070212  1.0000
  C   C7        1.0  0.6530544080183489  0.13214536575111419  0.8624873206965377  1.0000
  C   C8        1.0  0.8469541012453943  0.8678749485596173  0.3624907135600992  1.0000
  C   C9        1.0  0.30224614954622797  0.8129605103479348  0.20867199918514256  1.0000
  C   C10       1.0  0.1977385892174937  0.18701504659339463  0.7086679712430168  1.0000
  C   C11       1.0  0.6977489004753111  0.18703998993067472  0.7913273428521708  1.0000
  C   C12       1.0  0.8022607803747521  0.812986401312067  0.291332489711948  1.0000
  C   C13       1.0  0.3568794706278381  0.8822496874132353  0.2742165139927479  1.0000
  C   C14       1.0  0.143122982186334  0.11773418909010763  0.7742164785296524  1.0000
  C   C15       1.0  0.6431185784290107  0.11775176733107882  0.7257828280319814  1.0000
  C   C16       1.0  0.8568757826598272  0.8822692019667856  0.22578342296704085  1.0000
  C   C17       1.0  0.4645768270039241  0.0095827295374207  0.26919148947074945  1.0000
  C   C18       1.0  0.03542218984070187  0.9903982048076969  0.7691900887952414  1.0000
  C   C19       1.0  0.5354188277636993  0.9904158275897574  0.7308084120248353  1.0000
  C   C20       1.0  0.9645755013292431  0.009602281778896299  0.2308086937591654  1.0000
  C   C21       1.0  0.520724670758888  0.06256430558499912  0.1988740029024214  1.0000
  C   C22       1.0  0.9792666048818075  0.9374117919045445  0.6988808721181458  1.0000
  C   C23       1.0  0.47927241560288547  0.9374381241644728  0.8011264580684241  1.0000
  C   C24       1.0  0.020736368522875595  0.06258866730946978  0.3011190293451378  1.0000
  C   C25       1.0  0.46155527176536276  0.9929976232092058  0.1337802107824828  1.0000
  C   C26       1.0  0.0384320550644546  0.006980086223123299  0.6337821620509702  1.0000
  C   C27       1.0  0.5384404940454885  0.007004813381982399  0.8662196907267941  1.0000
  C   C28       1.0  0.9615735594886418  0.9930203592988748  0.3662171799294072  1.0000
  C   C29       1.0  0.5145603255724893  0.09235684659672219  0.337241939132582  1.0000
  C   C30       1.0  0.985443660718005  0.9076292899729952  0.8372474036697355  1.0000
  C   C31       1.0  0.48543797031250324  0.907641696844159  0.6627585218174517  1.0000
  C   C32       1.0  0.014556066807699598  0.0923731260816041  0.16275193834952262  1.0000
  C   C33       1.0  0.5410553009922908  0.5542488264334652  0.9259203573904315  1.0000
  C   C34       1.0  0.9589574394083442  0.4457429959273115  0.4259199967562708  1.0000
  C   C35       1.0  0.45894071166222977  0.44575069885142676  0.0740801035754757  1.0000
  C   C36       1.0  0.04104481817597624  0.5542555269798443  0.5740804641724113  1.0000
  C   C37       1.0  0.6166302358489945  0.5638419757405161  0.0598065269008998  1.0000
  C   C38       1.0  0.8833515398029376  0.43615412933543496  0.5598051383008524  1.0000
  C   C39       1.0  0.38336481412597584  0.4361585245466699  0.9401944935424495  1.0000
  C   C40       1.0  0.1166513225429924  0.5638424504174254  0.44019532261742  1.0000
  N   N1        1.0  0.1958252041401565  0.6777961040244307  0.21491238637425883  1.0000
  N   N2        1.0  0.30415726302781826  0.3221814667167068  0.7149082113362297  1.0000
  N   N3        1.0  0.804171771224951  0.32220244625244737  0.7850863961768512  1.0000
  N   N4        1.0  0.6958437850643406  0.6778209424933195  0.2850911306759087  1.0000
  N   N5        1.0  0.6885439084680343  0.5673645359080197  0.9823672059235734  1.0000
  N   N6        1.0  0.8114578875371236  0.4326317840726901  0.4823621786213367  1.0000
  N   N7        1.0  0.3114534247529265  0.4326349825322994  0.0176332550352143  1.0000
  N   N8        1.0  0.188541728898791  0.5673667525264748  0.5176388417902518  1.0000
  O   O1        1.0  0.08374997831916173  0.7837009034209287  0.0665473202504359  1.0000
  O   O2        1.0  0.4162425971349819  0.21629454093041292  0.5665467559287336  1.0000
  O   O3        1.0  0.9162521683150685  0.2162937400050495  0.9334497838524811  1.0000
  O   O4        1.0  0.5837597714925736  0.7837078614407533  0.4334537050136404  1.0000
  O   O5        1.0  0.3577290992688518  0.7911522930609252  0.0121459395374046  1.0000
  O   O6        1.0  0.14226197798276982  0.2088232182965087  0.512143787069583  1.0000
  O   O7        1.0  0.6422751946867535  0.2088481593113727  0.9878545213874406  1.0000
  O   O8        1.0  0.8577387121914409  0.791178222761516  0.4878561144095812  1.0000
  O   O9        1.0  0.6394222427930528  0.1970624302526646  0.332523654979859  1.0000
  O   O10       1.0  0.8605806846806843  0.8029236649334094  0.8325313675155002  1.0000
  O   O11       1.0  0.3605770157870081  0.8029351381830664  0.6674756870240587  1.0000
  O   O12       1.0  0.13942096817307711  0.19707680112231427  0.16746797448622894  1.0000
  O   O13       1.0  0.42419331223889856  0.057943000244499394  0.39793066244880754  1.0000
  O   O14       1.0  0.07581138386027671  0.9420488839932943  0.8979346259081639  1.0000
  O   O15       1.0  0.5758079826658786  0.9420564976649503  0.6020703579573164  1.0000
  O   O16       1.0  0.924187380954841  0.0579545070693186  0.10206639452587751  1.0000
  O   O17       1.0  0.10644805861916497  0.6442666141067832  0.2731679783532641  1.0000
  O   O18       1.0  0.3935647954224207  0.3557094378810958  0.7731463062019017  1.0000
  O   O19       1.0  0.8935511999608963  0.3557309543289477  0.7268313636506465  1.0000
  O   O20       1.0  0.6064342162829348  0.6442910418666443  0.22685359528273352  1.0000
  O   O21       1.0  0.20201082501600354  0.6035871247363715  0.1620512412340602  1.0000
  O   O22       1.0  0.2979261833251741  0.39639500642400805  0.6620476796448216  1.0000
  O   O23       1.0  0.7979871130131359  0.39641045054107604  0.8379475413082957  1.0000
  O   O24       1.0  0.7020771479819315  0.6036064209448567  0.3379522218201103  1.0000
  O   O25       1.0  0.7258966276153985  0.8807974655130266  0.0109156994811954  1.0000
  O   O26       1.0  0.7740943279487379  0.11920489625340736  0.5109142680760782  1.0000
  O   O27       1.0  0.27410562993788556  0.1192010573998488  0.9890858803848417  1.0000
  O   O28       1.0  0.22590936127630812  0.8807974992674659  0.489085073921828  1.0000
  O   O29       1.0  0.1214311040369935  0.6357259252694263  0.9203875278518155  1.0000
  O   O30       1.0  0.378553278166109  0.364257557284823  0.42038687081303294  1.0000
  O   O31       1.0  0.8785675497659399  0.36427358632345624  0.07961237363117848  1.0000
  O   O32       1.0  0.6214486215468398  0.635739997461755  0.5796124711766453  1.0000
