data_image0
_chemical_formula_structural       Ti8H16C8O36
_chemical_formula_sum              "Ti8 H16 C8 O36"
_cell_length_a       9.415712397421098
_cell_length_b       9.4157222243329
_cell_length_c       9.66626784508392
_cell_angle_alpha    89.99957497871614
_cell_angle_beta     89.99995639895486
_cell_angle_gamma    112.05628734100719

_space_group_name_H-M_alt    "P 1"
_space_group_IT_number       1

loop_
  _space_group_symop_operation_xyz
  'x, y, z'

loop_
  _atom_site_type_symbol
  _atom_site_label
  _atom_site_symmetry_multiplicity
  _atom_site_fract_x
  _atom_site_fract_y
  _atom_site_fract_z
  _atom_site_occupancy
  Ti  Ti1       1.0  0.460476213703913  0.8280284302497023  0.6027827384066953  1.0000
  Ti  Ti2       1.0  0.039516792787480846  0.6719689889379836  0.10278075403697072  1.0000
  Ti  Ti3       1.0  0.17197784225128737  0.5395356206910975  0.3972040250468041  1.0000
  Ti  Ti4       1.0  0.3280268957397539  0.960468283998985  0.8972113480818326  1.0000
  Ti  Ti5       1.0  0.5395240670144189  0.17197194949638117  0.39721867909858594  1.0000
  Ti  Ti6       1.0  0.9604773169921117  0.32802908597410857  0.8972185944279475  1.0000
  Ti  Ti7       1.0  0.8280320191836879  0.46047050688932234  0.6027880817053062  1.0000
  Ti  Ti8       1.0  0.6719729705065944  0.039536674182358  0.1027931729833043  1.0000
  H   H1        1.0  0.7012920789319281  0.9230068669510488  0.798758670936792  1.0000
  H   H2        1.0  0.7987023831329905  0.5769886658053877  0.29876236725407784  1.0000
  H   H3        1.0  0.07700582017923094  0.29870690630959723  0.20123063980246061  1.0000
  H   H4        1.0  0.4230006802757771  0.2012880177224616  0.7012273629693482  1.0000
  H   H5        1.0  0.2987139313850236  0.07698894733260177  0.20124895373569984  1.0000
  H   H6        1.0  0.20129172662227282  0.4230094090544298  0.7012483609906894  1.0000
  H   H7        1.0  0.9229984785798422  0.7012843243943365  0.7987604324802079  1.0000
  H   H8        1.0  0.5769972671755922  0.7987146460944173  0.2987626747486162  1.0000
  H   H9        1.0  0.7391849499477843  0.06000047790869437  0.6899183329879364  1.0000
  H   H10       1.0  0.7608204826731181  0.4399910213270601  0.18992459410196721  1.0000
  H   H11       1.0  0.9400013518714515  0.2608100545873242  0.3100780698554715  1.0000
  H   H12       1.0  0.5600069633044952  0.23917805925195523  0.8100695991840895  1.0000
  H   H13       1.0  0.26083062766831927  0.9399953598791055  0.3100727392740765  1.0000
  H   H14       1.0  0.23918509975657534  0.5600036470664165  0.8100778579476255  1.0000
  H   H15       1.0  0.0600052667061348  0.7391731676490779  0.689931623913381  1.0000
  H   H16       1.0  0.43999988940266377  0.760814322553152  0.189925611195271  1.0000
  C   C1        1.0  0.6056080920338615  0.6056029216131406  0.6599627503631853  1.0000
  C   C2        1.0  0.8943871707554504  0.8943915972154598  0.15996304186570853  1.0000
  C   C3        1.0  0.39439325171820616  0.3943974607455657  0.34003659809084047  1.0000
  C   C4        1.0  0.10561396576837007  0.10561107437751358  0.8400342375291957  1.0000
  C   C5        1.0  0.6715253243634294  0.6715272461362076  0.5175569576583854  1.0000
  C   C6        1.0  0.8284673851228489  0.828480022056965  0.0175577736125092  1.0000
  C   C7        1.0  0.32846944741751116  0.32848113420149627  0.4824403217180305  1.0000
  C   C8        1.0  0.17152994061280677  0.17152950939617279  0.982440540284273  1.0000
  O   O1        1.0  0.5066682956552597  0.6514126458251397  0.7108860990102956  1.0000
  O   O2        1.0  0.9933176100223305  0.8485825275954326  0.21088665378237442  1.0000
  O   O3        1.0  0.34858811797125344  0.49333361967045136  0.2891117403065665  1.0000
  O   O4        1.0  0.1514169839791393  0.006677667384032298  0.7891079966395793  1.0000
  O   O5        1.0  0.4933253996479152  0.348590007512712  0.28911842206536426  1.0000
  O   O6        1.0  0.006672468301239572  0.15141897203336893  0.7891147637224095  1.0000
  O   O7        1.0  0.6514172840939165  0.5066747866794614  0.710889677167799  1.0000
  O   O8        1.0  0.8485775537076135  0.9933215534610152  0.21088721371927482  1.0000
  O   O9        1.0  0.6199162409454074  0.765455293662434  0.46506998665978483  1.0000
  O   O10       1.0  0.8800642988756023  0.7345260851416102  0.9650685676292527  1.0000
  O   O11       1.0  0.23454649290248844  0.3800950140178258  0.5349309535933813  1.0000
  O   O12       1.0  0.2654616013010269  0.11991517855280161  0.0349291890638952  1.0000
  O   O13       1.0  0.3800804093559336  0.23453820800163067  0.5349303963462833  1.0000
  O   O14       1.0  0.11991936097764715  0.26545822578758294  0.0349307808892689  1.0000
  O   O15       1.0  0.765457197569411  0.6199088086763211  0.4650704638982148  1.0000
  O   O16       1.0  0.7345418953778021  0.8800966577438273  0.9650691248223708  1.0000
  O   O17       1.0  0.34601285011341076  0.8460092188011927  0.7499967178796113  1.0000
  O   O18       1.0  0.15397782873793614  0.6539879884660633  0.2499947839728236  1.0000
  O   O19       1.0  0.6539823226954837  0.15398885871402263  0.2500026305849303  1.0000
  O   O20       1.0  0.846019276332079  0.3460181078483727  0.7500035299365068  1.0000
  O   O21       1.0  0.49999774586085266  0.9999975617401943  0.5000030326175136  1.0000
  O   O22       1.0  2.7149381977425675e-06  0.5000008096026816  0.9999994432145201  1.0000
  O   O23       1.0  3.7839270916090103e-06  0.5000031066494584  0.4999988144729743  1.0000
  O   O24       1.0  0.5000000866365893  0.9999987076652485  0.9999984887181697  1.0000
  O   O25       1.0  0.3079051124542359  0.6921008517307924  0.49999180266283366  1.0000
  O   O26       1.0  0.1920832540232311  0.8079077938620144  0.9999951552545383  1.0000
  O   O27       1.0  0.6920941186589076  0.3079052497566224  0.5000137529238131  1.0000
  O   O28       1.0  0.8079093916836086  0.19210058123617554  9.365800721600001e-06  1.0000
  O   O29       1.0  0.677111336159683  0.9521204153175374  0.705449551648478  1.0000
  O   O30       1.0  0.8228865067518428  0.54787827182696  0.2054503387479798  1.0000
  O   O31       1.0  0.04789494418949399  0.3228971946690677  0.2945582057649645  1.0000
  O   O32       1.0  0.45211391840182796  0.17709573377140225  0.7945499115073746  1.0000
  O   O33       1.0  0.32288723298750444  0.047875380820308094  0.2945415206196317  1.0000
  O   O34       1.0  0.17711824675599525  0.45212555348457056  0.7945479751669142  1.0000
  O   O35       1.0  0.9521180928562032  0.6771032162621963  0.70545459151559  1.0000
  O   O36       1.0  0.5478791149000058  0.8228966141408378  0.20545667865678752  1.0000
