data_image0
_chemical_formula_structural       CoH28C40N10O6
_chemical_formula_sum              "Co1 H28 C40 N10 O6"
_cell_length_a       8.4864162320234
_cell_length_b       10.068012738193731
_cell_length_c       11.758183945283815
_cell_angle_alpha    93.67308583052197
_cell_angle_beta     98.89164143839209
_cell_angle_gamma    91.4868525774434

_space_group_name_H-M_alt    "P 1"
_space_group_IT_number       1

loop_
  _space_group_symop_operation_xyz
  'x, y, z'

loop_
  _atom_site_type_symbol
  _atom_site_label
  _atom_site_symmetry_multiplicity
  _atom_site_fract_x
  _atom_site_fract_y
  _atom_site_fract_z
  _atom_site_occupancy
  Co  Co1       1.0  2.1459870679194764e-07  0.4999981341802594  0.9999981299888604  1.0000
  H   H1        1.0  0.6769142291758501  0.6564640624336064  0.9720264893608715  1.0000
  H   H2        1.0  0.32308365556914964  0.3435396322030684  0.027974632542040516  1.0000
  H   H3        1.0  0.9433849194621616  0.994165842926556  0.1382097091899226  1.0000
  H   H4        1.0  0.056627043363427304  0.0058337989517909  0.8617901261720251  1.0000
  H   H5        1.0  0.1434531756211896  0.7789390273371666  0.131661611226555  1.0000
  H   H6        1.0  0.8565549555950795  0.221057682396065  0.8683274412354792  1.0000
  H   H7        1.0  0.797111326077861  0.8786847983618244  0.8432900312190981  1.0000
  H   H8        1.0  0.2028974090391173  0.1213208235314696  0.1567140578243951  1.0000
  H   H9        1.0  0.7297400690221282  0.9661950048998306  0.653310302005309  1.0000
  H   H10       1.0  0.27026277314289615  0.0338126534091927  0.34668987515460975  1.0000
  H   H11       1.0  0.4917419964033059  0.10587793843736648  0.6082418602466575  1.0000
  H   H12       1.0  0.5082545851574382  0.8941237738713993  0.3917581581403624  1.0000
  H   H13       1.0  0.3184720869666791  0.1547371324574627  0.7553152036833595  1.0000
  H   H14       1.0  0.6815325757980873  0.8452585437239221  0.2446895794154145  1.0000
  H   H15       1.0  0.1266999054423081  0.4476363134503244  0.2588718242732853  1.0000
  H   H16       1.0  0.8732900409493213  0.5523535013912027  0.741120848350022  1.0000
  H   H17       1.0  0.3475332389730498  0.6240409663372475  0.005033999321653902  1.0000
  H   H18       1.0  0.6524706159182828  0.3759626927518411  0.994968606553826  1.0000
  H   H19       1.0  0.5735396818460076  0.6112722888609526  0.20515169342041878  1.0000
  H   H20       1.0  0.4264509364809257  0.3887274280464155  0.7948577810955156  1.0000
  H   H21       1.0  0.226794612046902  0.7142616016142967  0.3531630954388021  1.0000
  H   H22       1.0  0.7732005799754377  0.2857351165360598  0.6468424405655001  1.0000
  H   H23       1.0  0.1546139075606021  0.8673588226488392  0.5068984266970773  1.0000
  H   H24       1.0  0.84539372156339  0.13264981758286606  0.4930989146625322  1.0000
  H   H25       1.0  0.27127168279455566  0.8450643552255598  0.7129090985262537  1.0000
  H   H26       1.0  0.7287349244433444  0.1549472732637085  0.2870900073399625  1.0000
  H   H27       1.0  0.4585760000006687  0.670856636885091  0.7656388115257685  1.0000
  H   H28       1.0  0.541418162473974  0.3291440865013654  0.2343625933248674  1.0000
  C   C1        1.0  0.7791064228565433  0.7152509642280762  0.016385681190783426  1.0000
  C   C2        1.0  0.22089491127133704  0.2847507280652621  0.9836131409609623  1.0000
  C   C3        1.0  0.921114834448787  0.891057429752685  0.10517617606676313  1.0000
  C   C4        1.0  0.0788970274485337  0.10894224822267518  0.8948134446665961  1.0000
  C   C5        1.0  0.016843477538252192  0.7834079355930114  0.1014886494832083  1.0000
  C   C6        1.0  0.983163631791932  0.21659176239778327  0.8985021674854325  1.0000
  C   C7        1.0  0.6330515207287207  0.9232944794601323  0.025254643459277328  1.0000
  C   C8        1.0  0.3669582187038856  0.0767071462213167  0.974751023080735  1.0000
  C   C9        1.0  0.5975415021226099  0.9682481284859676  0.9137562286635658  1.0000
  C   C10       1.0  0.40246736906356523  0.031759473218876594  0.08625139100225712  1.0000
  C   C11       1.0  0.6931083135965751  0.9398483775653476  0.8260267086454576  1.0000
  C   C12       1.0  0.30689690410292064  0.060158256765511495  0.17397791483804073  1.0000
  C   C13       1.0  0.6551222543038905  0.988870859353625  0.7191837461288487  1.0000
  C   C14       1.0  0.3448768227882439  0.0111328287751462  0.2808175023247657  1.0000
  C   C15       1.0  0.5195239849943364  0.0677119356292479  0.693467573945064  1.0000
  C   C16       1.0  0.48047384853744296  0.9322907630854829  0.3065334850847776  1.0000
  C   C17       1.0  0.4237859753146367  0.09578797438806667  0.7754065924094036  1.0000
  C   C18       1.0  0.5762226741972825  0.9042156496451667  0.224599073326047  1.0000
  C   C19       1.0  0.5404252547313462  0.951822371540736  0.11223464870755612  1.0000
  C   C20       1.0  0.4595845871276936  0.0481812459846083  0.8877711435785971  1.0000
  C   C21       1.0  0.21542031037142811  0.4970113109364718  0.21757481979626192  1.0000
  C   C22       1.0  0.7845735111811366  0.5029834489506513  0.782422802939749  1.0000
  C   C23       1.0  0.33815996373966334  0.5847244057359973  0.0875292347652703  1.0000
  C   C24       1.0  0.6618330744224536  0.4152773140641271  0.9124738088458315  1.0000
  C   C25       1.0  0.4485508956206203  0.5807477682244196  0.1854267650113783  1.0000
  C   C26       1.0  0.5514360699687231  0.41925199527940304  0.8145746688810006  1.0000
  C   C27       1.0  0.4348158021270763  0.5116659991906615  0.38490127975318705  1.0000
  C   C28       1.0  0.5651707530074219  0.4883247829671545  0.6151046955958606  1.0000
  C   C29       1.0  0.38740190654172585  0.6003494348416893  0.46968524872067974  1.0000
  C   C30       1.0  0.6125872472996788  0.3996463289504745  0.530317037999879  1.0000
  C   C31       1.0  0.2782760993517357  0.7035522479814417  0.4427268729243323  1.0000
  C   C32       1.0  0.7217166491015236  0.29644450424130037  0.5572724514452148  1.0000
  C   C33       1.0  0.23828550560191536  0.7890594729895142  0.5285899526156969  1.0000
  C   C34       1.0  0.7617109911028522  0.21094125542964554  0.47140659802204954  1.0000
  C   C35       1.0  0.30413007749092463  0.7768209146450004  0.645720941096812  1.0000
  C   C36       1.0  0.6958699022394725  0.2231777993984849  0.3542767146659642  1.0000
  C   C37       1.0  0.4094224277838094  0.6790210206999845  0.6752949925501923  1.0000
  C   C38       1.0  0.5905712057372554  0.32096974948318996  0.3247040811316424  1.0000
  C   C39       1.0  0.5450214760819067  0.4118069739526078  0.4108933543291756  1.0000
  C   C40       1.0  0.45496730244558153  0.5881818244021133  0.5891067898417931  1.0000
  N   N1        1.0  0.7710222662208894  0.8458209710262707  0.05091817018205093  1.0000
  N   N2        1.0  0.2289849784294091  0.1541796928056272  0.9490812218501361  1.0000
  N   N3        1.0  0.9273021585258833  0.674110651576548  0.04530224962934426  1.0000
  N   N4        1.0  0.0726990563541747  0.32588905488906766  0.9546947443381556  1.0000
  N   N5        1.0  0.1935899994950958  0.5317163791597609  0.10890626226719752  1.0000
  N   N6        1.0  0.8064050572071225  0.4682793731494924  0.8910906986735442  1.0000
  N   N7        1.0  0.3696064610156711  0.5256358032400074  0.2669860231814312  1.0000
  N   N8        1.0  0.6303863722935644  0.47436193287234113  0.7330167689373893  1.0000
  N   N9        1.0  0.8806916511083146  0.28418993783551366  0.15110815671744152  1.0000
  N   N10       1.0  0.11931066210311769  0.7158077672702277  0.8488896892736691  1.0000
  O   O1        1.0  0.8777207388395993  0.41123662283435164  0.14300363744238348  1.0000
  O   O2        1.0  0.12228148951585639  0.5887600983817904  0.8569907407994677  1.0000
  O   O3        1.0  0.9989941325275992  0.23468026789940663  0.21069799817950496  1.0000
  O   O4        1.0  0.0010070563713072019  0.765318433620017  0.7893014865720716  1.0000
  O   O5        1.0  0.7651302762866337  0.21097023223459394  0.09998677420052363  1.0000
  O   O6        1.0  0.23486975465698381  0.7890294777308428  0.9000109444353228  1.0000
