data_image0
_chemical_formula_structural       Cd8H16C16S8I8N24
_chemical_formula_sum              "Cd8 H16 C16 S8 I8 N24"
_cell_length_a       8.284682334011729
_cell_length_b       11.089518453022405
_cell_length_c       14.331815184008663
_cell_angle_alpha    90.00012359670151
_cell_angle_beta     90.00002804330094
_cell_angle_gamma    89.9998076639279

_space_group_name_H-M_alt    "P 1"
_space_group_IT_number       1

loop_
  _space_group_symop_operation_xyz
  'x, y, z'

loop_
  _atom_site_type_symbol
  _atom_site_label
  _atom_site_symmetry_multiplicity
  _atom_site_fract_x
  _atom_site_fract_y
  _atom_site_fract_z
  _atom_site_occupancy
  Cd  Cd1       1.0  0.8049492624796387  0.18162278220289346  0.6701324081722645  1.0000
  Cd  Cd2       1.0  0.6950495369999887  0.31837658622344384  0.17013024613088132  1.0000
  Cd  Cd3       1.0  0.8049503017204105  0.8183747281260096  0.8298663729664781  1.0000
  Cd  Cd4       1.0  0.6950499886872594  0.6816252224424418  0.32986886552973976  1.0000
  Cd  Cd5       1.0  0.19504861275973442  0.8183756956435034  0.3298689093843166  1.0000
  Cd  Cd6       1.0  0.30495075232934  0.6816227933665644  0.8298668849368626  1.0000
  Cd  Cd7       1.0  0.19504878056496014  0.1816237497159889  0.1701328513453007  1.0000
  Cd  Cd8       1.0  0.304947886543644  0.3183768624126344  0.6701317542815417  1.0000
  H   H1        1.0  0.16924046189878084  0.9831144715498258  0.5472064824563745  1.0000
  H   H2        1.0  0.3307586646249733  0.5168877429439649  0.04720664366566751  1.0000
  H   H3        1.0  0.16924040748938302  0.0168846200402868  0.9527935137380439  1.0000
  H   H4        1.0  0.33076132636801253  0.48311407010342583  0.4527937600901311  1.0000
  H   H5        1.0  0.830757413332428  0.016887613306216995  0.4527948351032265  1.0000
  H   H6        1.0  0.6692392106076853  0.4831134401577373  0.952793278396534  1.0000
  H   H7        1.0  0.8307598818425818  0.9831138577992463  0.0472050128255859  1.0000
  H   H8        1.0  0.6692425841089857  0.5168826042277387  0.5472054642208235  1.0000
  H   H9        1.0  0.38973562367559117  0.8751258758838103  0.6459189714814784  1.0000
  H   H10       1.0  0.11026479320078411  0.6248784156550399  0.1459199491893557  1.0000
  H   H11       1.0  0.3897349967563741  0.1248762742603731  0.8540824827983045  1.0000
  H   H12       1.0  0.11026544673731561  0.37512574935661286  0.3540817874789042  1.0000
  H   H13       1.0  0.6102646656406209  0.12487981597693928  0.3540809505848515  1.0000
  H   H14       1.0  0.8897342890732248  0.37512547270431895  0.8540813683719293  1.0000
  H   H15       1.0  0.6102652925706379  0.875124908840256  0.1459188347608844  1.0000
  H   H16       1.0  0.889742084890841  0.6248664162089669  0.6459181345770943  1.0000
  C   C1        1.0  0.0015806449254967003  0.912444482374113  0.647343052052257  1.0000
  C   C2        1.0  0.4984173590712545  0.5875544025995866  0.1473440772652808  1.0000
  C   C3        1.0  0.0015801858682849004  0.08755322274568302  0.8526555010550609  1.0000
  C   C4        1.0  0.49841904937865417  0.41244699341490343  0.3526556763306203  1.0000
  C   C5        1.0  0.9984172303071619  0.087556700727589  0.3526568700099446  1.0000
  C   C6        1.0  0.5015793091168561  0.4124458787521661  0.8526565425443167  1.0000
  C   C7        1.0  0.9984201034660175  0.9124443533424014  0.14734372325613518  1.0000
  C   C8        1.0  0.5015836540450352  0.5875523861740319  0.6473428502341108  1.0000
  C   C9        1.0  0.2611090905369764  0.8759700955581593  0.659953463689881  1.0000
  C   C10       1.0  0.23888892409604523  0.6240315296162962  0.1599537787391156  1.0000
  C   C11       1.0  0.26110845560079815  0.1240305710260046  0.8400479540787843  1.0000
  C   C12       1.0  0.23889197605035412  0.37597051194776304  0.3400472966885745  1.0000
  C   C13       1.0  0.7388887846915965  0.12403289104835838  0.3400464583738342  1.0000
  C   C14       1.0  0.7611077440903175  0.37596965348883066  0.8400475388195617  1.0000
  C   C15       1.0  0.7388906266807852  0.8759697103217831  0.1599519679828347  1.0000
  C   C16       1.0  0.7611143485215736  0.624025260625096  0.6599498343769951  1.0000
  S   S1        1.0  0.8157010506062575  0.9620271776285776  0.6110477369946636  1.0000
  S   S2        1.0  0.6842978480791687  0.5379721665732973  0.1110478920393589  1.0000
  S   S3        1.0  0.8157020538408164  0.0379703059574155  0.8889517449442083  1.0000
  S   S4        1.0  0.6842981373657367  0.46202786533261525  0.388951914316266  1.0000
  S   S5        1.0  0.1842980316779546  0.03797220196873499  0.3889535805628412  1.0000
  S   S6        1.0  0.3157012341986203  0.4620299182802797  0.888952727772093  1.0000
  S   S7        1.0  0.18429944253833241  0.9620281718815776  0.1110474793679188  1.0000
  S   S8        1.0  0.31570698014822807  0.5379733177600768  0.6110480077469661  1.0000
  I   I1        1.0  0.9999811034805858  0.32825363507947  0.5554973938490022  1.0000
  I   I2        1.0  0.5000127710580743  0.17174812094739167  0.0554956279759367  1.0000
  I   I3        1.0  0.9999816966649391  0.6717451936358289  0.9445028381460503  1.0000
  I   I4        1.0  0.5000114482160358  0.8282523693509846  0.4445048238199547  1.0000
  I   I5        1.0  1.07365129978e-05  0.6717502532918047  0.4445060169562254  1.0000
  I   I6        1.0  0.49998148302866247  0.8282548656597655  0.9445015030939815  1.0000
  I   I7        1.0  1.7385618100699994e-05  0.3282541859576184  0.0554956884181621  1.0000
  I   I8        1.0  0.49998159883813287  0.17174520674997498  0.5554971914835036  1.0000
  N   N1        1.0  0.024879258368237303  0.8402953449872681  0.7209463720557495  1.0000
  N   N2        1.0  0.4751200147917275  0.6597046456984971  0.22094751180961944  1.0000
  N   N3        1.0  0.024879617400571902  0.15970230217966014  0.7790528854131296  1.0000
  N   N4        1.0  0.47512076277750753  0.3402968082678016  0.2790529329217151  1.0000
  N   N5        1.0  0.9751210309599331  0.1597049363580538  0.2790528522577205  1.0000
  N   N6        1.0  0.5248778604394744  0.3402974391575455  0.7790538057499887  1.0000
  N   N7        1.0  0.9751206719319826  0.8402961756618054  0.2209470366471464  1.0000
  N   N8        1.0  0.5248843547416939  0.659701669564761  0.7209448958942843  1.0000
  N   N9        1.0  0.18757354079797747  0.8178135634432593  0.7282741291506198  1.0000
  N   N10       1.0  0.3124281526365992  0.6821882510520682  0.22827665597463923  1.0000
  N   N11       1.0  0.18757137770168705  0.1821872860527165  0.7717258722487159  1.0000
  N   N12       1.0  0.31242899628651344  0.31781450934808925  0.2717258358236592  1.0000
  N   N13       1.0  0.8124279555706552  0.1821894231568209  0.2717243974169676  1.0000
  N   N14       1.0  0.6875709296417867  0.3178138338034345  0.771725359333459  1.0000
  N   N15       1.0  0.812428911629411  0.8178120935430896  0.2282754453089595  1.0000
  N   N16       1.0  0.687577328282501  0.6821830667334579  0.7282740862367163  1.0000
  N   N17       1.0  0.14984938611261361  0.9360764696033639  0.6085133988008735  1.0000
  N   N18       1.0  0.35014858510552227  0.5639259147805972  0.1085150399970942  1.0000
  N   N19       1.0  0.14985027392664563  0.0639217684664004  0.8914865918889276  1.0000
  N   N20       1.0  0.35015020114143885  0.4360776535454605  0.39148746250870653  1.0000
  N   N21       1.0  0.8501496961645928  0.063925615248273  0.3914858255139393  1.0000
  N   N22       1.0  0.6498480830770533  0.4360770718303257  0.8914869753114162  1.0000
  N   N23       1.0  0.850150015407948  0.9360758076226574  0.1085133301705952  1.0000
  N   N24       1.0  0.6498525022883825  0.5639190207862512  0.6085110640537508  1.0000
