data_image0
_chemical_formula_structural       Cu4H8C10S2N2Cl2
_chemical_formula_sum              "Cu4 H8 C10 S2 N2 Cl2"
_cell_length_a       3.8658768707311983
_cell_length_b       7.853174908033678
_cell_length_c       11.131813865241737
_cell_angle_alpha    90.00018186872892
_cell_angle_beta     94.53742393819242
_cell_angle_gamma    89.99969538798207

_space_group_name_H-M_alt    "P 1"
_space_group_IT_number       1

loop_
  _space_group_symop_operation_xyz
  'x, y, z'

loop_
  _atom_site_type_symbol
  _atom_site_label
  _atom_site_symmetry_multiplicity
  _atom_site_fract_x
  _atom_site_fract_y
  _atom_site_fract_z
  _atom_site_occupancy
  Cu  Cu1       1.0  0.4415458254897117  0.6236201730920997  0.1627277138276995  1.0000
  Cu  Cu2       1.0  0.44154877469499354  0.3763837367155388  0.6627296652802386  1.0000
  Cu  Cu3       1.0  0.8519766047920995  0.5107320087143776  0.3740964538097701  1.0000
  Cu  Cu4       1.0  0.8519808487841091  0.48926922702925413  0.8740941860344904  1.0000
  H   H1        1.0  0.10571704270856938  0.3147073896248428  0.18215652213371672  1.0000
  H   H2        1.0  0.1057271503283346  0.6852885947410954  0.6821566088498798  1.0000
  H   H3        1.0  0.1736125219556683  0.013137416308815396  0.12485617260490053  1.0000
  H   H4        1.0  0.1736219836572488  0.9868543029054135  0.6248515020473207  1.0000
  H   H5        1.0  0.6997170727591069  0.87166029447539  0.4493100081398326  1.0000
  H   H6        1.0  0.699722500225235  0.1283467879087539  0.9493105857932636  1.0000
  H   H7        1.0  0.6583264217290434  0.18266141364479443  0.4959987687609343  1.0000
  H   H8        1.0  0.6583273460932446  0.8173459940663007  0.995997128822502  1.0000
  C   C1        1.0  0.019601535647694804  0.21369371496626843  0.23978177378842255  1.0000
  C   C2        1.0  0.019608026470891098  0.7863040380669091  0.7397819934466057  1.0000
  C   C3        1.0  0.0562930949678275  0.044854872113909  0.2077163949650611  1.0000
  C   C4        1.0  0.056300472052562604  0.9551451821070029  0.7077169981037201  1.0000
  C   C5        1.0  0.9386398709794221  0.9167980228190584  0.28230403318838887  1.0000
  C   C6        1.0  0.9386534762056088  0.08319746567438809  0.7823029073088891  1.0000
  C   C7        1.0  0.7940487641103217  0.9668253608855152  0.3885150294346645  1.0000
  C   C8        1.0  0.7940550914874719  0.0331748227926241  0.8885136267113155  1.0000
  C   C9        1.0  0.7697561984443411  0.1392582483615072  0.4141164047028171  1.0000
  C   C10       1.0  0.769764530745725  0.8607433913510222  0.9141168271826106  1.0000
  S   S1        1.0  0.9594605429274594  0.701943387719723  0.23738886888974522  1.0000
  S   S2        1.0  0.9594589061607052  0.29805438541077217  0.7373851549518805  1.0000
  N   N1        1.0  0.8784674171808219  0.2631746976746712  0.34167775741229894  1.0000
  N   N2        1.0  0.8784743140858211  0.7368250448217709  0.8416751850020958  1.0000
  Cl  Cl1       1.0  0.43059289974712556  0.4364967928434566  0.010337086972484099  1.0000
  Cl  Cl2       1.0  0.43059401858260316  0.5635089927813722  0.5103411947782419  1.0000
