data_image0
_chemical_formula_structural       Cd2H24C40N20
_chemical_formula_sum              "Cd2 H24 C40 N20"
_cell_length_a       8.234890485241928
_cell_length_b       11.301446393947998
_cell_length_c       11.30126300880742
_cell_angle_alpha    72.806375969432
_cell_angle_beta     78.09029628210244
_cell_angle_gamma    78.08943544995046

_space_group_name_H-M_alt    "P 1"
_space_group_IT_number       1

loop_
  _space_group_symop_operation_xyz
  'x, y, z'

loop_
  _atom_site_type_symbol
  _atom_site_label
  _atom_site_symmetry_multiplicity
  _atom_site_fract_x
  _atom_site_fract_y
  _atom_site_fract_z
  _atom_site_occupancy
  Cd  Cd1       1.0  0.25000016640582595  0.4101039130872691  0.5898985731869004  1.0000
  Cd  Cd2       1.0  0.7499960108019507  0.5898978117425528  0.4101050384856039  1.0000
  H   H1        1.0  0.565650842606523  0.2622592749968504  0.6697298794807623  1.0000
  H   H2        1.0  0.934354425762329  0.33027937160732534  0.737738276869365  1.0000
  H   H3        1.0  0.4343387511066936  0.73774433113811  0.3302723774577245  1.0000
  H   H4        1.0  0.06565109663969076  0.6697073282957079  0.2622718159022242  1.0000
  H   H5        1.0  0.8199225890915044  0.1253170373062673  0.7481204373802728  1.0000
  H   H6        1.0  0.680081122232366  0.2518946361571182  0.874672961769335  1.0000
  H   H7        1.0  0.18007106038647433  0.8746902078314704  0.2518925815667643  1.0000
  H   H8        1.0  0.3199191377996086  0.7480940331780132  0.12532671067433657  1.0000
  H   H9        1.0  0.8572265509399769  0.895440144075167  0.7817020139358988  1.0000
  H   H10       1.0  0.6427776708407721  0.21831074390514973  0.10454868991143941  1.0000
  H   H11       1.0  0.1427654835999022  0.1045634235376127  0.21830432538934025  1.0000
  H   H12       1.0  0.35722040662349025  0.7816882390610617  0.895448350955789  1.0000
  H   H13       1.0  0.6411849539193991  0.7987026650480828  0.732396570003239  1.0000
  H   H14       1.0  0.8588112228982536  0.26761555688935346  0.20129781959716556  1.0000
  H   H15       1.0  0.3588140253909273  0.2013038317648181  0.267597308119079  1.0000
  H   H16       1.0  0.1411799001343468  0.732392784647999  0.7986984381271398  1.0000
  H   H17       1.0  0.37338699830067407  0.8252477547866233  0.649941705926274  1.0000
  H   H18       1.0  0.12661416315708607  0.35006665030947204  0.1747542338434442  1.0000
  H   H19       1.0  0.6266204405900168  0.1747540930844096  0.3500496217537332  1.0000
  H   H20       1.0  0.8733752983187627  0.6499435384438855  0.8252443912054446  1.0000
  H   H21       1.0  0.13016210600367364  0.9688601356935678  0.5609518557223581  1.0000
  H   H22       1.0  0.3698416794642227  0.4390522908039928  0.03114714993276385  1.0000
  H   H23       1.0  0.8698403706647183  0.031141703311377004  0.439040192613966  1.0000
  H   H24       1.0  0.630152032746203  0.5609494467748775  0.968855044981929  1.0000
  C   C1        1.0  0.45618944068353784  0.10834570426226972  0.6588042251033528  1.0000
  C   C2        1.0  0.04382000901165374  0.34120344111213535  0.8916509073006225  1.0000
  C   C3        1.0  0.5438133764170842  0.8916541993997172  0.34119452150228813  1.0000
  C   C4        1.0  0.9561803189209214  0.6587964495257668  0.10834908817615482  1.0000
  C   C5        1.0  0.5809922446790381  0.16076080039988483  0.6866906860152753  1.0000
  C   C6        1.0  0.9190105678945033  0.3133239261193522  0.8392352373960819  1.0000
  C   C7        1.0  0.4190059006858177  0.8392494038691038  0.31330667788506633  1.0000
  C   C8        1.0  0.08099097642296725  0.6866759409619477  0.160767243545564  1.0000
  C   C9        1.0  0.7222023950447393  0.0843209198319954  0.7296276734998843  1.0000
  C   C10       1.0  0.777800998767205  0.27038157612916786  0.9156712879164672  1.0000
  C   C11       1.0  0.2778003656576117  0.9156789236926884  0.2703772929066304  1.0000
  C   C12       1.0  0.2222012133080611  0.7296155554630417  0.08432391384100414  1.0000
  C   C13       1.0  0.7438538472857203  0.9530994751216965  0.7486050049763051  1.0000
  C   C14       1.0  0.7561466031347661  0.2514022955596716  0.04689532420300682  1.0000
  C   C15       1.0  0.25614628395432965  0.046906929406255  0.2513984669547327  1.0000
  C   C16       1.0  0.24385016759604372  0.7485910401744604  0.9531052894836735  1.0000
  C   C17       1.0  0.6244425457840562  0.8994096097937571  0.7220795240300646  1.0000
  C   C18       1.0  0.8755682915554245  0.277935040524838  0.10058306997891724  1.0000
  C   C19       1.0  0.3755590647112896  0.1005959023031053  0.27791956425621583  1.0000
  C   C20       1.0  0.12443196053805383  0.7220714928687642  0.8994070738073888  1.0000
  C   C21       1.0  0.4795713100711367  0.9752642183941519  0.6754858049654757  1.0000
  C   C22       1.0  0.0204381574711832  0.3245205536849127  0.024734958262413925  1.0000
  C   C23       1.0  0.5204385213048467  0.024737539408434397  0.32451493635918643  1.0000
  C   C24       1.0  0.9795657098266587  0.6754802983874697  0.9752624804019447  1.0000
  C   C25       1.0  0.35787406586447906  0.9257760839974766  0.6402499611553409  1.0000
  C   C26       1.0  0.14213184107920535  0.35975438954729105  0.07422240205879399  1.0000
  C   C27       1.0  0.6421305111983601  0.0742276518282523  0.35973947129841827  1.0000
  C   C28       1.0  0.857866220271262  0.6402445762368387  0.9257764158943974  1.0000
  C   C29       1.0  0.22372125979460833  0.0048939779862778  0.5905762228169068  1.0000
  C   C30       1.0  0.27628318450074824  0.40942642786526323  0.995108298634783  1.0000
  C   C31       1.0  0.7762894941526992  0.9951041668617011  0.40941125875692563  1.0000
  C   C32       1.0  0.723715283459832  0.5905762475914713  0.00489382493235984  1.0000
  C   C33       1.0  0.2101124529616456  0.13507867547460253  0.5765459298889795  1.0000
  C   C34       1.0  0.2898917037205493  0.4234557853532266  0.864923725589172  1.0000
  C   C35       1.0  0.7898883523703827  0.8649194258680877  0.4234456586264202  1.0000
  C   C36       1.0  0.7101029925092206  0.5765412556204694  0.1350805540396109  1.0000
  C   C37       1.0  0.07417545534224962  0.22159183082298742  0.5174303907089168  1.0000
  C   C38       1.0  0.42583358250049497  0.4825752749398759  0.7784103196511509  1.0000
  C   C39       1.0  0.9258275440598284  0.7784071180540836  0.48257037221690524  1.0000
  C   C40       1.0  0.5741718335575712  0.5174236096418952  0.22159719129037816  1.0000
  N   N1        1.0  0.31992082512675063  0.1854722450413107  0.6114073382772746  1.0000
  N   N2        1.0  0.18009106994698237  0.38859451493077307  0.8145227965762916  1.0000
  N   N3        1.0  0.6800822065029098  0.8145267381999376  0.38858987047662896  1.0000
  N   N4        1.0  0.8199179320949951  0.6113998063445222  0.18547311060643792  1.0000
  N   N5        1.0  0.03575096102214556  0.3430376411293069  0.5179725208931742  1.0000
  N   N6        1.0  0.4642529577195943  0.482027735077999  0.6569661355816621  1.0000
  N   N7        1.0  0.9642427252948809  0.6569584943892152  0.4820286239619875  1.0000
  N   N8        1.0  0.5357489350869925  0.5179702052513877  0.3430421550863301  1.0000
  N   N9        1.0  0.9102714709826571  0.389671068838247  0.45036013910744555  1.0000
  N   N10       1.0  0.5897268570461519  0.5496400579486364  0.6103274822666053  1.0000
  N   N11       1.0  0.08972175232598532  0.6103212968703602  0.5496439199346456  1.0000
  N   N12       1.0  0.4102738274324481  0.4503579145284035  0.3896774343935336  1.0000
  N   N13       1.0  0.8737216751050525  0.3001872424613127  0.41050285471843045  1.0000
  N   N14       1.0  0.6262762478916172  0.5895028984572903  0.6998093031261021  1.0000
  N   N15       1.0  0.12627421967309252  0.6998041814864705  0.5895019717726981  1.0000
  N   N16       1.0  0.37372939880927447  0.41049508288583064  0.30019489287771967  1.0000
  N   N17       1.0  0.9752752155472348  0.19341053565828764  0.45158632489211215  1.0000
  N   N18       1.0  0.5247278554612149  0.5484216527534755  0.8065883296420324  1.0000
  N   N19       1.0  0.024725268793396447  0.8065827981343574  0.5484146368453154  1.0000
  N   N20       1.0  0.4752802642939288  0.45157632443164186  0.19341639457661586  1.0000
