data_image0
_chemical_formula_structural       Cd2H52C54N8O12
_chemical_formula_sum              "Cd2 H52 C54 N8 O12"
_cell_length_a       10.231397061567812
_cell_length_b       10.564190931618429
_cell_length_c       13.288128066790255
_cell_angle_alpha    106.39958695818756
_cell_angle_beta     97.2235090029719
_cell_angle_gamma    106.04794872618135

_space_group_name_H-M_alt    "P 1"
_space_group_IT_number       1

loop_
  _space_group_symop_operation_xyz
  'x, y, z'

loop_
  _atom_site_type_symbol
  _atom_site_label
  _atom_site_symmetry_multiplicity
  _atom_site_fract_x
  _atom_site_fract_y
  _atom_site_fract_z
  _atom_site_occupancy
  Cd  Cd1       1.0  0.9126883841002638  0.14342733848184244  0.0608830364336299  1.0000
  Cd  Cd2       1.0  0.0873071258683495  0.8565750728899176  0.9391212460913254  1.0000
  H   H1        1.0  0.059864575365821654  0.9720796683054682  0.18977873396219988  1.0000
  H   H2        1.0  0.9401415191302502  0.02791012894459039  0.8102229448483345  1.0000
  H   H3        1.0  0.006699139933914392  0.8557242976985646  0.3291953721672983  1.0000
  H   H4        1.0  0.9933005551809229  0.14427286949389637  0.6708096262853334  1.0000
  H   H5        1.0  0.6938440282649124  0.9950300617795662  0.4989927878364996  1.0000
  H   H6        1.0  0.30616683650139714  0.004971205978527799  0.5010096299273528  1.0000
  H   H7        1.0  0.7386327663395633  0.14199595877734333  0.7910650040816523  1.0000
  H   H8        1.0  0.26137022190882664  0.8580053456392563  0.20893595065876272  1.0000
  H   H9        1.0  0.6960700398249317  0.05826252691735328  0.3809628799432546  1.0000
  H   H10       1.0  0.3039279441754912  0.9417325393115584  0.619038482917489  1.0000
  H   H11       1.0  0.7545305171154199  0.15591422620221346  0.23784964930296584  1.0000
  H   H12       1.0  0.24547394839644446  0.8440766213927873  0.7621513628564929  1.0000
  H   H13       1.0  0.7824784892105681  0.8698616190306436  0.6463210983019679  1.0000
  H   H14       1.0  0.21752113705345266  0.1301355136535705  0.353677865539467  1.0000
  H   H15       1.0  0.6495228501666687  0.6495330628728693  0.5044958972278552  1.0000
  H   H16       1.0  0.350478448853046  0.35046926169395215  0.4954991105766738  1.0000
  H   H17       1.0  0.5011862702537399  0.7050927529008105  0.4901477356286748  1.0000
  H   H18       1.0  0.49881637606765133  0.2949106195870356  0.509849134265373  1.0000
  H   H19       1.0  0.47412280760006087  0.5505767748002411  0.6037669253649086  1.0000
  H   H20       1.0  0.5258797738038294  0.4494234550061689  0.3962284842411208  1.0000
  H   H21       1.0  0.6330603306667439  0.6615277316165089  0.6937032569468828  1.0000
  H   H22       1.0  0.36694355500706877  0.33847352454326085  0.3062902431166564  1.0000
  H   H23       1.0  0.43210564700088117  0.7170563441464705  0.7645850968674354  1.0000
  H   H24       1.0  0.5678968866982145  0.2829407516055652  0.23541036110338356  1.0000
  H   H25       1.0  0.3728736688877348  0.7425235318616714  0.6433341621014821  1.0000
  H   H26       1.0  0.6271275996398841  0.2574756672778377  0.3566624027206374  1.0000
  H   H27       1.0  0.5065353917673148  0.970540082359676  0.7881808265178736  1.0000
  H   H28       1.0  0.4934668946746541  0.02945912891245679  0.21181884419697647  1.0000
  H   H29       1.0  0.6518187586254596  0.9128471981432611  0.8055407137773332  1.0000
  H   H30       1.0  0.348183519210167  0.08715200881534457  0.19445820261112357  1.0000
  H   H31       1.0  0.5267693515239741  0.9579979275029442  0.600906666521773  1.0000
  H   H32       1.0  0.4732300149432476  0.042004424561014296  0.3990911814141001  1.0000
  H   H33       1.0  0.9398060179393608  0.3010688387596686  0.8436074848601864  1.0000
  H   H34       1.0  0.06019846552492677  0.698928238122292  0.1563866416320892  1.0000
  H   H35       1.0  0.08849515570833688  0.5481678125786047  0.9288207107497545  1.0000
  H   H36       1.0  0.9115064203208688  0.4518293012355271  0.07117692161313013  1.0000
  H   H37       1.0  0.8970123830883594  0.6685254596870108  0.695389843617761  1.0000
  H   H38       1.0  0.10299193524900115  0.3314768840235444  0.3046114645593648  1.0000
  H   H39       1.0  0.735886495519054  0.42274957205906827  0.5985469693194291  1.0000
  H   H40       1.0  0.2641158300213674  0.5772527689539045  0.40145189870423803  1.0000
  H   H41       1.0  0.41938452072401583  0.12571032505818638  0.044854821853441314  1.0000
  H   H42       1.0  0.5806082860348808  0.8742899861579972  0.9551449821660899  1.0000
  H   H43       1.0  0.6479798758118916  0.34701924707588455  0.862082279301582  1.0000
  H   H44       1.0  0.3520179133092397  0.652984181214208  0.13791942794161832  1.0000
  H   H45       1.0  0.23186114305681826  0.350956818836586  0.8808937783584414  1.0000
  H   H46       1.0  0.7681343410927395  0.6490455795945846  0.11910824118731261  1.0000
  H   H47       1.0  0.35233986398090156  0.4700895421991048  0.7731152875441938  1.0000
  H   H48       1.0  0.6476592599022408  0.5299180378716666  0.2268829531389258  1.0000
  H   H49       1.0  0.46747975686703547  0.39114758882960377  0.7113758445481155  1.0000
  H   H50       1.0  0.5325163813841414  0.6088537686916524  0.28862750738799303  1.0000
  H   H51       1.0  0.5356334964704458  0.5446893770327816  0.825549523832095  1.0000
  H   H52       1.0  0.46436453990779814  0.4553119357372139  0.17444797066706744  1.0000
  C   C1        1.0  0.979714718769024  0.9867653842334644  0.23424159674506478  1.0000
  C   C2        1.0  0.020290123834954  0.013229633204311095  0.7657581232463786  1.0000
  C   C3        1.0  0.9503031824939182  0.9228592040055684  0.3108132523787575  1.0000
  C   C4        1.0  0.04969971895123139  0.07713583661581679  0.689188553417637  1.0000
  C   C5        1.0  0.8469720745240749  0.9459879379070127  0.365917559487727  1.0000
  C   C6        1.0  0.15302390340001176  0.05400400882406588  0.634084428889942  1.0000
  C   C7        1.0  0.776375567071355  0.032959778310406286  0.34069147574511766  1.0000
  C   C8        1.0  0.22362310152277584  0.9670373724359106  0.659309662488383  1.0000
  C   C9        1.0  0.809675588757024  0.09081011773889708  0.2618669745822758  1.0000
  C   C10       1.0  0.19033249853600148  0.9091796822087443  0.7381371443817175  1.0000
  C   C11       1.0  0.8180841652010143  0.8759524942836092  0.4491395788088185  1.0000
  C   C12       1.0  0.18191370224378997  0.12403940338267459  0.5508557978054969  1.0000
  C   C13       1.0  0.6874550985705028  0.8640950142698429  0.5932199084484396  1.0000
  C   C14       1.0  0.3125458233570838  0.13590314045420365  0.4067763915240975  1.0000
  C   C15       1.0  0.5916954504889771  0.7116479948371218  0.5483113193977118  1.0000
  C   C16       1.0  0.4083051639370224  0.2883522452122946  0.45168391303405303  1.0000
  C   C17       1.0  0.5427204081971622  0.6596910330226251  0.6376797245876562  1.0000
  C   C18       1.0  0.45728279288293544  0.34030813861974707  0.362314000103119  1.0000
  C   C19       1.0  0.46724014535536157  0.7517499883182095  0.6990866716561615  1.0000
  C   C20       1.0  0.5327620894484966  0.248249197072731  0.30090847310028584  1.0000
  C   C21       1.0  0.5618174838678909  0.9040743335137973  0.74564134783774  1.0000
  C   C22       1.0  0.4381841312597599  0.09592591004118126  0.2543554818339616  1.0000
  C   C23       1.0  0.6150609341278254  0.9589205974329998  0.6583739887440815  1.0000
  C   C24       1.0  0.38494271289521004  0.04108277856040129  0.34162447838989624  1.0000
  C   C25       1.0  0.724723160558078  0.19638919101729602  0.6541639356384082  1.0000
  C   C26       1.0  0.27527624894090497  0.8036131826143202  0.3458376839294673  1.0000
  C   C27       1.0  0.821483288730981  0.34224985337304037  0.7142407003976461  1.0000
  C   C28       1.0  0.17852093026347401  0.6577493304019554  0.28575613018586676  1.0000
  C   C29       1.0  0.9241874477595922  0.37747356781306235  0.8071335543979005  1.0000
  C   C30       1.0  0.07581909341913465  0.6225266544479239  0.1928644725358524  1.0000
  C   C31       1.0  0.00910163049927346  0.5161876079505133  0.855262671847193  1.0000
  C   C32       1.0  0.9909022849269105  0.4838105529766779  0.14473766551873982  1.0000
  C   C33       1.0  0.9016300105377935  0.5834631195448806  0.7255145728598508  1.0000
  C   C34       1.0  0.09837461136784496  0.41654024701348635  0.2744832285348551  1.0000
  C   C35       1.0  0.8122534812579261  0.4477396553998715  0.6721877486005001  1.0000
  C   C36       1.0  0.1877508026540297  0.5522626710565601  0.32781054227102413  1.0000
  C   C37       1.0  0.18015438278489165  0.18882223678727425  0.004057036198993589  1.0000
  C   C38       1.0  0.8198477299238078  0.8111822369999256  0.9959490618743062  1.0000
  C   C39       1.0  0.3120255071011897  0.23416330216601003  0.9669526061817921  1.0000
  C   C40       1.0  0.687967693962534  0.7658411875200171  0.033047414322531686  1.0000
  C   C41       1.0  0.42512193807775833  0.19175385014651164  0.9949101861589329  1.0000
  C   C42       1.0  0.5748759159608737  0.8082527208250169  0.005092981372278888  1.0000
  C   C43       1.0  0.5462486738766543  0.233314597676319  0.9571718996973788  1.0000
  C   C44       1.0  0.4537472045777306  0.7666919792246885  0.042830336333174984  1.0000
  C   C45       1.0  0.6692576039760069  0.19250898250125195  0.9902437127330689  1.0000
  C   C46       1.0  0.3307399855927996  0.8074996953633188  0.009762158889372957  1.0000
  C   C47       1.0  0.5525287454213483  0.31522708192723303  0.8904015320488272  1.0000
  C   C48       1.0  0.4474615873057459  0.6847805744318051  0.10960119163492271  1.0000
  C   C49       1.0  0.4400210990667687  0.3584036229009512  0.8612473488462913  1.0000
  C   C50       1.0  0.5599744586066392  0.64160192252519  0.1387568853138816  1.0000
  C   C51       1.0  0.3209275633639732  0.3181361202236132  0.9011276439977822  1.0000
  C   C52       1.0  0.6790693548905009  0.6818735899237962  0.09887538658151125  1.0000
  C   C53       1.0  0.4488000828153814  0.44576245897304984  0.7890885361214048  1.0000
  C   C54       1.0  0.551194110343637  0.5542420299050049  0.21091232729644824  1.0000
  N   N1        1.0  0.909488874717425  0.06821855103280679  0.20907753312498303  1.0000
  N   N2        1.0  0.0905149539055187  0.9317733460991703  0.790923655296922  1.0000
  N   N3        1.0  0.997648112841041  0.6178734126038846  0.8162129604758166  1.0000
  N   N4        1.0  0.0023558416835882806  0.3821278780641392  0.18378657419892622  1.0000
  N   N5        1.0  0.7284705181469207  0.915693105999935  0.507446978967046  1.0000
  N   N6        1.0  0.27152887413936355  0.08430925900461968  0.49255313194802863  1.0000
  N   N7        1.0  0.7077823509541828  0.10425582168446819  0.707850569714438  1.0000
  N   N8        1.0  0.2922175788781017  0.8957423338475504  0.29214488734456984  1.0000
  O   O1        1.0  0.08583524518056855  0.2415110169258127  0.9841343665084356  1.0000
  O   O2        1.0  0.9141578167020796  0.7584809624239098  0.015870373413441972  1.0000
  O   O3        1.0  0.16360827550047924  0.09811128235203628  0.0527750878845765  1.0000
  O   O4        1.0  0.8363967141512134  0.9018900290756799  0.9472290613357048  1.0000
  O   O5        1.0  0.6764680390034669  0.15148226988345928  0.0709934783365114  1.0000
  O   O6        1.0  0.32352079850772936  0.8485296140102175  0.9290160735953779  1.0000
  O   O7        1.0  0.7666569126186714  0.2028747212478378  0.9370581072445037  1.0000
  O   O8        1.0  0.2333368768894529  0.7971193641869475  0.06295017968214005  1.0000
  O   O9        1.0  0.8744339551957836  0.7892643184852302  0.460945971279017  1.0000
  O   O10       1.0  0.12555191956248274  0.21071510442162372  0.53904853574889  1.0000
  O   O11       1.0  0.667124967129723  0.165638450958923  0.5573302600150074  1.0000
  O   O12       1.0  0.3328718385024557  0.8343649824526764  0.44267135864106427  1.0000
