data_image0
_chemical_formula_structural       Cu4H12C16I8N8
_chemical_formula_sum              "Cu4 H12 C16 I8 N8"
_cell_length_a       4.167030376383738
_cell_length_b       12.903178401545965
_cell_length_c       13.799221674398641
_cell_angle_alpha    89.99958498617664
_cell_angle_beta     90.00082675893405
_cell_angle_gamma    92.72273482255306

_space_group_name_H-M_alt    "P 1"
_space_group_IT_number       1

loop_
  _space_group_symop_operation_xyz
  'x, y, z'

loop_
  _atom_site_type_symbol
  _atom_site_label
  _atom_site_symmetry_multiplicity
  _atom_site_fract_x
  _atom_site_fract_y
  _atom_site_fract_z
  _atom_site_occupancy
  Cu  Cu1       1.0  0.5144581578874321  0.17599577296602578  0.6748096556323374  1.0000
  Cu  Cu2       1.0  0.514454478710114  0.6759942590879007  0.8251918057984182  1.0000
  Cu  Cu3       1.0  0.4855442349962686  0.8240049446395191  0.325189849487728  1.0000
  Cu  Cu4       1.0  0.48555031404500676  0.32400645941349643  0.1748055252914753  1.0000
  H   H1        1.0  0.7497937615513522  0.3765827121941073  0.5935034799228373  1.0000
  H   H2        1.0  0.7497956401035495  0.8765775213364365  0.9065063961989137  1.0000
  H   H3        1.0  0.25020143163779807  0.6234180027366776  0.40649892389496484  1.0000
  H   H4        1.0  0.2502065300072474  0.1234216445152185  0.09349238424734098  1.0000
  H   H5        1.0  0.28238950075714797  0.4752557099367821  0.9009730402188436  1.0000
  H   H6        1.0  0.28241933176325057  0.9752581372260425  0.5990318531284513  1.0000
  H   H7        1.0  0.7176133377205218  0.5247481111688685  0.09903008828449338  1.0000
  H   H8        1.0  0.7175852383153086  0.024741029506103004  0.400969101358953  1.0000
  H   H9        1.0  0.30441138230625603  0.28959381871440126  0.8536290203621629  1.0000
  H   H10       1.0  0.304426400496169  0.7895951294958368  0.6463721589860253  1.0000
  H   H11       1.0  0.6955886107541857  0.7104068979876175  0.14637483282372438  1.0000
  H   H12       1.0  0.6955752126904003  0.21040015696981135  0.353625172114988  1.0000
  C   C1        1.0  0.6431792874484756  0.39896392643844786  0.6621447125828366  1.0000
  C   C2        1.0  0.6431889489135969  0.8989677586646466  0.8378630743433956  1.0000
  C   C3        1.0  0.3568159057085579  0.6010367884974599  0.33785624187785857  1.0000
  C   C4        1.0  0.35681662350653187  0.10103839098176343  0.16213498140843535  1.0000
  C   C5        1.0  0.6250258240784987  0.502881258566724  0.6882073831483664  1.0000
  C   C6        1.0  0.6250404851786798  0.0028825824542125  0.8118008302784144  1.0000
  C   C7        1.0  0.37496630082417676  0.497114800221901  0.31179067260686105  1.0000
  C   C8        1.0  0.3749613508771361  0.9971142557499706  0.18820157356773135  1.0000
  C   C9        1.0  0.38608889022767556  0.45359805074134124  0.8317346633056669  1.0000
  C   C10       1.0  0.38612050339259685  0.9536077468513325  0.6682679528820897  1.0000
  C   C11       1.0  0.6138951438727885  0.5463917983595223  0.16826266777352564  1.0000
  C   C12       1.0  0.6138864666697825  0.04639142075875211  0.3317359003250288  1.0000
  C   C13       1.0  0.3988955407745108  0.3504157857953132  0.8054458782998776  1.0000
  C   C14       1.0  0.3989012514948485  0.8504206311792187  0.6945538722000533  1.0000
  C   C15       1.0  0.6011069634554929  0.6495857076935749  0.19455217746070014  1.0000
  C   C16       1.0  0.601101920957518  0.14958551758670072  0.30544200951062805  1.0000
  I   I1        1.0  0.013469695973775196  0.17056071101993814  0.5518718832182115  1.0000
  I   I2        1.0  0.013476264702816773  0.6705583305188795  0.9481294950965373  1.0000
  I   I3        1.0  0.9865352082239909  0.8294407833494476  0.4481283465835232  1.0000
  I   I4        1.0  0.9865310393824273  0.3294431647438003  0.05186928535358248  1.0000
  I   I5        1.0  0.7861090272409399  0.6211182611782392  0.5910750614923399  1.0000
  I   I6        1.0  0.7861158818466548  0.12111811863010052  0.9089330884046515  1.0000
  I   I7        1.0  0.21388845444120363  0.3788816787701777  0.4089251682976637  1.0000
  I   I8        1.0  0.21389131089227925  0.878882600749236  0.09106714140494887  1.0000
  N   N1        1.0  0.5296110863860266  0.321550569203339  0.7203885795158411  1.0000
  N   N2        1.0  0.5296215186874207  0.8215447282029446  0.779620661289165  1.0000
  N   N3        1.0  0.47038204109908577  0.6784524724611529  0.2796174476821206  1.0000
  N   N4        1.0  0.47038238315272446  0.1784497832547416  0.22038174256958595  1.0000
  N   N5        1.0  0.49882700496966237  0.5318823651387136  0.7736581922674544  1.0000
  N   N6        1.0  0.49883631978485715  0.031873430361073915  0.7263420000420451  1.0000
  N   N7        1.0  0.501174213189195  0.46812688623401044  0.22634276217811322  1.0000
  N   N8        1.0  0.5011652933856539  0.968121856107139  0.2736546063804183  1.0000
