data_image0
_chemical_formula_structural       Cd2H40C40N28O4
_chemical_formula_sum              "Cd2 H40 C40 N28 O4"
_cell_length_a       5.535266818
_cell_length_b       14.838854980423228
_cell_length_c       15.599
_cell_angle_alpha    116.77177970750208
_cell_angle_beta     90.0
_cell_angle_gamma    90.0

_space_group_name_H-M_alt    "P 1"
_space_group_IT_number       1

loop_
  _space_group_symop_operation_xyz
  'x, y, z'

loop_
  _atom_site_type_symbol
  _atom_site_label
  _atom_site_symmetry_multiplicity
  _atom_site_fract_x
  _atom_site_fract_y
  _atom_site_fract_z
  _atom_site_occupancy
  Cd  Cd1       1.0  1.2646183520799998e-05  3.0192677797999995e-06  0.999998729452628  1.0000
  Cd  Cd2       1.0  0.4999975775332146  0.5000013121360353  0.5000038316747039  1.0000
  H   H1        1.0  0.614207067479434  0.0804642412071814  0.8633983934785834  1.0000
  H   H2        1.0  0.11420948994621942  0.4195385805627437  0.6365983922550741  1.0000
  H   H3        1.0  0.38581699314932644  0.9195353637971093  0.13659771908348958  1.0000
  H   H4        1.0  0.8857983113037378  0.5804647985262719  0.3634044659903354  1.0000
  H   H5        1.0  0.8157005160649858  0.7820009229746105  0.7919244883098744  1.0000
  H   H6        1.0  0.3157029385317713  0.7180015037996057  0.7080786670536273  1.0000
  H   H7        1.0  0.1843145115755433  0.2179956627619006  0.2080696894659013  1.0000
  H   H8        1.0  0.6842940231323098  0.28200263010635496  0.29193092528903014  1.0000
  H   H9        1.0  0.1706710861575687  0.9938629432373814  0.7430996873559651  1.0000
  H   H10       1.0  0.6706849230695937  0.5061372190859997  0.7569037798513281  1.0000
  H   H11       1.0  0.8293385216900333  0.0061359069499645  0.2569050767105097  1.0000
  H   H12       1.0  0.3293138451921322  0.4938631407352361  0.24309778467451795  1.0000
  H   H13       1.0  0.2744709604710494  0.8924389450875764  0.6345269469237992  1.0000
  H   H14       1.0  0.7744811841877848  0.6075529142494104  0.8654736036214247  1.0000
  H   H15       1.0  0.7255296143883213  0.1075553761980999  0.36547331229638763  1.0000
  H   H16       1.0  0.2255031312927755  0.3924459359379355  0.13452859617810733  1.0000
  H   H17       1.0  0.1128238295522053  0.13664375682680688  0.7204656972269207  1.0000
  H   H18       1.0  0.6128430862571648  0.36334774268893705  0.7795300834587807  1.0000
  H   H19       1.0  0.8871659057212967  0.8633505644588624  0.2795345619932591  1.0000
  H   H20       1.0  0.3871592951998508  0.6366450689628493  0.22046375930101197  1.0000
  H   H21       1.0  0.2475616885429801  0.25876030672053923  0.6625385750647227  1.0000
  H   H22       1.0  0.7475935914314603  0.24123647651382635  0.8374601106969595  1.0000
  H   H23       1.0  0.7524190137422906  0.7412362790159717  0.3374594491114635  1.0000
  H   H24       1.0  0.2524196296114312  0.7587563351379598  0.162536296329769  1.0000
  H   H25       1.0  0.8883347743978618  0.0814024786704337  0.5441863390081779  1.0000
  H   H26       1.0  0.3883498430481609  0.4186003430994916  0.9558194216597757  1.0000
  H   H27       1.0  0.1116603806685745  0.918599390784692  0.4558203598445941  1.0000
  H   H28       1.0  0.6116398922253339  0.5814000167217444  0.0441770143321918  1.0000
  H   H29       1.0  0.7492267557028923  0.9567689740847027  0.5987888070351062  1.0000
  H   H30       1.0  0.2492273715720259  0.5432281689708985  0.9012114432524143  1.0000
  H   H31       1.0  0.2507738191564783  0.04323138573653299  0.4012153217576825  1.0000
  H   H32       1.0  0.7507677834944104  0.4567729456672893  0.09878275190250461  1.0000
  H   H33       1.0  0.6005582222685177  0.15349051623341128  0.06005242949386512  1.0000
  H   H34       1.0  0.1005317391729719  0.3465055121840094  0.43995490777221147  1.0000
  H   H35       1.0  0.3994658383602427  0.8465121080386666  0.939948182121448  1.0000
  H   H36       1.0  0.8994616092958124  0.6534940928202815  0.5600482565239489  1.0000
  H   H37       1.0  0.8358928579475062  0.20367603048882896  0.11870677105063268  1.0000
  H   H38       1.0  0.3358645682543155  0.29632905573193813  0.38130060097373086  1.0000
  H   H39       1.0  0.164123976290675  0.7963311226849186  0.8812996275444437  1.0000
  H   H40       1.0  0.6641269736168312  0.7036735685401394  0.6187025749085252  1.0000
  C   C1        1.0  0.6274855601730422  0.9989768280431404  0.8292700260951025  1.0000
  C   C2        1.0  0.127484369444538  0.5010263535480277  0.6707302473646167  1.0000
  C   C3        1.0  0.37254753344394226  0.0010227769611504  0.1707312150008562  1.0000
  C   C4        1.0  0.8725107856218983  0.4989777803579399  0.3292793449780405  1.0000
  C   C5        1.0  0.7306513187130007  0.8474178883732648  0.7909042831184651  1.0000
  C   C6        1.0  0.2306429015939102  0.6525928413873601  0.709097301439961  1.0000
  C   C7        1.0  0.26936912872047  0.15258020699713623  0.20909246471730114  1.0000
  C   C8        1.0  0.7693486402772365  0.34741657623722216  0.2909119906449932  1.0000
  C   C9        1.0  0.328668889832727  0.9633977765000805  0.6960038077419455  1.0000
  C   C10       1.0  0.8286809201471071  0.536597856921631  0.8039964367525344  1.0000
  C   C11       1.0  0.6713443312101575  0.03659880923643039  0.3039954985677086  1.0000
  C   C12       1.0  0.1713268811028428  0.4633979739979352  0.19600318719396634  1.0000
  C   C13       1.0  0.4210257746603148  0.038839860747614786  0.6638505628642619  1.0000
  C   C14       1.0  0.9210414181699917  0.4611554128528538  0.8361423475037527  1.0000
  C   C15       1.0  0.57896396061318  0.9611582346227862  0.3361442617712953  1.0000
  C   C16       1.0  0.0789338643223445  0.5388426825175471  0.163858246732417  1.0000
  C   C17       1.0  0.2826837533669888  0.12424060477836457  0.6814745795248245  1.0000
  C   C18       1.0  0.782695783681369  0.3757471206526546  0.8185170197444833  1.0000
  C   C19       1.0  0.7173005621135715  0.8757476779717448  0.31851604052214805  1.0000
  C   C20       1.0  0.2173065977756465  0.6242517295346914  0.18148261578811284  1.0000
  C   C21       1.0  0.3588752024636364  0.19320898390559185  0.6493022226208894  1.0000
  C   C22       1.0  0.8589161383403408  0.3067885541457186  0.8507012740378245  1.0000
  C   C23       1.0  0.6411054998216343  0.8067845825631392  0.35069322570225847  1.0000
  C   C24       1.0  0.1410916629096093  0.693212560492462  0.14930381925158534  1.0000
  C   C25       1.0  0.5782503545432505  0.1783504123334367  0.5996628595249194  1.0000
  C   C26       1.0  0.0782563902053255  0.3216524094364955  0.9003390547426235  1.0000
  C   C27       1.0  0.4217303477420202  0.8216393800505699  0.4003322537822386  1.0000
  C   C28       1.0  0.92172611867759  0.6783562533711418  0.09966350324508967  1.0000
  C   C29       1.0  0.7181749553739394  0.09283871021170138  0.5826958310121314  1.0000
  C   C30       1.0  0.21817557124308  0.4071633567412859  0.91730832409246  1.0000
  C   C31       1.0  0.2818310392783658  0.9071624044264863  0.41730541587687503  1.0000
  C   C32       1.0  0.7818268102139356  0.5928445512494065  0.08269839793250354  1.0000
  C   C33       1.0  0.6401606492530973  0.0236280348449682  0.6140226527084496  1.0000
  C   C34       1.0  0.1401739113057516  0.4763800706435787  0.8859828077018008  1.0000
  C   C35       1.0  0.3598308926180493  0.9763700605254326  0.3859753772607775  1.0000
  C   C36       1.0  0.8598049843818742  0.5236225536284919  0.11402100924718889  1.0000
  C   C37       1.0  0.6601072938558374  0.25030409248010693  0.5656912653800462  1.0000
  C   C38       1.0  0.1601241691037814  0.24969193593730665  0.934311584418879  1.0000
  C   C39       1.0  0.3398842480153021  0.7496932480733491  0.43430644115929345  1.0000
  C   C40       1.0  0.8398854387438134  0.7503106883347641  0.06569287359684488  1.0000
  N   N1        1.0  0.7670867800252096  0.9444284718427338  0.8582885381168242  1.0000
  N   N2        1.0  0.267089202491988  0.5555799934670488  0.6417114350851918  1.0000
  N   N3        1.0  0.2329228278223923  0.055570378344612  0.14170276354821004  1.0000
  N   N4        1.0  0.7329204053556069  0.44443093379142334  0.35829722172607603  1.0000
  N   N5        1.0  0.5117874337670258  0.9369482359128367  0.7484258698489086  1.0000
  N   N6        1.0  0.0117880496361664  0.5630519264105445  0.7515718277577649  1.0000
  N   N7        1.0  0.4882312070688002  0.063051369091454  0.2515683195129554  1.0000
  N   N8        1.0  0.9882107186255594  0.4369461689598566  0.24842556114472816  1.0000
  N   N9        1.0  0.5779125207835634  0.8394900459946795  0.7221922146680982  1.0000
  N   N10       1.0  0.0779022970668279  0.6605131355964813  0.7778106230585565  1.0000
  N   N11       1.0  0.4220952804663867  0.16051031382655617  0.27780229812366747  1.0000
  N   N12       1.0  0.9220784052184428  0.3394894886755892  0.2221931938904333  1.0000
  N   N13       1.0  0.5488768834268711  0.3386629641202674  0.5859848167348218  1.0000
  N   N14       1.0  0.0489009850653943  0.16133759319882296  0.9140193325767214  1.0000
  N   N15       1.0  0.4511110452489858  0.6613328667992988  0.4140167304118805  1.0000
  N   N16       1.0  0.9511104293798454  0.8386680503410345  0.08598064955795343  1.0000
  N   N17       1.0  0.8544538421562322  0.23614976511810676  0.5079883825471896  1.0000
  N   N18       1.0  0.354461684415952  0.2638538114687705  0.9920132140835067  1.0000
  N   N19       1.0  0.1455376997149145  0.763850594703136  0.49201382304539015  1.0000
  N   N20       1.0  0.6455406970410635  0.7361563609727568  0.007984862230110017  1.0000
  N   N21       1.0  0.6782184352508693  0.3786576947944979  0.5392057962797594  1.0000
  N   N22       1.0  0.1782407302917477  0.1213398432568127  0.9607944950452778  1.0000
  N   N23       1.0  0.3217676868273429  0.6213373813081162  0.4607967095705235  1.0000
  N   N24       1.0  0.8217742973487887  0.878662781015265  0.03919906483594803  1.0000
  N   N25       1.0  0.8598917010688538  0.3173341016912943  0.4922504919347902  1.0000
  N   N26       1.0  0.3599176093050289  0.18266721044474818  0.007752698673179706  1.0000
  N   N27       1.0  0.1400890012164169  0.6826647484960517  0.5077536310649509  1.0000
  N   N28       1.0  0.6400992249331523  0.8173376782781645  0.9922424725644632  1.0000
  O   O1        1.0  0.7457093100873137  0.1396735920460443  0.09163509039753141  1.0000
  O   O2        1.0  0.24567198740589896  0.3603247008222112  0.4083712939580125  1.0000
  O   O3        1.0  0.2543165571390915  0.8603282774090814  0.9083607103207499  1.0000
  O   O4        1.0  0.7543159412699509  0.6396741493651348  0.5916315469082535  1.0000
