data_image0
_chemical_formula_structural       Al2H18C32O10
_chemical_formula_sum              "Al2 H18 C32 O10"
_cell_length_a       6.682116643098925
_cell_length_b       17.829088869476497
_cell_length_c       17.828913234091587
_cell_angle_alpha    91.76239682626347
_cell_angle_beta     79.19928947075286
_cell_angle_gamma    79.19653992772712

_space_group_name_H-M_alt    "P 1"
_space_group_IT_number       1

loop_
  _space_group_symop_operation_xyz
  'x, y, z'

loop_
  _atom_site_type_symbol
  _atom_site_label
  _atom_site_symmetry_multiplicity
  _atom_site_fract_x
  _atom_site_fract_y
  _atom_site_fract_z
  _atom_site_occupancy
  Al  Al1       1.0  3.930888702547012e-05  0.5000023814364667  0.500007809592944  1.0000
  Al  Al2       1.0  0.5000523456928647  0.49999517895820145  0.4999974760027827  1.0000
  H   H1        1.0  0.3241926047482195  0.4259018827091766  0.4259227588417574  1.0000
  H   H2        1.0  0.6758382478563264  0.5740929949074314  0.5740937627170198  1.0000
  H   H3        1.0  0.814383843544789  0.7317341260650068  0.49785810311556145  1.0000
  H   H4        1.0  0.7401556713032564  0.8747386903245485  0.49952258014809575  1.0000
  H   H5        1.0  0.3858145733909809  0.8747436996630925  0.49925714011764216  1.0000
  H   H6        1.0  0.4563421624109838  0.7317317907918622  0.49757045646175174  1.0000
  H   H7        1.0  0.6141734425449884  0.12527815432459022  0.5007878753115806  1.0000
  H   H8        1.0  0.5437299050235183  0.2682920085450108  0.5024365974523164  1.0000
  H   H9        1.0  0.1857774525874234  0.2682229762801427  0.5020848866045782  1.0000
  H   H10       1.0  0.25987858579177475  0.1252342141719467  0.5004357552588701  1.0000
  H   H11       1.0  0.1857368185881541  0.5021346039751934  0.26823762123184036  1.0000
  H   H12       1.0  0.2598448891519285  0.5005159859748646  0.12524530579830892  1.0000
  H   H13       1.0  0.6141561913454937  0.5007774786013075  0.1252791207482673  1.0000
  H   H14       1.0  0.5437709913733428  0.5024014722336505  0.2682830622861872  1.0000
  H   H15       1.0  0.38582345818128516  0.49925134985107894  0.8747469043427856  1.0000
  H   H16       1.0  0.45636818084410197  0.4975496185032002  0.7317428145192582  1.0000
  H   H17       1.0  0.8143590274468266  0.4979337494110396  0.7317444882555082  1.0000
  H   H18       1.0  0.7401186960002588  0.49961592832080753  0.8747416393641886  1.0000
  C   C1        1.0  0.8183735359374112  0.501861371048115  0.36153977603331106  1.0000
  C   C2        1.0  0.8183445253011855  0.361539538515963  0.5018860091216129  1.0000
  C   C3        1.0  0.18175343327519775  0.49813309821306007  0.6384597874231517  1.0000
  C   C4        1.0  0.18178643426967522  0.6384559998141627  0.49811047203674985  1.0000
  C   C5        1.0  0.13941463867627865  0.7235445238423637  0.4977250030672878  1.0000
  C   C6        1.0  0.9376239530049164  0.7639394351077514  0.49821790647455105  1.0000
  C   C7        1.0  0.8968177261260378  0.843246974102904  0.49906165185309714  1.0000
  C   C8        1.0  0.058150492406191724  0.8843394736944604  0.49936269748147327  1.0000
  C   C9        1.0  0.2611164334626397  0.8432371812376332  0.4989109177908447  1.0000
  C   C10       1.0  0.30048725459256814  0.7639518272770333  0.49806200256608696  1.0000
  C   C11       1.0  0.017445501483905525  0.9651085598971036  0.4998998801270533  1.0000
  C   C12       1.0  0.9825069593579415  0.0348786711887712  0.5001075921058273  1.0000
  C   C13       1.0  0.9418185814056346  0.1156566462138144  0.5006341148977924  1.0000
  C   C14       1.0  0.7389135359946695  0.1567593455148  0.5011028732275379  1.0000
  C   C15       1.0  0.6996091520699609  0.2360662000177953  0.5019427131864376  1.0000
  C   C16       1.0  0.8606480545416916  0.2764502777264611  0.5022645606586666  1.0000
  C   C17       1.0  0.062490375406376614  0.2360261960535084  0.5017470085574589  1.0000
  C   C18       1.0  0.10326200336078273  0.15673534870225578  0.5009080937111889  1.0000
  C   C19       1.0  0.8606929404707347  0.5022613463360059  0.2764468699837296  1.0000
  C   C20       1.0  0.06245763535824278  0.5017851482675156  0.2360465350011084  1.0000
  C   C21       1.0  0.10320421872632592  0.5009672877350014  0.15674450668149123  1.0000
  C   C22       1.0  0.9418257161070047  0.5006873784311522  0.11565339342834592  1.0000
  C   C23       1.0  0.7388984576778199  0.5011141983989519  0.15677384664235217  1.0000
  C   C24       1.0  0.6995970374925095  0.5019288218820818  0.23606084645614098  1.0000
  C   C25       1.0  0.9824994532279447  0.500185412212275  0.03489166776174814  1.0000
  C   C26       1.0  0.017465221341005636  0.49997396083882256  0.9651200802110868  1.0000
  C   C27       1.0  0.05815790950330782  0.499415138859476  0.8843470620839613  1.0000
  C   C28       1.0  0.26112098511590914  0.4989228668025518  0.8432381772922073  1.0000
  C   C29       1.0  0.3005008127849039  0.498057392209887  0.7639519565811244  1.0000
  C   C30       1.0  0.13939570810899235  0.49774229514859775  0.7235538088994107  1.0000
  C   C31       1.0  0.9376087831700062  0.498272556079833  0.763944330759465  1.0000
  C   C32       1.0  0.8967890920047311  0.4991283529592608  0.8432552092272518  1.0000
  O   O1        1.0  0.9719904565948025  0.5011929680341255  0.3946553763064886  1.0000
  O   O2        1.0  0.6323073310698958  0.39463587464026534  0.5011514501267059  1.0000
  O   O3        1.0  0.3676909248145676  0.4989565074389477  0.6053628118115528  1.0000
  O   O4        1.0  0.028132385822083043  0.6053477287921112  0.49888150330901493  1.0000
  O   O5        1.0  0.028109764534924964  0.4988119449840482  0.60535065755915  1.0000
  O   O6        1.0  0.36780015366395  0.6053548345639683  0.49883432839069297  1.0000
  O   O7        1.0  0.6324185358554929  0.5010277695698022  0.3946407336113823  1.0000
  O   O8        1.0  0.9719467050260138  0.3946510267656508  0.5011299215543731  1.0000
  O   O9        1.0  0.2836806744926862  0.46636264972192976  0.46637569760750364  1.0000
  O   O10       1.0  0.7163957095117511  0.5336383297756485  0.5336331308801407  1.0000
