data_image0
_chemical_formula_structural       Cd2H32C36N4O12
_chemical_formula_sum              "Cd2 H32 C36 N4 O12"
_cell_length_a       7.073412731234638
_cell_length_b       9.994025752192345
_cell_length_c       12.194876315488049
_cell_angle_alpha    93.29462796886096
_cell_angle_beta     101.9266976707426
_cell_angle_gamma    90.6035858635191

_space_group_name_H-M_alt    "P 1"
_space_group_IT_number       1

loop_
  _space_group_symop_operation_xyz
  'x, y, z'

loop_
  _atom_site_type_symbol
  _atom_site_label
  _atom_site_symmetry_multiplicity
  _atom_site_fract_x
  _atom_site_fract_y
  _atom_site_fract_z
  _atom_site_occupancy
  Cd  Cd1       1.0  0.16971488412999486  0.015693865697997505  0.2399953695469961  1.0000
  Cd  Cd2       1.0  0.8302859463845919  0.9843065356719479  0.760004776831792  1.0000
  H   H1        1.0  0.9735317171498606  0.4932074799745435  0.08907376933056807  1.0000
  H   H2        1.0  0.026467640510652802  0.5067919152733324  0.9109261648964306  1.0000
  H   H3        1.0  0.7585891083979204  0.6875421790411524  0.10033908688409092  1.0000
  H   H4        1.0  0.24140733142039741  0.31245620645986355  0.8996604692337157  1.0000
  H   H5        1.0  0.4368972274854669  0.6530334903727635  0.1464069948467639  1.0000
  H   H6        1.0  0.5631021845002591  0.3469669181040871  0.8535946291943687  1.0000
  H   H7        1.0  0.3278952877618551  0.4208461859179379  0.1789297464593886  1.0000
  H   H8        1.0  0.6721040273964219  0.5791512097012086  0.8210709171886917  1.0000
  H   H9        1.0  0.11335173195327289  0.6923811834682638  0.2114891731998583  1.0000
  H   H10       1.0  0.8866477650369473  0.3076232242660453  0.7885109919991109  1.0000
  H   H11       1.0  0.11893820289469659  0.48903244755917546  0.32437260385579947  1.0000
  H   H12       1.0  0.8810583908896347  0.5109719475597174  0.6756264076185018  1.0000
  H   H13       1.0  0.1818681324946212  0.5247232282895595  0.5356637948508265  1.0000
  H   H14       1.0  0.8181312544385051  0.4752781612211974  0.46433458814522766  1.0000
  H   H15       1.0  0.22902633886899781  0.7553894684657152  0.622753025562659  1.0000
  H   H16       1.0  0.7709730745234037  0.2446119317767312  0.3772470010531279  1.0000
  H   H17       1.0  0.2561344352133901  0.9479343027294574  0.6838748508989028  1.0000
  H   H18       1.0  0.743864935676761  0.05206509788425961  0.3161259051379658  1.0000
  H   H19       1.0  0.3374272475862412  0.1831459289394246  0.7513728463756593  1.0000
  H   H20       1.0  0.6625735961579833  0.8168544777963688  0.24862812181300598  1.0000
  H   H21       1.0  0.37041772367658865  0.353814977363804  0.6126734630582362  1.0000
  H   H22       1.0  0.6295860511394763  0.646186444484691  0.38732870504948375  1.0000
  H   H23       1.0  0.30647264746495745  0.276494737951495  0.40593747528243534  1.0000
  H   H24       1.0  0.693529654497034  0.7235056777749307  0.5940644806734879  1.0000
  H   H25       1.0  0.42430195568258705  0.9558734989449537  0.10911423133052979  1.0000
  H   H26       1.0  0.5757002919541918  0.0441259035524908  0.8908860348112668  1.0000
  H   H27       1.0  0.7758650952083457  0.9810728965349398  0.1100856323360873  1.0000
  H   H28       1.0  0.22413569421066623  0.0189264969718721  0.8899136460384512  1.0000
  H   H29       1.0  0.9069634983898708  0.8862891942317291  0.04841779732636546  1.0000
  H   H30       1.0  0.09303873601727018  0.1137102028998669  0.9515816470055682  1.0000
  H   H31       1.0  0.2424823920138621  0.8540457817464644  0.05765552039557781  1.0000
  H   H32       1.0  0.7575184385007245  0.145954619623474  0.9423446259832176  1.0000
  C   C1        1.0  0.9115176276714507  0.23717905538510567  0.1333690114626407  1.0000
  C   C2        1.0  0.08848314851792338  0.7628203327558581  0.8666294451020277  1.0000
  C   C3        1.0  0.772071290215166  0.3498698143006109  0.12880498213507247  1.0000
  C   C4        1.0  0.22792655349570615  0.6501275669620553  0.8711938719358798  1.0000
  C   C5        1.0  0.8315334823102629  0.47858802339258216  0.10919484063706615  1.0000
  C   C6        1.0  0.16846584889098182  0.5214113611235975  0.8908034499702069  1.0000
  C   C7        1.0  0.711411587819718  0.5873394486280575  0.11575071656901766  1.0000
  C   C8        1.0  0.2885833805511949  0.41265892251648484  0.8842470299716609  1.0000
  C   C9        1.0  0.5306995734760844  0.5677519152716785  0.14244404665878108  1.0000
  C   C10       1.0  0.46929972845255447  0.4322454749816202  0.8575557951794366  1.0000
  C   C11       1.0  0.4700819563771929  0.4392417004588934  0.16060203235681308  1.0000
  C   C12       1.0  0.5299159151996166  0.5607566833010651  0.8393968679085262  1.0000
  C   C13       1.0  0.588408703417187  0.329075366715621  0.15285610150467474  1.0000
  C   C14       1.0  0.4115877378077996  0.6709240105509907  0.8471418571878004  1.0000
  C   C15       1.0  0.512177744362276  0.19092373109571528  0.16541727462733744  1.0000
  C   C16       1.0  0.4878216000686065  0.8090756587863125  0.8345818377897983  1.0000
  C   C17       1.0  0.14122887349397928  0.7011774898195355  0.3029708420659531  1.0000
  C   C18       1.0  0.8587706645918229  0.2988279257779071  0.6970301911372658  1.0000
  C   C19       1.0  0.14497655091902567  0.5888758239046156  0.36608763773840275  1.0000
  C   C20       1.0  0.8550214042556089  0.4111255673472057  0.6339114011101188  1.0000
  C   C21       1.0  0.1788500563806038  0.6091864715426638  0.48271503819058376  1.0000
  C   C22       1.0  0.8211493570117978  0.3908149286997827  0.5172849884252031  1.0000
  C   C23       1.0  0.20677823263181944  0.7389054094417062  0.5320155932784019  1.0000
  C   C24       1.0  0.7932240839664785  0.2610960034161565  0.4679855870620456  1.0000
  C   C25       1.0  0.20377447332221976  0.8464558050565643  0.46282590730601203  1.0000
  C   C26       1.0  0.7962235375842963  0.15354759118982736  0.5371732239312976  1.0000
  C   C27       1.0  0.24254200249839633  0.9871374266663792  0.5092176998618996  1.0000
  C   C28       1.0  0.7574573948510305  0.012861984679034301  0.49078469979470185  1.0000
  C   C29       1.0  0.27002086707592093  0.022282890346652102  0.6242331495567157  1.0000
  C   C30       1.0  0.7299829223764431  0.97771952863328  0.3757682429355285  1.0000
  C   C31       1.0  0.31511050386799855  0.1551338695997586  0.6621504558435589  1.0000
  C   C32       1.0  0.6848903252399197  0.8448655400045911  0.3378512879605751  1.0000
  C   C33       1.0  0.3312730391204184  0.24980299144577606  0.5848889358830291  1.0000
  C   C34       1.0  0.6687292774778798  0.7501984214120868  0.4151122444574185  1.0000
  C   C35       1.0  0.2974044483774492  0.20805419638118397  0.4713125388088741  1.0000
  C   C36       1.0  0.7025978403549047  0.7919462139793938  0.5286885953371865  1.0000
  N   N1        1.0  0.17053926080612306  0.8258479953858354  0.3501067307064218  1.0000
  N   N2        1.0  0.8294601790455474  0.1741534155883073  0.6498949395290978  1.0000
  N   N3        1.0  0.25415795429205446  0.08017747661750009  0.4349919333508723  1.0000
  N   N4        1.0  0.7458415280618667  0.9198259339853649  0.5650090074635727  1.0000
  O   O1        1.0  0.9696539502010136  0.1938643041379606  0.23077513874714126  1.0000
  O   O2        1.0  0.030348326708370593  0.8061370926223647  0.7692235761637107  1.0000
  O   O3        1.0  0.33234329442186095  0.8874004119198132  0.1279739932296451  1.0000
  O   O4        1.0  0.6676574803608445  0.11259798445555451  0.8720260607603619  1.0000
  O   O5        1.0  0.8773966837930658  0.9131628563499704  0.12226479377010689  1.0000
  O   O6        1.0  0.12260557848001237  0.08683754327891081  0.877734696756221  1.0000
  O   O7        1.0  0.9636842023304623  0.19615253636069951  0.04406708708943086  1.0000
  O   O8        1.0  0.036315142100420396  0.8038468535213285  0.955932025327705  1.0000
  O   O9        1.0  0.3905148992987577  0.18445948793972636  0.2285447157076703  1.0000
  O   O10       1.0  0.6094844026298816  0.8155379023135721  0.7714551261305473  1.0000
  O   O11       1.0  0.5695908951748976  0.09100150761310033  0.11161730466989887  1.0000
  O   O12       1.0  0.430412782813704  0.9089969013776839  0.888383903044776  1.0000
