data_image0
_chemical_formula_structural       Cd4H36C20O26
_chemical_formula_sum              "Cd4 H36 C20 O26"
_cell_length_a       8.70341938603775
_cell_length_b       9.352805803369478
_cell_length_c       10.897176222684784
_cell_angle_alpha    88.43175139350414
_cell_angle_beta     83.46276203972194
_cell_angle_gamma    67.74306754567617

_space_group_name_H-M_alt    "P 1"
_space_group_IT_number       1

loop_
  _space_group_symop_operation_xyz
  'x, y, z'

loop_
  _atom_site_type_symbol
  _atom_site_label
  _atom_site_symmetry_multiplicity
  _atom_site_fract_x
  _atom_site_fract_y
  _atom_site_fract_z
  _atom_site_occupancy
  Cd  Cd1       1.0  0.32133727751649127  0.9496831956967069  0.011450265707488019  1.0000
  Cd  Cd2       1.0  0.6786620722731415  0.050313024070234705  0.9885511141388862  1.0000
  Cd  Cd3       1.0  0.6973608396838246  0.2064499322734576  0.516005935977887  1.0000
  Cd  Cd4       1.0  0.3026374059149148  0.7935567377428328  0.4839933120210134  1.0000
  H   H1        1.0  0.16174184575514516  0.8706557165409733  0.8379792590352793  1.0000
  H   H2        1.0  0.8382587937709403  0.1293428370818077  0.16202007829673457  1.0000
  H   H3        1.0  0.34852329510758995  0.8061519822126542  0.7750677855624133  1.0000
  H   H4        1.0  0.6514750667770244  0.1938464848979322  0.22493084587144807  1.0000
  H   H5        1.0  0.3003610938149209  0.6861037907402616  0.08648831638054591  1.0000
  H   H6        1.0  0.6996400058774414  0.3138937325562949  0.913516524880457  1.0000
  H   H7        1.0  0.11609001414871041  0.7818065347248011  0.044619892641435406  1.0000
  H   H8        1.0  0.883912748349111  0.218189825182165  0.9553830049102603  1.0000
  H   H9        1.0  0.7089580399251435  0.8940311397546664  0.4693287764066483  1.0000
  H   H10       1.0  0.291034492799767  0.1059753658397966  0.5306710011372715  1.0000
  H   H11       1.0  0.8871075165549128  0.9096100974963974  0.4243154638622785  1.0000
  H   H12       1.0  0.11288549886042888  0.0903953155414357  0.5756870644621443  1.0000
  H   H13       1.0  0.8722054331665063  0.14885835128066557  0.7428235989620191  1.0000
  H   H14       1.0  0.12779087031948677  0.8511448386953262  0.25717963052458975  1.0000
  H   H15       1.0  0.938671178927656  0.9921688739479891  0.6631825560115489  1.0000
  H   H16       1.0  0.061322349210328794  0.007835363559365798  0.3368190522287264  1.0000
  H   H17       1.0  0.5218887319888665  0.4539659896402314  0.3301774232006522  1.0000
  H   H18       1.0  0.4781059612480404  0.5460382185210902  0.6698213259821344  1.0000
  H   H19       1.0  0.421480613861057  0.351472370209393  0.38175778248819375  1.0000
  H   H20       1.0  0.5785168547238655  0.6485307904205654  0.6182425879409266  1.0000
  H   H21       1.0  0.09041506472817665  0.4343929083642237  0.12154869001947331  1.0000
  H   H22       1.0  0.9095877052776941  0.5656034307992782  0.8784532898160577  1.0000
  H   H23       1.0  0.1237958634233394  0.36151931641317947  0.334399298614855  1.0000
  H   H24       1.0  0.8762056402138327  0.6384852135151249  0.665604321410882  1.0000
  H   H25       1.0  0.04013564873108063  0.6279923219705665  0.2847617682889521  1.0000
  H   H26       1.0  0.9598636223129373  0.3720119969847532  0.7152356395416533  1.0000
  H   H27       1.0  0.9245691637827278  0.6197914847066954  0.42628599775335374  1.0000
  H   H28       1.0  0.07543124232800115  0.3802128878764535  0.5737122218844135  1.0000
  H   H29       1.0  0.7750291581192528  0.8103691174979275  0.26474459282391655  1.0000
  H   H30       1.0  0.22496820835228698  0.18963161769976725  0.7352522079135894  1.0000
  H   H31       1.0  0.8769647426276707  0.6710428644062459  0.08396103180650273  1.0000
  H   H32       1.0  0.12303425661711742  0.3289567903757272  0.9160374960863394  1.0000
  H   H33       1.0  0.8387622454618012  0.4368266063035833  0.025413304423430805  1.0000
  H   H34       1.0  0.16124612028841057  0.5631675133364169  0.9745864116077882  1.0000
  H   H35       1.0  0.7401772797757146  0.4251137435473212  0.17287266233476833  1.0000
  H   H36       1.0  0.2598288083330189  0.5748802895804771  0.8271263477983055  1.0000
  C   C1        1.0  0.004241441080083109  0.38351276059034217  0.1688943591088403  1.0000
  C   C2        1.0  0.9957618416484312  0.6164824030426814  0.8311067006425432  1.0000
  C   C3        1.0  0.9966160604646248  0.4183297894401222  0.3069742329918911  1.0000
  C   C4        1.0  0.0033869663243706032  0.5816712553836538  0.6930284622137322  1.0000
  C   C5        1.0  0.9393946552967167  0.5930226185183755  0.3275081191854738  1.0000
  C   C6        1.0  0.06060511345383195  0.40698056639338626  0.6724902039933127  1.0000
  C   C7        1.0  0.7779417339813789  0.691678923407025  0.27080168266875404  1.0000
  C   C8        1.0  0.22205610767254302  0.3083207399775176  0.7291987865654121  1.0000
  C   C9        1.0  0.7807555003648471  0.6377449309501699  0.13796744929784674  1.0000
  C   C10       1.0  0.21924830259435885  0.36224903640890455  0.8620317726532248  1.0000
  C   C11       1.0  0.8338969177781904  0.464158972473399  0.1232445669496443  1.0000
  C   C12       1.0  0.16610636495032338  0.5358361911596176  0.8767564928017393  1.0000
  C   C13       1.0  0.08973471877094849  0.21423398661418253  0.1324153713720477  1.0000
  C   C14       1.0  0.9102685414334034  0.7857612392492256  0.8675884415278219  1.0000
  C   C15       1.0  0.8915511831835942  0.34391957981246424  0.3853762402534358  1.0000
  C   C16       1.0  0.10844805032016312  0.6560848428601814  0.6146257561579844  1.0000
  C   C17       1.0  0.6191678584843031  0.7105616310383096  0.3549971717004823  1.0000
  C   C18       1.0  0.3808312653980154  0.28944038694553587  0.6450021727354881  1.0000
  C   C19       1.0  0.6194485185257859  0.7281567510863809  0.08329121502915632  1.0000
  C   C20       1.0  0.38055351951458494  0.2718359542300065  0.9167063809396155  1.0000
  O   O1        1.0  0.26422606754056227  0.8930461377203757  0.8258791172375481  1.0000
  O   O2        1.0  0.7357745794935795  0.1069523951589417  0.17411930237830828  1.0000
  O   O3        1.0  0.19509848553666131  0.7748808687185331  0.10726257258580321  1.0000
  O   O4        1.0  0.8049036320929303  0.22511432426051667  0.892741346223069  1.0000
  O   O5        1.0  0.786042853908725  0.9471592691619579  0.48459378713366863  1.0000
  O   O6        1.0  0.21394637572942082  0.05284950098128151  0.5154071246803867  1.0000
  O   O7        1.0  0.9079389125315063  0.10542156632787682  0.6574145427012894  1.0000
  O   O8        1.0  0.09205803582271697  0.8945827905760382  0.3425876655281357  1.0000
  O   O9        1.0  0.5276781763833823  0.34612382984506235  0.33736844940458616  1.0000
  O   O10       1.0  0.47231602665503647  0.6538814916163531  0.6626284667138551  1.0000
  O   O11       1.0  0.025239638568088182  0.15439986387533372  0.05655822927126051  1.0000
  O   O12       1.0  0.9747680597897316  0.845593151067142  0.9434452611656283  1.0000
  O   O13       1.0  0.2315353349620537  0.13890799934260653  0.16702424154773612  1.0000
  O   O14       1.0  0.7684687022561149  0.8610907359071331  0.8329784489219206  1.0000
  O   O15       1.0  0.9056277090308315  0.20789062319386184  0.3537029154237032  1.0000
  O   O16       1.0  0.09437102676638168  0.7921149335223348  0.6462981656395358  1.0000
  O   O17       1.0  0.7938793641724969  0.4154729926145606  0.4785965404760475  1.0000
  O   O18       1.0  0.20611759919783165  0.5845313228024267  0.5214038323210559  1.0000
  O   O19       1.0  0.5156498868173076  0.6525090314821397  0.3272985501598811  1.0000
  O   O20       1.0  0.4843465788464839  0.3474964179783982  0.6727009072890411  1.0000
  O   O21       1.0  0.5870544700288959  0.7964405577600999  0.45142040807822786  1.0000
  O   O22       1.0  0.4129453062297088  0.20356260640819807  0.5485769973844015  1.0000
  O   O23       1.0  0.5675617214929928  0.8777341416491496  0.0939054164512356  1.0000
  O   O24       1.0  0.4324368813150343  0.1222584857576194  0.9060934149607078  1.0000
  O   O25       1.0  0.5422096344246016  0.662637752470836  0.030784587203015714  1.0000
  O   O26       1.0  0.45779621942516247  0.337351512766304  0.9692109544114729  1.0000
