data_image0
_chemical_formula_structural       Zn2H28C28N2O11
_chemical_formula_sum              "Zn2 H28 C28 N2 O11"
_cell_length_a       10.858017055759838
_cell_length_b       12.78343768460508
_cell_length_c       13.935386835600236
_cell_angle_alpha    85.15421274093832
_cell_angle_beta     89.62122550196204
_cell_angle_gamma    86.72646051462488

_space_group_name_H-M_alt    "P 1"
_space_group_IT_number       1

loop_
  _space_group_symop_operation_xyz
  'x, y, z'

loop_
  _atom_site_type_symbol
  _atom_site_label
  _atom_site_symmetry_multiplicity
  _atom_site_fract_x
  _atom_site_fract_y
  _atom_site_fract_z
  _atom_site_occupancy
  Zn  Zn1       1.0  0.4921403951680078  0.6082632222385911  0.502444088749435  1.0000
  Zn  Zn2       1.0  0.5070151658464894  0.3938853558114346  0.4911111667783388  1.0000
  H   H1        1.0  0.8855005342506671  0.6460058317052173  0.40981211947899965  1.0000
  H   H2        1.0  0.11682673369337239  0.3488345049535154  0.4387615868618298  1.0000
  H   H3        1.0  0.8968236771654219  0.5012573000912469  0.6562987915801841  1.0000
  H   H4        1.0  0.045729632716678716  0.6028112910839097  0.7619433883016029  1.0000
  H   H5        1.0  0.2083339823184573  0.6041077536892346  0.7410397162788486  1.0000
  H   H6        1.0  0.23302982597298438  0.42588228391732497  0.8377120215372358  1.0000
  H   H7        1.0  0.17093032229326607  0.5271414355692557  0.906805446710962  1.0000
  H   H8        1.0  0.07189261443932787  0.4346402278185835  0.8643120121383632  1.0000
  H   H9        1.0  0.5339405596211151  0.2506817340757124  0.944805756045028  1.0000
  H   H10       1.0  0.3716485457813903  0.28117751741284996  0.9418927799309387  1.0000
  H   H11       1.0  0.3536466396499307  0.20122519580755954  0.11292660460701141  1.0000
  H   H12       1.0  0.1149849226410353  0.3377660189090861  0.5658726389535644  1.0000
  H   H13       1.0  0.4206722907401499  0.10807427306902181  0.0367043721714992  1.0000
  H   H14       1.0  0.5158590746282599  0.17060349866087418  0.11575614132811302  1.0000
  H   H15       1.0  0.2088130446709471  0.6454849590162937  0.261920606901242  1.0000
  H   H16       1.0  0.047391927554087894  0.6444392387061838  0.2376404640537189  1.0000
  H   H17       1.0  0.08262138897236332  0.4921206508547725  0.1394177540982113  1.0000
  H   H18       1.0  0.17932478555096046  0.5943902118402279  0.0969292447870131  1.0000
  H   H19       1.0  0.2431379037027099  0.48323355119635647  0.1685564685382204  1.0000
  H   H20       1.0  0.8993234016586482  0.33959094717321386  0.5635262531609371  1.0000
  H   H21       1.0  0.9014107380890621  0.3522224871118382  0.43674910950749535  1.0000
  H   H22       1.0  0.517075557259453  0.6150133656919152  0.9700681770066808  1.0000
  H   H23       1.0  0.6022653581813842  0.0014014237537197  0.4213623367121571  1.0000
  H   H24       1.0  0.39512062443851187  0.0002898425831716999  0.577137746249555  1.0000
  H   H25       1.0  0.8975490584115845  0.5315344016716921  0.34566698136726615  1.0000
  H   H26       1.0  0.10224747601352388  0.6433049192974565  0.41371249342606836  1.0000
  H   H27       1.0  0.883214928515791  0.6280938485731227  0.5934541454353095  1.0000
  H   H28       1.0  0.1000896399612543  0.6284595122375266  0.5876843340291202  1.0000
  C   C1        1.0  0.49890412363117054  0.5346184267057054  0.30950594442453655  1.0000
  C   C2        1.0  0.5003518103803443  0.5482244766455507  0.20611699319846372  1.0000
  C   C3        1.0  0.4626271961728179  0.9691471114953315  0.5269593718364334  1.0000
  C   C4        1.0  0.7390213893484797  0.5042206754852003  0.4995392904673892  1.0000
  C   C5        1.0  0.5348656936328524  0.0326897656853333  0.4715510703573571  1.0000
  C   C6        1.0  0.526440450571549  0.14278204296001457  0.4760727530092268  1.0000
  C   C7        1.0  0.4714704346451272  0.8590896379930298  0.5219821860931049  1.0000
  C   C8        1.0  0.5013196759243498  0.4645142406780849  0.6852718864219582  1.0000
  C   C9        1.0  0.26114897808663773  0.4988768137209902  0.5010944157243884  1.0000
  C   C10       1.0  0.926876759310673  0.5654477105657563  0.41126354282162236  1.0000
  C   C11       1.0  0.069747869662443  0.5632399591230026  0.4116020159416038  1.0000
  C   C12       1.0  0.1206349173424854  0.4961918236932306  0.5016717787562612  1.0000
  C   C13       1.0  0.9257249614891734  0.5483316986324951  0.5910990252322534  1.0000
  C   C14       1.0  0.9349119162993347  0.38643866616962447  0.5007109887523598  1.0000
  C   C15       1.0  0.8799503812866688  0.4999625543149477  0.5009332022314297  1.0000
  C   C16       1.0  0.13082098747713644  0.552142758728273  0.7547769214845844  1.0000
  C   C17       1.0  0.15267465022661497  0.480449264173842  0.846211765250672  1.0000
  C   C18       1.0  0.45263622003209747  0.2684417813911608  0.9895362814506541  1.0000
  C   C19       1.0  0.4346076391061828  0.18215986772702314  0.0687130876410365  1.0000
  C   C20       1.0  0.1335070184514464  0.5940978119743717  0.24756582386893908  1.0000
  C   C21       1.0  0.16105722756422128  0.5371042566770967  0.158023056847334  1.0000
  C   C22       1.0  0.06860226660187861  0.5476419848988314  0.5908443881158618  1.0000
  C   C23       1.0  0.0772184026159621  0.38407630361354705  0.5018711870641894  1.0000
  C   C24       1.0  0.4988282187263665  0.45364384997454715  0.7893088832703512  1.0000
  C   C25       1.0  0.48898699788953337  0.4526517770678923  0.9778186206952029  1.0000
  C   C26       1.0  0.5034508966685749  0.54539411960409  0.018854297196277493  1.0000
  C   C27       1.0  0.5021018324922794  0.550819190744143  0.11825127802008947  1.0000
  C   C28       1.0  0.4942533701013402  0.4500902945548333  0.8769670485478471  1.0000
  N   N1        1.0  0.47799044308395355  0.7685321496586327  0.5182652908696141  1.0000
  N   N2        1.0  0.5208253912988922  0.23341700385719832  0.4789841371995962  1.0000
  O   O1        1.0  0.49414725427635636  0.6174732350321079  0.3551096099132565  1.0000
  O   O2        1.0  0.4702876396533924  0.3639342633800027  0.03553324093346081  1.0000
  O   O3        1.0  0.12153725660736821  0.5183081980251173  0.3283681373733812  1.0000
  O   O4        1.0  0.50280742736458  0.43950089352227906  0.3457892140670822  1.0000
  O   O5        1.0  0.6818700711709695  0.5935584169293121  0.5042159554221115  1.0000
  O   O6        1.0  0.6885530087511712  0.41757670400175323  0.49320397939032296  1.0000
  O   O7        1.0  0.49429023954431267  0.5592397945528801  0.6480065695657444  1.0000
  O   O8        1.0  0.5101045480025518  0.3805549198295282  0.642474853490846  1.0000
  O   O9        1.0  0.30606933160211003  0.5887196376019476  0.5029353217182972  1.0000
  O   O10       1.0  0.3228042092197184  0.4117465205584026  0.498352637425306  1.0000
  O   O11       1.0  0.12025461297334059  0.4893141843875171  0.6751826822123306  1.0000
