data_image0
_chemical_formula_structural       Zn6H52C44O44
_chemical_formula_sum              "Zn6 H52 C44 O44"
_cell_length_a       8.064136418503793
_cell_length_b       12.106883161287646
_cell_length_c       14.207023219006855
_cell_angle_alpha    90.00006929150332
_cell_angle_beta     89.99991067295262
_cell_angle_gamma    90.58833992379783

_space_group_name_H-M_alt    "P 1"
_space_group_IT_number       1

loop_
  _space_group_symop_operation_xyz
  'x, y, z'

loop_
  _atom_site_type_symbol
  _atom_site_label
  _atom_site_symmetry_multiplicity
  _atom_site_fract_x
  _atom_site_fract_y
  _atom_site_fract_z
  _atom_site_occupancy
  Zn  Zn1       1.0  0.8502327495021618  0.32515400737771216  0.22262067025465623  1.0000
  Zn  Zn2       1.0  0.649766611906145  0.1748450729631728  0.7226205683559567  1.0000
  Zn  Zn3       1.0  0.14976823171360107  0.6748460106620939  0.777379175032706  1.0000
  Zn  Zn4       1.0  0.3502331199969218  0.8251541167214708  0.2773792769315334  1.0000
  Zn  Zn5       1.0  0.5000004859962672  0.49999959601157673  0.49999992264346804  1.0000
  Zn  Zn6       1.0  0.0  0.0  0.0  1.0000
  H   H1        1.0  0.9548907371232429  0.44803051032622687  0.3375004881320435  1.0000
  H   H2        1.0  0.545112031490291  0.05196873822933409  0.8375017602032808  1.0000
  H   H3        1.0  0.04511023487025059  0.5519686816964295  0.66249865327768  1.0000
  H   H4        1.0  0.4548889497245128  0.9480312798109695  0.16249878896130093  1.0000
  H   H5        1.0  0.9884208934220807  0.536318661799221  0.2528677295932197  1.0000
  H   H6        1.0  0.5115787578512041  0.9636797747858877  0.7528687509653336  1.0000
  H   H7        1.0  0.0115776076157061  0.46368135156308193  0.7471314118180172  1.0000
  H   H8        1.0  0.48841973396239513  0.03631941256025329  0.2471310943227038  1.0000
  H   H9        1.0  0.4587611018415956  0.5432390156395072  0.6897342908942575  1.0000
  H   H10       1.0  0.0412392301752789  0.9567593343901207  0.18973480160190792  1.0000
  H   H11       1.0  0.5412373899720038  0.4567601717066338  0.3102655543937799  1.0000
  H   H12       1.0  0.9587605017268287  0.04323985529502039  0.8102657475628019  1.0000
  H   H13       1.0  0.5197940875622606  0.4190329440104533  0.6674951992593136  1.0000
  H   H14       1.0  0.9802054148456135  0.08096523296265448  0.16749563883722365  1.0000
  H   H15       1.0  0.4802056443408062  0.5809662456741903  0.3325046460281768  1.0000
  H   H16       1.0  0.019795566369189995  0.919034785077649  0.8325049103273582  1.0000
  H   H17       1.0  0.16856905870236719  0.4478247808479025  0.45947431154336  1.0000
  H   H18       1.0  0.33143016594839747  0.0521746338764757  0.9594739227032458  1.0000
  H   H19       1.0  0.8314306732006997  0.5521744088367413  0.5405255337441301  1.0000
  H   H20       1.0  0.6685695659546695  0.9478245558081679  0.040525922584244284  1.0000
  H   H21       1.0  0.17211833844071114  0.5631286162054181  0.5091828823909024  1.0000
  H   H22       1.0  0.3278825040472739  0.936871132509424  0.009183118985369299  1.0000
  H   H23       1.0  0.8278826427750516  0.43687140183438805  0.4908169628964598  1.0000
  H   H24       1.0  0.6721172186325644  0.06312723115856039  0.9908167263017018  1.0000
  H   H25       1.0  0.0816863693423215  0.29323550959816197  0.5825415712788454  1.0000
  H   H26       1.0  0.4183114115393138  0.20676419755789513  0.08254149115151678  1.0000
  H   H27       1.0  0.9183121224712776  0.706763677747979  0.4174582740091849  1.0000
  H   H28       1.0  0.5816870802733263  0.7932349897887434  0.9174590580137403  1.0000
  H   H29       1.0  0.31160669648063777  0.9791518658653543  0.6329584359288415  1.0000
  H   H30       1.0  0.18839629810763367  0.5208488872230532  0.13295766414019275  1.0000
  H   H31       1.0  0.6883930354195585  0.020847323820774498  0.3670435209903075  1.0000
  H   H32       1.0  0.8116059231985558  0.47915113315476526  0.8670414772694028  1.0000
  H   H33       1.0  0.13348276805449896  0.06200201823302359  0.3542015478123658  1.0000
  H   H34       1.0  0.366516752700889  0.4379980747901086  0.8542008209219956  1.0000
  H   H35       1.0  0.8665182131603116  0.9379979998072796  0.645799001352209  1.0000
  H   H36       1.0  0.6334829699799156  0.5620002888773853  0.14579832048785582  1.0000
  H   H37       1.0  0.21604468337766033  0.326229930099032  0.7171327074400577  1.0000
  H   H38       1.0  0.28395400770922663  0.17377327231913134  0.21713271227014264  1.0000
  H   H39       1.0  0.7839526144645317  0.6737733849909019  0.2828657300961907  1.0000
  H   H40       1.0  0.7160445025498703  0.8262275670608189  0.7828678368959526  1.0000
  H   H41       1.0  0.19854014627553337  0.25285156642641476  0.8254262992883663  1.0000
  H   H42       1.0  0.3014594990109173  0.2471526163034241  0.3254263641088925  1.0000
  H   H43       1.0  0.8014584008783954  0.7471525770191787  0.17457284212497365  1.0000
  H   H44       1.0  0.6985402697841038  0.7528498774483479  0.6745741850575013  1.0000
  H   H45       1.0  0.29044227345714546  0.8193083111612508  0.5702576842508973  1.0000
  H   H46       1.0  0.20955963346112574  0.6806906995748746  0.07025776203280998  1.0000
  H   H47       1.0  0.7095586985344369  0.180690880862393  0.42974286491325825  1.0000
  H   H48       1.0  0.7904413293081802  0.31930766643161945  0.9297420832537138  1.0000
  H   H49       1.0  0.4845646216163643  0.883972623101421  0.5475174702897616  1.0000
  H   H50       1.0  0.015436107182111398  0.61602635338744  0.047517653337145284  1.0000
  H   H51       1.0  0.5154351102857434  0.11602656658372008  0.4524830788749482  1.0000
  H   H52       1.0  0.9845648648104228  0.3839728386357137  0.9524821919497978  1.0000
  C   C1        1.0  0.09889451312045591  0.18436482933819323  0.4637777121875286  1.0000
  C   C2        1.0  0.4011059398931707  0.3156345937628373  0.9637768288207125  1.0000
  C   C3        1.0  0.9011039786912246  0.8156343580089355  0.5362235408549478  1.0000
  C   C4        1.0  0.5988962721888386  0.6843646005988191  0.036223016465683586  1.0000
  C   C5        1.0  0.1238891452291213  0.2131328501231238  0.558377406463684  1.0000
  C   C6        1.0  0.3761099508153052  0.2868676514812663  0.058377446079319384  1.0000
  C   C7        1.0  0.8761093558077063  0.7868671632396699  0.4416224388247726  1.0000
  C   C8        1.0  0.6238897810877687  0.7131315382033775  0.9416223992081707  1.0000
  C   C9        1.0  0.19938478627721418  0.13722881016620647  0.6180112198068313  1.0000
  C   C10       1.0  0.3006153873481381  0.36277177745386524  0.11801070043039627  1.0000
  C   C11       1.0  0.800614954848129  0.8627712055355942  0.38198932935829777  1.0000
  C   C12       1.0  0.6993855938676319  0.6372282405859478  0.8819891448569661  1.0000
  C   C13       1.0  0.25647960941028447  0.0362572705971118  0.5832424234810458  1.0000
  C   C14       1.0  0.24352191749896687  0.46374492260814987  0.08324276237007669  1.0000
  C   C15       1.0  0.7435201409382797  0.9637435711213415  0.4167581256845023  1.0000
  C   C16       1.0  0.7564803130294918  0.5362559237868183  0.9167570829171579  1.0000
  C   C17       1.0  0.2372137328153343  0.011568098658635496  0.4878473475100335  1.0000
  C   C18       1.0  0.2627891440083587  0.4884321889100461  0.987846060412735  1.0000
  C   C19       1.0  0.7627872483975576  0.9884319193826555  0.5121546094089877  1.0000
  C   C20       1.0  0.737211827985135  0.5115670031126099  0.012153080996981197  1.0000
  C   C21       1.0  0.1540443078208682  0.08378279656112399  0.4275744151494364  1.0000
  C   C22       1.0  0.3459562438499262  0.4162165757404067  0.9275743879259434  1.0000
  C   C23       1.0  0.8459566549474856  0.9162155694458676  0.5724261340143071  1.0000
  C   C24       1.0  0.6540447373667959  0.5837834422989089  0.07242475348419927  1.0000
  C   C25       1.0  0.0111590566357762  0.26434274243031547  0.40141919763878764  1.0000
  C   C26       1.0  0.48884032622112267  0.23565659083224938  0.9014195621194926  1.0000
  C   C27       1.0  0.9888406844895596  0.7356572732714782  0.5985813515263414  1.0000
  C   C28       1.0  0.5111593964577635  0.764341772836232  0.09858098704479795  1.0000
  C   C29       1.0  0.16117426816985866  0.25281656922187773  0.7511933126086913  1.0000
  C   C30       1.0  0.33882556096494915  0.24718585731115178  0.2511926405214097  1.0000
  C   C31       1.0  0.8388254914038525  0.7471850985122475  0.24880582880283691  1.0000
  C   C32       1.0  0.6611741893845746  0.752814984406811  0.748807204766919  1.0000
  C   C33       1.0  0.9727386903850003  0.2594797396274515  0.7499316089759273  1.0000
  C   C34       1.0  0.5272594026267258  0.2405235067794464  0.2499297979892105  1.0000
  C   C35       1.0  0.02726106918871099  0.7405219281066735  0.25006753243560087  1.0000
  C   C36       1.0  0.4727403292763412  0.7594756829051973  0.7500700472982798  1.0000
  C   C37       1.0  0.376916907123693  0.8435170060352917  0.5138820203035477  1.0000
  C   C38       1.0  0.1230839133354991  0.6564819232566065  0.013882149706361695  1.0000
  C   C39       1.0  0.6230828247784145  0.15648218364984956  0.48611852886116197  1.0000
  C   C40       1.0  0.8769170586570351  0.34351726876654703  0.9861176955805815  1.0000
  C   C41       1.0  0.43736765468643307  0.7400176203207921  0.46653775079014526  1.0000
  C   C42       1.0  0.0626331538717366  0.75998029443965  0.9665399252040171  1.0000
  C   C43       1.0  0.5626320864408213  0.25998239538001394  0.5334613906205445  1.0000
  C   C44       1.0  0.93736657803133  0.24001889524500092  0.03345992008347309  1.0000
  O   O1        1.0  0.9963398930395825  0.36464068642214886  0.4294831019405051  1.0000
  O   O2        1.0  0.5036576553309331  0.1353578558309039  0.9294830887168286  1.0000
  O   O3        1.0  0.0036610789529519018  0.6353585056010048  0.5705167433464309  1.0000
  O   O4        1.0  0.4963408272584786  0.8646405054990751  0.07051746044800918  1.0000
  O   O5        1.0  0.9553034880726654  0.2284501122013438  0.3231609882995911  1.0000
  O   O6        1.0  0.5446955993518969  0.2715491092163376  0.8231603749765665  1.0000
  O   O7        1.0  0.04469624383040837  0.7715490774833069  0.676838856987899  1.0000
  O   O8        1.0  0.4553028924626616  0.7284500781293132  0.17683876643425114  1.0000
  O   O9        1.0  0.22458735369008306  0.15330078821641277  0.7123821473647991  1.0000
  O   O10       1.0  0.27541134112013305  0.3467015815187934  0.21238163375966926  1.0000
  O   O11       1.0  0.7754124058817097  0.8467008795186998  0.2876184018011755  1.0000
  O   O12       1.0  0.7245896585420866  0.6533000885543315  0.7876182115285386  1.0000
  O   O13       1.0  0.9058741447868002  0.35207372539445453  0.7592179383400077  1.0000
  O   O14       1.0  0.5941251445617793  0.14792788434801443  0.2592159729360687  1.0000
  O   O15       1.0  0.09412312538378836  0.6479271116464957  0.24078190694941518  1.0000
  O   O16       1.0  0.40587333802859143  0.8520704769814741  0.7407838723515494  1.0000
  O   O17       1.0  0.8927167468929157  0.16735298789176056  0.7415850209311043  1.0000
  O   O18       1.0  0.6072813688642285  0.3326502468033111  0.24158323389762862  1.0000
  O   O19       1.0  0.10728177259036897  0.8326486775043517  0.2584148243581906  1.0000
  O   O20       1.0  0.39271836303787916  0.66734894288183  0.7584173152670811  1.0000
  O   O21       1.0  0.2989157500185655  0.9161470121818452  0.4486629406487665  1.0000
  O   O22       1.0  0.20108512570035222  0.5838525295284639  0.948662699738868  1.0000
  O   O23       1.0  0.7010839911067703  0.08385300351994829  0.5513376085163626  1.0000
  O   O24       1.0  0.798915846292182  0.4161466624946897  0.05133714554807508  1.0000
  O   O25       1.0  0.4258390699266599  0.7270383670703423  0.37748883442892367  1.0000
  O   O26       1.0  0.07416323061607238  0.7729602510912483  0.8774889003600843  1.0000
  O   O27       1.0  0.5741606711996355  0.2729616486309609  0.6225110108589859  1.0000
  O   O28       1.0  0.9258377413764689  0.2270389409319051  0.12251094492685866  1.0000
  O   O29       1.0  0.4971203281306984  0.6699666571008434  0.5224248356701435  1.0000
  O   O30       1.0  0.0028817183606051  0.8300331125336058  0.022425249964498992  1.0000
  O   O31       1.0  0.5028806530850644  0.33003336093896246  0.4775750096172187  1.0000
  O   O32       1.0  0.9971192536319363  0.16996607948954784  0.9775745953224441  1.0000
  O   O33       1.0  0.9165834189882673  0.4716313660665391  0.2736757464693368  1.0000
  O   O34       1.0  0.5834170433774658  0.028367788253248694  0.7736762564886984  1.0000
  O   O35       1.0  0.08341632213898716  0.5283686496342667  0.726323394941353  1.0000
  O   O36       1.0  0.4165826885256081  0.9716314014314025  0.22632358879879172  1.0000
  O   O37       1.0  0.4503087967285708  0.4801497420658832  0.6460129286998605  1.0000
  O   O38       1.0  0.04969127291828809  0.019848406796334903  0.14601298250141068  1.0000
  O   O39       1.0  0.5496909259522268  0.5198486216016178  0.35398621270999076  1.0000
  O   O40       1.0  0.9503084589847787  0.9801507828883158  0.8539868627860795  1.0000
  O   O41       1.0  0.23987884352708017  0.5136782406809886  0.4702408198104349  1.0000
  O   O42       1.0  0.26012073329956553  0.9863213289689271  0.9702409406564809  1.0000
  O   O43       1.0  0.7601208975992149  0.4863217750203148  0.5297590254774744  1.0000
  O   O44       1.0  0.739878998603501  0.0136778607157169  0.02975890463100939  1.0000
