data_image0
_chemical_formula_structural       Cd2H32C38N2O8
_chemical_formula_sum              "Cd2 H32 C38 N2 O8"
_cell_length_a       6.087749730415668
_cell_length_b       9.91258059460876
_cell_length_c       15.339793243069044
_cell_angle_alpha    93.95998452954734
_cell_angle_beta     102.81291342630068
_cell_angle_gamma    107.66225732918465

_space_group_name_H-M_alt    "P 1"
_space_group_IT_number       1

loop_
  _space_group_symop_operation_xyz
  'x, y, z'

loop_
  _atom_site_type_symbol
  _atom_site_label
  _atom_site_symmetry_multiplicity
  _atom_site_fract_x
  _atom_site_fract_y
  _atom_site_fract_z
  _atom_site_occupancy
  Cd  Cd1       1.0  0.9167620602584631  0.8373992093363681  0.5783999333080914  1.0000
  Cd  Cd2       1.0  0.0832318034254698  0.16258033144030287  0.42159897574904903  1.0000
  H   H1        1.0  0.2903528313108411  0.7906946196548431  0.8102969469018008  1.0000
  H   H2        1.0  0.7096177894004825  0.2093128644004594  0.18969200854474624  1.0000
  H   H3        1.0  0.9418574252200785  0.6118231697158905  0.8417156831774478  1.0000
  H   H4        1.0  0.0581244372638564  0.38818005929874727  0.15826888266444436  1.0000
  H   H5        1.0  0.8659566154049969  0.3523345060433768  0.8011040239364748  1.0000
  H   H6        1.0  0.13406083266553262  0.6476600741046281  0.19888859306627182  1.0000
  H   H7        1.0  0.12204929609449518  0.27064947457186145  0.7170381441474662  1.0000
  H   H8        1.0  0.8779795689681862  0.7293568422770632  0.28295996173644516  1.0000
  H   H9        1.0  0.4583329284672714  0.4493643598882641  0.6792924220309616  1.0000
  H   H10       1.0  0.5417031219501709  0.5506461603381891  0.3207156570755174  1.0000
  H   H11       1.0  0.7076022450611532  0.8595059587189268  0.8515733544231168  1.0000
  H   H12       1.0  0.29240385739677777  0.1405142750169546  0.1484272347791631  1.0000
  H   H13       1.0  0.421651338985214  0.1209204158084276  0.8220984937724156  1.0000
  H   H14       1.0  0.5783559543896429  0.879105150687401  0.17790505665193732  1.0000
  H   H15       1.0  0.6471283086458969  0.32140099001551187  0.9486697122900055  1.0000
  H   H16       1.0  0.3528446097283575  0.6786631848974735  0.051330534738788486  1.0000
  H   H17       1.0  0.4376154404650805  0.3960425397426021  0.0556280278595409  1.0000
  H   H18       1.0  0.5623212230187846  0.6040164399317616  0.9443536914924239  1.0000
  H   H19       1.0  0.0043471171260875355  0.2659684574207829  0.0367488086568031  1.0000
  H   H20       1.0  0.9955832212460077  0.7340541737237484  0.9632234927398147  1.0000
  H   H21       1.0  0.7850607346878746  0.0657558896915873  0.9138278265602298  1.0000
  H   H22       1.0  0.21492869446606733  0.9342516715585845  0.08615045496620873  1.0000
  H   H23       1.0  0.2871319701173575  0.72985166481768  0.494957083276539  1.0000
  H   H24       1.0  0.7128494732974673  0.2700752475469129  0.505059137850985  1.0000
  H   H25       1.0  0.6873396738078696  0.501748356124132  0.5749605959832494  1.0000
  H   H26       1.0  0.3125958009545258  0.49817118859647275  0.42504133025800434  1.0000
  H   H27       1.0  0.4905354775372075  0.002264911771923999  0.3090573410433565  1.0000
  H   H28       1.0  0.5095248128542306  0.9977626131757796  0.6909667614235104  1.0000
  H   H29       1.0  0.27499958485596904  0.906458010772205  0.3635051661790385  1.0000
  H   H30       1.0  0.7250086785064839  0.09354182066918068  0.6365012001228934  1.0000
  H   H31       1.0  0.3917274614090686  0.8097437717766309  0.2943848252908978  1.0000
  H   H32       1.0  0.6082966611431432  0.19026902783193114  0.7056066286084859  1.0000
  C   C1        1.0  0.2553241316947492  0.676734614359205  0.7908346999464089  1.0000
  C   C2        1.0  0.7446738125405902  0.3232706558163016  0.20916185190826303  1.0000
  C   C3        1.0  0.06033271854298754  0.5761565833313682  0.8090125043265105  1.0000
  C   C4        1.0  0.9396584109127912  0.42383910758690035  0.19097646838740454  1.0000
  C   C5        1.0  0.014170603437179314  0.43018205424444017  0.7841029157142216  1.0000
  C   C6        1.0  0.9858369768089829  0.5698221755560124  0.2158892484969925  1.0000
  C   C7        1.0  0.15777375620213258  0.3843488651885351  0.7374454142325604  1.0000
  C   C8        1.0  0.8422572269355298  0.6156584685303911  0.2625594501398041  1.0000
  C   C9        1.0  0.34832524983692525  0.4846832336714895  0.7168495879245569  1.0000
  C   C10       1.0  0.6517182009599836  0.5153347491017896  0.283162766543704  1.0000
  C   C11       1.0  0.4019945137856951  0.6315369596434691  0.7449395392225  1.0000
  C   C12       1.0  0.5980265542816027  0.36847682125613795  0.255063416902388  1.0000
  C   C13       1.0  0.60959757605994  0.7352212551538171  0.7220229305852045  1.0000
  C   C14       1.0  0.39041039299036834  0.26478397793887615  0.2779777901273164  1.0000
  C   C15       1.0  0.7552219872104898  0.854519684898548  0.787507843494467  1.0000
  C   C16       1.0  0.24480465598527704  0.14549195301776044  0.2124948687326551  1.0000
  C   C17       1.0  0.9608938250318033  0.9626563788773548  0.7809043301009453  1.0000
  C   C18       1.0  0.0391485233875102  0.03734992804427859  0.2190943486151085  1.0000
  C   C19       1.0  0.0900392656809004  0.0784776141721153  0.8597454733907952  1.0000
  C   C20       1.0  0.9099770904292014  0.9215275991859355  0.14025731238330513  1.0000
  C   C21       1.0  0.33346862410399314  0.15257619330097325  0.8705940455491759  1.0000
  C   C22       1.0  0.6665295425488436  0.8474633316977244  0.12940605801048832  1.0000
  C   C23       1.0  0.457989234007414  0.26519806994122064  0.9409105968524261  1.0000
  C   C24       1.0  0.5419972715634529  0.7348446964972623  0.05908664041361791  1.0000
  C   C25       1.0  0.3404181271619465  0.3073933072672402  0.0009244031813011955  1.0000
  C   C26       1.0  0.6595644228066746  0.6926452056344273  0.9990690193592828  1.0000
  C   C27       1.0  0.09827285507999048  0.23451278736618517  0.9904312696091184  1.0000
  C   C28       1.0  0.9017073100784501  0.7655086859979789  0.009549417766315599  1.0000
  C   C29       1.0  0.9742169679750603  0.12032813711152096  0.9210564911603286  1.0000
  C   C30       1.0  0.02577127621463391  0.8796868394139563  0.0789324545860808  1.0000
  C   C31       1.0  0.1587076988206774  0.6271316604178735  0.49700518392012333  1.0000
  C   C32       1.0  0.8412619157334761  0.3727984366889814  0.5030153242305175  1.0000
  C   C33       1.0  0.8268628129242614  0.5001501330370954  0.5414527636859461  1.0000
  C   C34       1.0  0.17309992876816677  0.4997917988226986  0.4585617970142621  1.0000
  C   C35       1.0  0.43582668304414085  0.9074722551367883  0.3416855536693504  1.0000
  C   C36       1.0  0.5642125178864248  0.09253181514115029  0.6583251227208109  1.0000
  C   C37       1.0  0.6239663702863253  0.9100810279235673  0.42429283956469294  1.0000
  C   C38       1.0  0.3760316168266158  0.08988776247760909  0.575710513137956  1.0000
  N   N1        1.0  0.9856934064195216  0.6264632598518105  0.5381548744475212  1.0000
  N   N2        1.0  0.014274462123019272  0.3734636315141556  0.4618646756569832  1.0000
  O   O1        1.0  0.6401818958898531  0.7041159402040831  0.6443188636900744  1.0000
  O   O2        1.0  0.3598455982009198  0.2958913560506814  0.3556908973110424  1.0000
  O   O3        1.0  0.05378519815007374  0.9739458893124746  0.7128956635195323  1.0000
  O   O4        1.0  0.9462505397262788  0.026063653393336498  0.28710060757802586  1.0000
  O   O5        1.0  0.6311457817394625  0.7900710799184761  0.44753641068563615  1.0000
  O   O6        1.0  0.3688201103699953  0.20989452321247626  0.5524651828246974  1.0000
  O   O7        1.0  0.763148049172642  0.029826534349687996  0.4709718678816089  1.0000
  O   O8        1.0  0.23689636277895681  0.9701164700966132  0.529038428774733  1.0000
