data_image0
_chemical_formula_structural       Al2H16C24N2O11
_chemical_formula_sum              "Al2 H16 C24 N2 O11"
_cell_length_a       6.708073915937111
_cell_length_b       11.162047907847471
_cell_length_c       17.623032664997318
_cell_angle_alpha    78.9285069767356
_cell_angle_beta     79.91488246691675
_cell_angle_gamma    72.36501591946431

_space_group_name_H-M_alt    "P 1"
_space_group_IT_number       1

loop_
  _space_group_symop_operation_xyz
  'x, y, z'

loop_
  _atom_site_type_symbol
  _atom_site_label
  _atom_site_symmetry_multiplicity
  _atom_site_fract_x
  _atom_site_fract_y
  _atom_site_fract_z
  _atom_site_occupancy
  Al  Al1       1.0  0.48756668659675745  0.522733812856579  0.4985043235421572  1.0000
  Al  Al2       1.0  0.988995542036818  0.5204413939473511  0.4985306678057669  1.0000
  H   H1        1.0  0.23629814111269098  0.609692253970465  0.4054011414995458  1.0000
  H   H2        1.0  0.7830531194173459  0.37480313236306273  0.5586551043683698  1.0000
  H   H3        1.0  0.11591685082156286  0.14168130927944134  0.48484961338887445  1.0000
  H   H4        1.0  0.7434625833392304  0.13676982093908657  0.5131496158401918  1.0000
  H   H5        1.0  0.2373456964980817  0.9075611768469045  0.4843340437725061  1.0000
  H   H6        1.0  0.5821314392368461  0.4276231984006387  0.2774029102565835  1.0000
  H   H7        1.0  0.6768403831650147  0.3887858192153217  0.13875074521858724  1.0000
  H   H8        1.0  0.14945306567821592  0.5384780259349286  0.2633411955192529  1.0000
  H   H9        1.0  0.8158894459961842  0.5366098522457179  0.7303392779365369  1.0000
  H   H10       1.0  0.4852252657634109  0.4394573485922211  0.7339915951167272  1.0000
  H   H11       1.0  0.43095181373509933  0.39818895675932725  0.8799476461588114  1.0000
  H   H12       1.0  0.9263712015386931  0.8036453810614005  0.5115597999219617  1.0000
  H   H13       1.0  0.29451128321221626  0.5148223882863334  0.055514090354634504  1.0000
  H   H14       1.0  0.3587070035185249  0.558960086586957  0.13459912974180813  1.0000
  H   H15       1.0  0.6975600973701787  0.5164369113415788  0.9428607043067601  1.0000
  H   H16       1.0  0.5905305913589416  0.5612189054691115  0.856290734895623  1.0000
  C   C1        1.0  0.8037064290730098  0.5135321944950207  0.3595299807947471  1.0000
  C   C2        1.0  0.6243528026359401  0.7510748961901186  0.49730757012424226  1.0000
  C   C3        1.0  0.1830823003175793  0.5112209300643756  0.6379639922126901  1.0000
  C   C4        1.0  0.35053110675309535  0.2926962869326104  0.5009176175759649  1.0000
  C   C5        1.0  0.5577701722168199  0.8895790522083757  0.49807378763082266  1.0000
  C   C6        1.0  0.42270066515509797  0.15276387249897277  0.49941865055998147  1.0000
  C   C7        1.0  0.7026465119500569  0.954950172798867  0.5065003721685599  1.0000
  C   C8        1.0  0.2789109477968523  0.0884706961800177  0.49096980524191036  1.0000
  C   C9        1.0  0.632561505099595  0.08659163759197239  0.5068854700521472  1.0000
  C   C10       1.0  0.3471696586989311  0.9585132424809402  0.4902945993669264  1.0000
  C   C11       1.0  0.8591344226267522  0.4882216457588981  0.2773171424547272  1.0000
  C   C12       1.0  0.7246183881097181  0.4451526712035728  0.24288828418107036  1.0000
  C   C13       1.0  0.7778538552360317  0.42385083164155907  0.165957379887722  1.0000
  C   C14       1.0  0.9613237655626535  0.44783033995977223  0.121009172714885  1.0000
  C   C15       1.0  0.09985794691471023  0.48905412098035583  0.15655384087513372  1.0000
  C   C16       1.0  0.046022913308476535  0.5072773137392305  0.23488044277034703  1.0000
  C   C17       1.0  0.00733809577113932  0.4381747027286876  0.0407550506647425  1.0000
  C   C18       1.0  0.056882740475486984  0.43986227758419716  0.9702565817513078  1.0000
  C   C19       1.0  0.09174511658370219  0.45192540013239585  0.8881362093733646  1.0000
  C   C20       1.0  0.913754613400016  0.49150015148171633  0.8458768797866015  1.0000
  C   C21       1.0  0.9485039286134976  0.5084666885196043  0.7641989353155267  1.0000
  C   C22       1.0  0.1521219521537134  0.49156094698320635  0.7247549073625451  1.0000
  C   C23       1.0  0.3277337802198871  0.45324230203525673  0.7661261961408458  1.0000
  C   C24       1.0  0.2965189874293657  0.4313931220259094  0.8469060425258662  1.0000
  N   N1        1.0  0.2830865195562494  0.5081203752719647  0.11424291782250151  1.0000
  N   N2        1.0  0.7136328964384546  0.5094319634564998  0.8854380427929058  1.0000
  O   O1        1.0  0.6169122633727895  0.5160048384188869  0.3917474059298555  1.0000
  O   O2        1.0  0.8217035116265947  0.6934541232486636  0.5018706761185927  1.0000
  O   O3        1.0  0.02983637325717577  0.5121596702824149  0.603887681153367  1.0000
  O   O4        1.0  0.48831064659481865  0.3472606605085105  0.506149355996179  1.0000
  O   O5        1.0  0.36109148917786626  0.5237315948976048  0.6040625180177557  1.0000
  O   O6        1.0  0.15452484958374407  0.34729164520963723  0.49758637768031383  1.0000
  O   O7        1.0  0.9466194949824781  0.532100486057672  0.39154250897163934  1.0000
  O   O8        1.0  0.4893978162805226  0.6956750048532142  0.49161916091592434  1.0000
  O   O9        1.0  0.22471684576353806  0.5812935956874555  0.4611574460359691  1.0000
  O   O10       1.0  0.7518673140540597  0.46242919989979475  0.5335511576417177  1.0000
  O   O11       1.0  0.9069004534034303  0.8954251982067944  0.5145030712655085  1.0000
