data_image0
_chemical_formula_structural       Zn4H16C21O13
_chemical_formula_sum              "Zn4 H16 C21 O13"
_cell_length_a       10.886149900891835
_cell_length_b       10.908857509577008
_cell_length_c       10.825495523412084
_cell_angle_alpha    76.45561405343618
_cell_angle_beta     88.4881183392768
_cell_angle_gamma    80.40482827042955

_space_group_name_H-M_alt    "P 1"
_space_group_IT_number       1

loop_
  _space_group_symop_operation_xyz
  'x, y, z'

loop_
  _atom_site_type_symbol
  _atom_site_label
  _atom_site_symmetry_multiplicity
  _atom_site_fract_x
  _atom_site_fract_y
  _atom_site_fract_z
  _atom_site_occupancy
  Zn  Zn1       1.0  0.6096879828155937  0.39236229843722004  0.40431758858957084  1.0000
  Zn  Zn2       1.0  0.4167887573639676  0.37227748143433814  0.6346346544201256  1.0000
  Zn  Zn3       1.0  0.3793911031467446  0.6223212705087917  0.39874388852185666  1.0000
  Zn  Zn4       1.0  0.6020374807182948  0.5782436558347185  0.5920157045425115  1.0000
  H   H1        1.0  0.02292741202649041  0.35541392857609816  0.4708467045826269  1.0000
  H   H2        1.0  0.45610952713462893  0.7096725540894439  0.8676626173610916  1.0000
  H   H3        1.0  0.3117358299200177  0.658995906913418  0.9012613994485223  1.0000
  H   H4        1.0  0.5215147241525956  0.9670324753201881  0.19533954455954478  1.0000
  H   H5        1.0  0.4315374432176712  0.12371823711896474  0.0011396001883169997  1.0000
  H   H6        1.0  0.2707214971846241  0.3083385284283437  0.018924610610859816  1.0000
  H   H7        1.0  0.19856755654741687  0.3365017790203311  0.23309513572768037  1.0000
  H   H8        1.0  0.289528056138515  0.18083246223911686  0.4273954136746313  1.0000
  H   H9        1.0  0.9826266066678431  0.6097240959864648  0.5578600424662384  1.0000
  H   H10       1.0  0.5544404660498543  0.36826355115994136  0.046855913620561324  1.0000
  H   H11       1.0  0.552039619637057  0.9468973545225052  0.6231189606336188  1.0000
  H   H12       1.0  0.3729490215715287  0.9454691670886959  0.8357741500278026  1.0000
  H   H13       1.0  0.22406867053214802  0.898233369468002  0.8459416279632709  1.0000
  H   H14       1.0  0.26220868161290406  0.9954438621927864  0.9449707813895574  1.0000
  H   H15       1.0  0.27541716300708435  0.773632012635929  0.07382160262257292  1.0000
  H   H16       1.0  0.4253284624304073  0.8142213984316979  0.05822299645682703  1.0000
  C   C1        1.0  0.5111185122789907  0.45834080626287477  0.8453912303856586  1.0000
  C   C2        1.0  0.9740216809037111  0.43960295762323653  0.4999617396092688  1.0000
  C   C3        1.0  0.03472973931001631  0.523505955674423  0.5349582958773382  1.0000
  C   C4        1.0  0.4599788512702433  0.5575528062847539  0.030253694815662913  1.0000
  C   C5        1.0  0.3926953251214727  0.6808623037894391  0.9462991929939764  1.0000
  C   C6        1.0  0.34859153360351064  0.7956505539869169  0.004466778355322313  1.0000
  C   C7        1.0  0.29956967225714254  0.9152064199345983  0.9022697843044868  1.0000
  C   C8        1.0  0.4131338584098145  0.06440739444300192  0.3246812659465732  1.0000
  C   C9        1.0  0.450700221741073  0.04796730893124846  0.20367566972802106  1.0000
  C   C10       1.0  0.4000776761188973  0.135792708339828  0.09466896081851672  1.0000
  C   C11       1.0  0.309499863536594  0.2399990316944312  0.10470711832625312  1.0000
  C   C12       1.0  0.5114326914900361  0.45728922852759263  0.9831250433311143  1.0000
  C   C13       1.0  0.2698735705969214  0.2559636821251203  0.22455873827444614  1.0000
  C   C14       1.0  0.321393860218791  0.16888435983550204  0.333778217390659  1.0000
  C   C15       1.0  0.47175482717341316  0.9766426206334482  0.44116607647988815  1.0000
  C   C16       1.0  0.5178496771682931  0.016927957631011698  0.5364524517703161  1.0000
  C   C17       1.0  0.4694553054062283  0.5373622804656647  0.17150805792486074  1.0000
  C   C18       1.0  0.5234908808246673  0.15233526895398333  0.5348357184670007  1.0000
  C   C19       1.0  0.4779169804602789  0.8348539435491273  0.4597162847969259  1.0000
  C   C20       1.0  0.17263587652988832  0.5122275762486338  0.5341603891197907  1.0000
  C   C21       1.0  0.8358727223218239  0.4597267900696309  0.49450199647936444  1.0000
  O   O1        1.0  0.5002621595556747  0.4895727945685237  0.5080209606758076  1.0000
  O   O2        1.0  0.23659919089506334  0.40594691241481223  0.5906469336652196  1.0000
  O   O3        1.0  0.7772985732064015  0.5456310602976018  0.5466572202593768  1.0000
  O   O4        1.0  0.21368138200163866  0.6129979444640269  0.475826822396755  1.0000
  O   O5        1.0  0.7874945464830745  0.38835544794188337  0.4380624929768403  1.0000
  O   O6        1.0  0.5818229518339849  0.21384884778244384  0.44430880417441193  1.0000
  O   O7        1.0  0.5467253232875109  0.7633580043931191  0.5510546483750574  1.0000
  O   O8        1.0  0.4410307595571937  0.39022032594568384  0.8089636444759948  1.0000
  O   O9        1.0  0.3782903362047635  0.5903431958819495  0.22793020407541328  1.0000
  O   O10       1.0  0.5832767425522791  0.5260219682054835  0.7768586668210633  1.0000
  O   O11       1.0  0.5688796985248531  0.46770661338598535  0.22477844449803544  1.0000
  O   O12       1.0  0.47151995820240694  0.19284412462407372  0.6283690712386303  1.0000
  O   O13       1.0  0.41382125352054544  0.7967979441224456  0.3833252349136701  1.0000
