data_image0
_chemical_formula_structural       Gd4H104C136N32O84
_chemical_formula_sum              "Gd4 H104 C136 N32 O84"
_cell_length_a       12.82964332954259
_cell_length_b       19.385953175870835
_cell_length_c       19.384465775018242
_cell_angle_alpha    102.85923073088247
_cell_angle_beta     95.9310313413095
_cell_angle_gamma    95.9554957981301

_space_group_name_H-M_alt    "P 1"
_space_group_IT_number       1

loop_
  _space_group_symop_operation_xyz
  'x, y, z'

loop_
  _atom_site_type_symbol
  _atom_site_label
  _atom_site_symmetry_multiplicity
  _atom_site_fract_x
  _atom_site_fract_y
  _atom_site_fract_z
  _atom_site_occupancy
  Gd  Gd1       1.0  0.341578056707455  0.4593631104940529  0.9798883237153432  1.0000
  Gd  Gd2       1.0  0.15840003627528895  0.020170164036983393  0.5406670196566664  1.0000
  Gd  Gd3       1.0  0.658427732486601  0.5406396355317113  0.02011961248114603  1.0000
  Gd  Gd4       1.0  0.8415937527744719  0.9798222013673977  0.4593302364161004  1.0000
  H   H1        1.0  0.28517299833148263  0.5858172101673204  0.8194592497908458  1.0000
  H   H2        1.0  0.21456328770296557  0.1805648231739028  0.41421751214157615  1.0000
  H   H3        1.0  0.7148323244827495  0.41419143773115513  0.1805571625118532  1.0000
  H   H4        1.0  0.7854371189107071  0.8194254929300866  0.5857750366679467  1.0000
  H   H5        1.0  0.5964827307627021  0.6991990696851786  0.8916351903120371  1.0000
  H   H6        1.0  0.9031954173887871  0.10835984693432718  0.300871498764863  1.0000
  H   H7        1.0  0.4035157783934269  0.30080348710773547  0.1083645466138421  1.0000
  H   H8        1.0  0.09679711903174847  0.8916378992296143  0.699137171003123  1.0000
  H   H9        1.0  0.34125431742447193  0.8110089604571371  0.5599175205732791  1.0000
  H   H10       1.0  0.15871588917223536  0.44004449599618317  0.1892006728605438  1.0000
  H   H11       1.0  0.6587572204323993  0.18899118901291698  0.4400855397405507  1.0000
  H   H12       1.0  0.8412581568707723  0.5599517881832625  0.8107973289610795  1.0000
  H   H13       1.0  0.3191177529585263  0.9592335399905636  0.7588099677415698  1.0000
  H   H14       1.0  0.1809497324694221  0.24126583871336751  0.04079296880206582  1.0000
  H   H15       1.0  0.6808869754257572  0.040770119828494  0.24118159466560474  1.0000
  H   H16       1.0  0.8190438960926232  0.7587370905592506  0.9591972807571948  1.0000
  H   H17       1.0  0.3049297613365313  0.5581371680510188  0.1404313568767108  1.0000
  H   H18       1.0  0.19532880057303711  0.8597112537016259  0.4417943060780445  1.0000
  H   H19       1.0  0.6950871683754161  0.44186530689427167  0.8595854168387189  1.0000
  H   H20       1.0  0.8046764222589006  0.14028877694108388  0.5582073332778349  1.0000
  H   H21       1.0  0.5259107411602245  0.7487933946724181  0.16543646968006698  1.0000
  H   H22       1.0  0.97427001007096  0.8347516098598715  0.2511716686318692  1.0000
  H   H23       1.0  0.4740782988116339  0.25121581400272675  0.8345517814103615  1.0000
  H   H24       1.0  0.0257221978355133  0.16525083246271774  0.7488271650374684  1.0000
  H   H25       1.0  0.26767474668456975  0.6284348629801355  0.9512567310027789  1.0000
  H   H26       1.0  0.23243267435858436  0.048770286710954694  0.371564978210209  1.0000
  H   H27       1.0  0.7323205991981043  0.37155549619957634  0.048752046890982136  1.0000
  H   H28       1.0  0.7675558701787255  0.951210199690912  0.6284190817062479  1.0000
  H   H29       1.0  0.17562880511502507  0.7096152120154572  0.9289830777945622  1.0000
  H   H30       1.0  0.32455973326788273  0.07109375971867848  0.2904519970939887  1.0000
  H   H31       1.0  0.8243950719352854  0.2903825468667661  0.07102688162265738  1.0000
  H   H32       1.0  0.6754434318922906  0.9288987534275323  0.7095437665058525  1.0000
  H   H33       1.0  0.07456690295393288  0.7327246099684072  0.983489125921153  1.0000
  H   H34       1.0  0.42550987604019513  0.016528856871637698  0.26727345833286614  1.0000
  H   H35       1.0  0.9254381123034536  0.26727383327192905  0.016513705263861308  1.0000
  H   H36       1.0  0.5745052090204228  0.9834793188300708  0.7327294821339477  1.0000
  H   H37       1.0  0.0424992440053273  0.6714194266389554  0.8981569784420028  1.0000
  H   H38       1.0  0.4576982163039533  0.10184794840286318  0.3285858992908998  1.0000
  H   H39       1.0  0.9575073970743234  0.3285757828775074  0.10183647385211707  1.0000
  H   H40       1.0  0.5422883765070383  0.8981475325911317  0.6714178098049927  1.0000
  H   H41       1.0  0.9892043486923542  0.6444273504044346  0.03660304195021518  1.0000
  H   H42       1.0  0.5108846334658141  0.9635045024726098  0.35565104797542085  1.0000
  H   H43       1.0  0.010784821178610595  0.35556496291415834  0.9633975488660339  1.0000
  H   H44       1.0  0.4891178473178429  0.0364991509101671  0.6443445114598203  1.0000
  H   H45       1.0  0.061614791660652174  0.5727820316651059  0.04985072176681627  1.0000
  H   H46       1.0  0.43834876135398554  0.950239748072917  0.4272864118952099  1.0000
  H   H47       1.0  0.9383693864686652  0.42720909723000483  0.9501451974217899  1.0000
  H   H48       1.0  0.5616636577167143  0.049757166980178597  0.5727087744375509  1.0000
  H   H49       1.0  0.9741718282929669  0.5631116898656642  0.9695390103932764  1.0000
  H   H50       1.0  0.525844310653895  0.0305459732095201  0.43698271380627307  1.0000
  H   H51       1.0  0.025821645387814823  0.4368843613564054  0.03045489884905814  1.0000
  H   H52       1.0  0.474157271585355  0.9694523234766165  0.5630090528716564  1.0000
  H   H53       1.0  0.19041640471688487  0.32565186642052874  0.8350157582171461  1.0000
  H   H54       1.0  0.30950503227740006  0.16482903400701324  0.6742788483085816  1.0000
  H   H55       1.0  0.809582919701768  0.674355006228879  0.16499063682442738  1.0000
  H   H56       1.0  0.6904912829166963  0.8351697477484308  0.3257183961490995  1.0000
  H   H57       1.0  0.13198085628891223  0.2730339093674771  0.7249153690737342  1.0000
  H   H58       1.0  0.3677472061168602  0.2749375173420958  0.7269664627182876  1.0000
  H   H59       1.0  0.8680219410111719  0.7269693368779214  0.2750950832772432  1.0000
  H   H60       1.0  0.6322459928906099  0.7250612180707563  0.2730316243646342  1.0000
  H   H61       1.0  0.1558512859772634  0.32535562728133266  0.6618157210595966  1.0000
  H   H62       1.0  0.34394413352212894  0.3380915731183194  0.6747011135627972  1.0000
  H   H63       1.0  0.8441529403077868  0.6746364794205845  0.3381934305461484  1.0000
  H   H64       1.0  0.6560568996855878  0.6619125992983753  0.3252960230129104  1.0000
  H   H65       1.0  0.026670879293689605  0.3120225754213664  0.6866376496938214  1.0000
  H   H66       1.0  0.47312122818708974  0.3132949461622445  0.6880292486369014  1.0000
  H   H67       1.0  0.9733391807137297  0.6879722689432696  0.31336933518938537  1.0000
  H   H68       1.0  0.5268814137144703  0.6866991580502884  0.3119673457450389  1.0000
  H   H69       1.0  0.16949619789975404  0.46368541999302687  0.7091704039676044  1.0000
  H   H70       1.0  0.33042408373253107  0.29088278637640735  0.5363688434615524  1.0000
  H   H71       1.0  0.8305015211365827  0.5363075215811578  0.2908241072937088  1.0000
  H   H72       1.0  0.6695741627479138  0.7091181655860197  0.4636300144878333  1.0000
  H   H73       1.0  0.13522699302595953  0.49308944649758496  0.7972659379834892  1.0000
  H   H74       1.0  0.36463611055509665  0.20279917821284948  0.5069040082891334  1.0000
  H   H75       1.0  0.864771323591299  0.5069135566459478  0.2027235653393049  1.0000
  H   H76       1.0  0.6353594187047025  0.7971995897784294  0.49309318797415347  1.0000
  H   H77       1.0  0.03519919397798794  0.4484030889082789  0.7255803358862067  1.0000
  H   H78       1.0  0.4646730808466516  0.27447454801324506  0.5515781186377564  1.0000
  H   H79       1.0  0.9648002766358204  0.5515909515335551  0.2744150303153603  1.0000
  H   H80       1.0  0.535323964865505  0.7255237227292569  0.44842008899210123  1.0000
  H   H81       1.0  0.654367405515565  0.7297811285850029  0.029026559066828387  1.0000
  H   H82       1.0  0.8452577100601248  0.9707065881200093  0.27027855857024713  1.0000
  H   H83       1.0  0.34563471830580994  0.27019786671041146  0.9710080072961131  1.0000
  H   H84       1.0  0.15476087752524853  0.0293027706190117  0.7297320633438671  1.0000
  H   H85       1.0  0.4735232073416214  0.7115641400883417  0.0194666969458765  1.0000
  H   H86       1.0  0.026467301074120476  0.9804526777876956  0.2884907515131657  1.0000
  H   H87       1.0  0.5264251314013819  0.2884183764593685  0.9805247776126575  1.0000
  H   H88       1.0  0.9735407491807424  0.019549571682368604  0.7115166911400621  1.0000
  H   H89       1.0  0.29597598959456667  0.755037585419771  0.025912573068993097  1.0000
  H   H90       1.0  0.20409038647624567  0.9740492440099902  0.24492976756310014  1.0000
  H   H91       1.0  0.7039950825152633  0.2449688047909078  0.9740936400786993  1.0000
  H   H92       1.0  0.7959344550697837  0.025946321295421598  0.7550694525146753  1.0000
  H   H93       1.0  0.2838522636622258  0.8840011888443156  0.04553459756402127  1.0000
  H   H94       1.0  0.2160855727475877  0.9544569797082119  0.11599622769176678  1.0000
  H   H95       1.0  0.7161590171670227  0.11601074327911928  0.9544813215453799  1.0000
  H   H96       1.0  0.7839129208556063  0.0455412793493792  0.8839974170142212  1.0000
  H   H97       1.0  0.44714906546121125  0.9717753154832354  0.0664783396053822  1.0000
  H   H98       1.0  0.0525883643964065  0.9334399572420011  0.028267009214474132  1.0000
  H   H99       1.0  0.5528730634776907  0.028226925370255198  0.9334979212541438  1.0000
  H   H100      1.0  0.9473958337864375  0.06656557819198379  0.9717371938807841  1.0000
  H   H101      1.0  0.6241124263098358  0.9284446051680674  0.06493199831981401  1.0000
  H   H102      1.0  0.8756702485120303  0.9349869990793921  0.07177102681783515  1.0000
  H   H103      1.0  0.3758754986548001  0.07153619251660359  0.9350257792499831  1.0000
  H   H104      1.0  0.12431471244221373  0.06502989949259327  0.9282578699746932  1.0000
  C   C1        1.0  0.4638070872294406  0.5866247047876458  0.908655615770165  1.0000
  C   C2        1.0  0.03613164531697069  0.09119117764659279  0.4133192896459831  1.0000
  C   C3        1.0  0.5361883763941365  0.41338212082609255  0.0913531268064744  1.0000
  C   C4        1.0  0.9638677719733623  0.9088071387454232  0.5866795802684519  1.0000
  C   C5        1.0  0.44445316505922955  0.6353732349805837  0.8592881840879371  1.0000
  C   C6        1.0  0.055236113294164106  0.1407709374333379  0.3647711824402932  1.0000
  C   C7        1.0  0.5555457448405152  0.36463147756206377  0.1407146230450849  1.0000
  C   C8        1.0  0.944762642354519  0.859227911756747  0.6352293128089953  1.0000
  C   C9        1.0  0.3464820083337798  0.6284976976006859  0.8181397471357597  1.0000
  C   C10       1.0  0.15318447265819662  0.18197221430838076  0.3716196060429268  1.0000
  C   C11       1.0  0.6535139372225702  0.3715075238756498  0.18186661155456818  1.0000
  C   C12       1.0  0.8468170125238716  0.8180250371805827  0.6283745082919694  1.0000
  C   C13       1.0  0.3258856955089443  0.6766801177213112  0.7767055958722722  1.0000
  C   C14       1.0  0.17382910312699104  0.2233318731061899  0.3233852105788911  1.0000
  C   C15       1.0  0.6741110497569807  0.32332512187621626  0.22330132871385183  1.0000
  C   C16       1.0  0.8261662311860791  0.7766620331594395  0.6766021491296283  1.0000
  C   C17       1.0  0.40269841347323887  0.7324824089566844  0.7715817154208153  1.0000
  C   C18       1.0  0.09704654882136772  0.22840734471834886  0.26758625155594024  1.0000
  C   C19       1.0  0.5972983875240134  0.26752386276692863  0.22842130840411554  1.0000
  C   C20       1.0  0.9029543008070606  0.7715866622534405  0.732401963214734  1.0000
  C   C21       1.0  0.499704943612386  0.737873113455663  0.8148815162653945  1.0000
  C   C22       1.0  1.6132157398396102e-05  0.18517877152871157  0.2623087157558075  1.0000
  C   C23       1.0  0.5002935673213998  0.26213373671554047  0.18512379517897407  1.0000
  C   C24       1.0  0.9999830056787575  0.8148181707252249  0.7376896212681388  1.0000
  C   C25       1.0  0.520866452389484  0.6913401608112435  0.8581514909094281  1.0000
  C   C26       1.0  0.9787934414959026  0.14192816415637569  0.30885254784107724  1.0000
  C   C27       1.0  0.4791348548613499  0.30866031271667527  0.14184743939249958  1.0000
  C   C28       1.0  0.021203686867949004  0.8580701327282867  0.6911487659972052  1.0000
  C   C29       1.0  0.3801304751404615  0.786887529679106  0.7301737090900176  1.0000
  C   C30       1.0  0.11965402729737211  0.2697583393906413  0.21313355389580116  1.0000
  C   C31       1.0  0.6198600913908124  0.21311384863204097  0.2698284112503231  1.0000
  C   C32       1.0  0.8803451692733193  0.7302393999399611  0.7868600185795458  1.0000
  C   C33       1.0  0.3784854894973151  0.7751460826051825  0.6555897033355435  1.0000
  C   C34       1.0  0.1213628390472508  0.3443463717479886  0.22491710488170466  1.0000
  C   C35       1.0  0.6215079440050745  0.22485323422611003  0.34441419888786834  1.0000
  C   C36       1.0  0.8786459127125499  0.6556515719657908  0.7750817052389961  1.0000
  C   C37       1.0  0.3460860019070609  0.8238949254429426  0.6178782640578575  1.0000
  C   C38       1.0  0.15383766114306496  0.38209122332962403  0.17620088558758337  1.0000
  C   C39       1.0  0.6539133872025077  0.176102367537041  0.38212554202057447  1.0000
  C   C40       1.0  0.8461594399853214  0.6179075721899778  0.823796407064492  1.0000
  C   C41       1.0  0.3202694962583053  0.8893364182300088  0.6542781028322507  1.0000
  C   C42       1.0  0.17964874151092408  0.3457487487066544  0.1107364800398472  1.0000
  C   C43       1.0  0.6797256319427731  0.1106596866625438  0.34571900900729696  1.0000
  C   C44       1.0  0.8203511460296299  0.6542527599182223  0.8892620770219465  1.0000
  C   C45       1.0  0.3330052815749412  0.906805189652836  0.7287273697980934  1.0000
  C   C46       1.0  0.16691934069645953  0.2712906529702934  0.0932107163498372  1.0000
  C   C47       1.0  0.6669879174325288  0.0931935457600161  0.2712707172848282  1.0000
  C   C48       1.0  0.8330819255436241  0.7287103148355385  0.9067836750644672  1.0000
  C   C49       1.0  0.3599240906531876  0.8551178375035207  0.7646387836554139  1.0000
  C   C50       1.0  0.13994003436098984  0.2353385372265179  0.14487717680702156  1.0000
  C   C51       1.0  0.640073162633513  0.14488202064136144  0.23535823214530177  1.0000
  C   C52       1.0  0.8600611213617172  0.7646618883741139  0.855116058779437  1.0000
  C   C53       1.0  0.2761784069488869  0.9387832534455639  0.6128289003184334  1.0000
  C   C54       1.0  0.2237162434999505  0.3872009530957996  0.061263917340554024  1.0000
  C   C55       1.0  0.723827878268317  0.061218400148817395  0.38717418390973524  1.0000
  C   C56       1.0  0.7762850221099385  0.6127990000120462  0.9387364456405647  1.0000
  C   C57       1.0  0.4979746656306008  0.607402256851337  0.1046189597745553  1.0000
  C   C58       1.0  0.0022258663864178807  0.8954646518214702  0.3926285529290539  1.0000
  C   C59       1.0  0.5020275698079646  0.39260838281457205  0.8953873874225806  1.0000
  C   C60       1.0  0.9977648912211736  0.10453249410976179  0.6073752407124785  1.0000
  C   C61       1.0  0.42503273730606866  0.6485377681105433  0.14835053924302594  1.0000
  C   C62       1.0  0.07525989844577197  0.8519487239174307  0.3513757332591537  1.0000
  C   C63       1.0  0.5749665867974871  0.35146859718987855  0.8516588415819513  1.0000
  C   C64       1.0  0.9247359479606417  0.14805065163444908  0.6486303843530548  1.0000
  C   C65       1.0  0.3289890681795456  0.6153719327624642  0.16079065682307458  1.0000
  C   C66       1.0  0.17122483751031586  0.8394670834533712  0.38454237986612577  1.0000
  C   C67       1.0  0.6710178657363741  0.38463195500813185  0.8392248162375394  1.0000
  C   C68       1.0  0.828775628389984  0.16053285153328994  0.6154574172191899  1.0000
  C   C69       1.0  0.26390788175753244  0.6561476852098663  0.20129861203923127  1.0000
  C   C70       1.0  0.23611574318877626  0.7988185427813617  0.34374199361219837  1.0000
  C   C71       1.0  0.7360915097598808  0.3438549158463927  0.7987047969908756  1.0000
  C   C72       1.0  0.7638814268160277  0.20118027452337364  0.6562578875469  1.0000
  C   C73       1.0  0.2861342502714805  0.7306481013231334  0.22704554308643302  1.0000
  C   C74       1.0  0.2138182468692591  0.7729570952523446  0.2692688689192195  1.0000
  C   C75       1.0  0.7138697053235888  0.26935453439079987  0.7729524603945703  1.0000
  C   C76       1.0  0.7861852109250125  0.22704233951468208  0.7307284120116078  1.0000
  C   C77       1.0  0.3819019547381616  0.7617193927911431  0.2112177079597402  1.0000
  C   C78       1.0  0.11815148942521601  0.7888317324017534  0.23815824902458615  1.0000
  C   C79       1.0  0.6180954950707546  0.23828786382435393  0.7887742154787245  1.0000
  C   C80       1.0  0.8818507969289872  0.21116932323769075  0.7618449915080063  1.0000
  C   C81       1.0  0.4518656915186556  0.7219033639763878  0.1748099074391831  1.0000
  C   C82       1.0  0.0483588895319897  0.8254100703456118  0.2780037937156478  1.0000
  C   C83       1.0  0.5481294280379317  0.2781038600606748  0.8251829068189166  1.0000
  C   C84       1.0  0.9516339239697023  0.17459029970382287  0.7220003011634262  1.0000
  C   C85       1.0  0.2080007110368882  0.6017840545932102  0.9771548210044754  1.0000
  C   C86       1.0  0.2920600584179597  0.022842734520288805  0.398236872993479  1.0000
  C   C87       1.0  0.7919978756401492  0.3982074048403134  0.02285180200988182  1.0000
  C   C88       1.0  0.7079406090937398  0.9771448930358914  0.6017509802740476  1.0000
  C   C89       1.0  0.1017046450569268  0.6893750808817883  0.9456034706954453  1.0000
  C   C90       1.0  0.3984418343588345  0.05442716122250599  0.3106362937332818  1.0000
  C   C91       1.0  0.8982975559226247  0.31062013319022697  0.05440004646043662  1.0000
  C   C92       1.0  0.6015609899745584  0.9455738297546218  0.6893576763684023  1.0000
  C   C93       1.0  0.03061629381750922  0.6009687465993281  0.010766276519980552  1.0000
  C   C94       1.0  0.46945664805774373  0.9893006268766696  0.3990898585861159  1.0000
  C   C95       1.0  0.9693772882878948  0.399023046100659  0.9892261998151071  1.0000
  C   C96       1.0  0.5305484211533198  0.010694555111470501  0.6009034973192229  1.0000
  C   C97       1.0  0.1796483058662801  0.37996311717598985  0.8292924301471272  1.0000
  C   C98       1.0  0.32030284925867397  0.1706187614251959  0.6199779312009637  1.0000
  C   C99       1.0  0.820354770922812  0.620048061031177  0.1707130502666203  1.0000
  C   C100      1.0  0.6796930373261393  0.8293773485174682  0.3800181934301676  1.0000
  C   C101      1.0  0.11138626647049682  0.3198947399848818  0.7063342752094854  1.0000
  C   C102      1.0  0.38838880023456585  0.29359716929197077  0.6801453876644743  1.0000
  C   C103      1.0  0.888607662109749  0.680101962368056  0.29367373239582406  1.0000
  C   C104      1.0  0.6116067682583265  0.7063968110431061  0.31985077296794623  1.0000
  C   C105      1.0  0.11805172953616963  0.4512143374181433  0.7480079364105378  1.0000
  C   C106      1.0  0.3818280331341627  0.252029317550253  0.5488002788522053  1.0000
  C   C107      1.0  0.8819446551645316  0.5487854808204204  0.251985924987352  1.0000
  C   C108      1.0  0.618168046619715  0.7479673607397643  0.45120010781519676  1.0000
  C   C109      1.0  0.6599302944025  0.7889040517760506  0.03717667508882275  1.0000
  C   C110      1.0  0.8400048231140431  0.962851296194806  0.21120575359159943  1.0000
  C   C111      1.0  0.3400633080299258  0.21107182540917077  0.9628180277940288  1.0000
  C   C112      1.0  0.16001478730839847  0.03716396580310289  0.7888103346090745  1.0000
  C   C113      1.0  0.5582997594435856  0.817544665911434  0.04122478507655099  1.0000
  C   C114      1.0  0.9416681328613523  0.9587859622434178  0.18258949863466964  1.0000
  C   C115      1.0  0.44168245692369384  0.18243671200404776  0.9587513646137465  1.0000
  C   C116      1.0  0.05834791962009691  0.041227591940071286  0.8174198230964861  1.0000
  C   C117      1.0  0.46604806028864243  0.7684664390782601  0.03027836121705013  1.0000
  C   C118      1.0  0.03394392291698976  0.9696872318169552  0.23159763587947413  1.0000
  C   C119      1.0  0.5339256090060119  0.23151911130891992  0.9697064567632623  1.0000
  C   C120      1.0  0.9660753493599972  0.030311494034499693  0.7684102044158364  1.0000
  C   C121      1.0  0.3677263322019827  0.7925118934026402  0.033066086667524516  1.0000
  C   C122      1.0  0.13226694019802918  0.9668981223114484  0.20751454269127115  1.0000
  C   C123      1.0  0.6322570479954026  0.20748351074957583  0.966934841143768  1.0000
  C   C124      1.0  0.8677478195471339  0.03309199955385371  0.7924896249217921  1.0000
  C   C125      1.0  0.36126359944402264  0.8656098579930575  0.045477516096653466  1.0000
  C   C126      1.0  0.138652373010288  0.9544823887132379  0.1344000053081159  1.0000
  C   C127      1.0  0.6387385760777138  0.1343901480921872  0.9545275543915036  1.0000
  C   C128      1.0  0.8613479407317046  0.04551648364815009  0.865600068628545  1.0000
  C   C129      1.0  0.4528362066702983  0.9148066818972109  0.056628322436999654  1.0000
  C   C130      1.0  0.046996570791215206  0.9433342622999348  0.08525254739519994  1.0000
  C   C131      1.0  0.5471703397600225  0.0851927904983469  0.9433670804657694  1.0000
  C   C132      1.0  0.952996247526173  0.0566767239020507  0.9147507533872385  1.0000
  C   C133      1.0  0.5515471403207073  0.891146030598634  0.05491022665054865  1.0000
  C   C134      1.0  0.9483304994986882  0.9450489835794894  0.10897228282821199  1.0000
  C   C135      1.0  0.44844166878286273  0.1088391047276787  0.9450567975419728  1.0000
  C   C136      1.0  0.05167143340089811  0.0549638242141555  0.8910401925901039  1.0000
  N   N1        1.0  0.2171043227290284  0.6684743991204201  0.740228131145251  1.0000
  N   N2        1.0  0.2826655186621708  0.2596882833470317  0.33150100647252856  1.0000
  N   N3        1.0  0.7828960041580546  0.3315234629000088  0.2597784320596261  1.0000
  N   N4        1.0  0.7173337033663361  0.7403046639703347  0.6684910126705431  1.0000
  N   N5        1.0  0.5820977799505515  0.7983289279443823  0.820753001743199  1.0000
  N   N6        1.0  0.9176309261181788  0.17933653646029057  0.20190770406906464  1.0000
  N   N7        1.0  0.4179015289151593  0.20167364696970938  0.17924730107847608  1.0000
  N   N8        1.0  0.08236016367170862  0.8206632507845413  0.7980935854891766  1.0000
  N   N9        1.0  0.40709305524010386  0.7079082520714621  0.6138782358236127  1.0000
  N   N10       1.0  0.09293094879399892  0.3860360230505506  0.2922325022730091  1.0000
  N   N11       1.0  0.592905577893582  0.29209434393468564  0.38612616041491776  1.0000
  N   N12       1.0  0.9070728519198141  0.6139597346128409  0.707769160891061  1.0000
  N   N13       1.0  0.36742190444847017  0.8747802961349077  0.8433038445833957  1.0000
  N   N14       1.0  0.13254870262186813  0.15666966984781538  0.1252029212446288  1.0000
  N   N15       1.0  0.6326016764540372  0.1252327837725673  0.1566965200413435  1.0000
  N   N16       1.0  0.8674460554242033  0.8433306107833117  0.8747857871754545  1.0000
  N   N17       1.0  0.16759903313152347  0.6178446251427588  0.217611050102434  1.0000
  N   N18       1.0  0.3322975091946106  0.7824649587870666  0.382037515002743  1.0000
  N   N19       1.0  0.8324064382857161  0.38215649862441137  0.7823939363119407  1.0000
  N   N20       1.0  0.6677065042245405  0.21754350978024212  0.6179591764521533  1.0000
  N   N21       1.0  0.4127698498348381  0.8394193410684353  0.2331045708492994  1.0000
  N   N22       1.0  0.087214938938061  0.7668402989338501  0.16044633056866078  1.0000
  N   N23       1.0  0.5872242642152727  0.1605905708233593  0.7668944438606217  1.0000
  N   N24       1.0  0.9127928424044711  0.23317677292652658  0.8395555384783079  1.0000
  N   N25       1.0  0.11815522897011731  0.6305725322969947  0.9792443475232488  1.0000
  N   N26       1.0  0.3819408477749064  0.020804534556283696  0.36944729543625227  1.0000
  N   N27       1.0  0.8818452204319629  0.3694215829073712  0.020758314692386606  1.0000
  N   N28       1.0  0.6180643574113419  0.9791863976238271  0.6305456629646499  1.0000
  N   N29       1.0  0.13719969157643425  0.3833918961129966  0.7642907332822944  1.0000
  N   N30       1.0  0.3626623244310921  0.23566987729878963  0.6166020097146259  1.0000
  N   N31       1.0  0.862797837846138  0.6166090638704063  0.2357106649797345  1.0000
  N   N32       1.0  0.6373296738080898  0.7643261768941442  0.3833954270487609  1.0000
  O   O1        1.0  0.3889833883491534  0.5376230463665764  0.9065477704220726  1.0000
  O   O2        1.0  0.11106612855397911  0.09326572992401339  0.46220900209495147  1.0000
  O   O3        1.0  0.6110156059799436  0.462385985696521  0.09346371743787067  1.0000
  O   O4        1.0  0.8889271812859576  0.9067340550430384  0.5377872550324055  1.0000
  O   O5        1.0  0.5509784647020626  0.6005371101580649  0.9492238513087583  1.0000
  O   O6        1.0  0.9491081789713649  0.05045399035427779  0.3993363278457948  1.0000
  O   O7        1.0  0.44902418316264914  0.39947088888732907  0.0507834950618431  1.0000
  O   O8        1.0  0.050889499054214596  0.9495394454978197  0.6006536445279024  1.0000
  O   O9        1.0  0.23917736898967232  0.9127369919169294  0.5474496803039414  1.0000
  O   O10       1.0  0.2606708452922888  0.4526112044263399  0.08726407380334678  1.0000
  O   O11       1.0  0.760841298322298  0.08726482090565921  0.45254692721481854  1.0000
  O   O12       1.0  0.7393391761122249  0.5473894422924915  0.912737975143912  1.0000
  O   O13       1.0  0.27307110741646323  0.0036082808743032003  0.6437356064188933  1.0000
  O   O14       1.0  0.2268964533959307  0.3562708254594824  0.996455769046136  1.0000
  O   O15       1.0  0.7269264061380768  0.9963878740247836  0.35626268540664086  1.0000
  O   O16       1.0  0.7731014794932065  0.6437381056989223  0.0035453165913069107  1.0000
  O   O17       1.0  0.15153775373467232  0.6224535608518451  0.7523668244451827  1.0000
  O   O18       1.0  0.3482114241579028  0.24752440341165993  0.3774971647238345  1.0000
  O   O19       1.0  0.8484641453360955  0.3775448360458995  0.24763684936507954  1.0000
  O   O20       1.0  0.6517874759082859  0.7524573201925618  0.622486727166951  1.0000
  O   O21       1.0  0.19609468306642697  0.7084195355224236  0.700259317691497  1.0000
  O   O22       1.0  0.30370164948801914  0.29958082941084996  0.2914803709673491  1.0000
  O   O23       1.0  0.8039103579638793  0.29157462305367676  0.2997389743778384  1.0000
  O   O24       1.0  0.6962948750582713  0.7004238331252565  0.7085212561796863  1.0000
  O   O25       1.0  0.6422450218057423  0.8177907858716722  0.8776513650693616  1.0000
  O   O26       1.0  0.8574046006299555  0.12245435309247904  0.18249308245125206  1.0000
  O   O27       1.0  0.35776557408811993  0.18219919310337224  0.12234376064784411  1.0000
  O   O28       1.0  0.14257557113933222  0.8775505756725223  0.8175102415456192  1.0000
  O   O29       1.0  0.5859996152935879  0.8265331991818597  0.7693521725041206  1.0000
  O   O30       1.0  0.9138715635557235  0.23070531003587993  0.17365381235516958  1.0000
  O   O31       1.0  0.41399518731854823  0.17347517392793319  0.23065222384056477  1.0000
  O   O32       1.0  0.08612985421247998  0.7692957056972458  0.8263462737745896  1.0000
  O   O33       1.0  0.4283451729389115  0.6616448428245787  0.6463162340528824  1.0000
  O   O34       1.0  0.0716004593361674  0.3535796399264157  0.338479543743297  1.0000
  O   O35       1.0  0.5716375060686333  0.33835537443292185  0.3536903405075407  1.0000
  O   O36       1.0  0.9284174881949809  0.6464163654918806  0.6615229869198201  1.0000
  O   O37       1.0  0.4081905942786009  0.7015591428458876  0.5490229309212608  1.0000
  O   O38       1.0  0.09203953431226351  0.45090736910506013  0.29865549513296225  1.0000
  O   O39       1.0  0.59180410436791  0.29843276818689896  0.4509820184419553  1.0000
  O   O40       1.0  0.907950036932512  0.5490881146612592  0.7013421943236222  1.0000
  O   O41       1.0  0.3410471646441523  0.8271767010058467  0.8738967672029004  1.0000
  O   O42       1.0  0.15867616068447898  0.12612949191392178  0.17289164939910506  1.0000
  O   O43       1.0  0.6589890777292099  0.17284571937594959  0.12611563799411127  1.0000
  O   O44       1.0  0.8413042962931953  0.8738646776097383  0.8270938796381984  1.0000
  O   O45       1.0  0.39987455948473644  0.9376406949333213  0.8730662858524523  1.0000
  O   O46       1.0  0.10058198231453022  0.1268372811591121  0.0622949232323862  1.0000
  O   O47       1.0  0.6001629619209511  0.06237307472265739  0.12692419496684687  1.0000
  O   O48       1.0  0.8994213545402306  0.8731684371689356  0.9376913297706578  1.0000
  O   O49       1.0  0.4589542036027084  0.5493668800579882  0.060059693631288304  1.0000
  O   O50       1.0  0.041083235194747734  0.9398788041483004  0.45079319095386683  1.0000
  O   O51       1.0  0.541053821194332  0.45064016142531205  0.9399493023542147  1.0000
  O   O52       1.0  0.9589151190801247  0.0601168745940583  0.5492102056550862  1.0000
  O   O53       1.0  0.5949424865172263  0.6320105922849918  0.11186730920725553  1.0000
  O   O54       1.0  0.9052364256756109  0.8880393323386784  0.36807605204965194  1.0000
  O   O55       1.0  0.40506369027534833  0.36799531983146483  0.8881372079281603  1.0000
  O   O56       1.0  0.09475409408391763  0.11195040205085151  0.631931280849919  1.0000
  O   O57       1.0  0.13500086874182674  0.642640604395268  0.2750480885807463  1.0000
  O   O58       1.0  0.36496230127122703  0.7250619271453399  0.3572039979472165  1.0000
  O   O59       1.0  0.8650000557261779  0.357367319194509  0.7249534666856119  1.0000
  O   O60       1.0  0.6350502355403835  0.27495145434178875  0.6427911530684227  1.0000
  O   O61       1.0  0.12537391094111433  0.5632214693614656  0.17333885097042406  1.0000
  O   O62       1.0  0.3743697233432713  0.8267042593961164  0.43671627486189374  1.0000
  O   O63       1.0  0.8746492331832842  0.4367714924574172  0.8266705423229366  1.0000
  O   O64       1.0  0.6256403475559298  0.17331384666959343  0.5632771786944062  1.0000
  O   O65       1.0  0.34127151264237915  0.8777952924268532  0.24255263795679832  1.0000
  O   O66       1.0  0.15871938135037317  0.7573647807605183  0.12204919503227527  1.0000
  O   O67       1.0  0.6587302506553743  0.1222091109122374  0.757471936793408  1.0000
  O   O68       1.0  0.8413003852553164  0.24269021808655106  0.8779543619271947  1.0000
  O   O69       1.0  0.5082054817230244  0.8618466197612589  0.2405922242017198  1.0000
  O   O70       1.0  0.9917882149755217  0.7593370726534657  0.1380430763222122  1.0000
  O   O71       1.0  0.4917931557090896  0.13816432841511528  0.7593938602880639  1.0000
  O   O72       1.0  0.008222892179325892  0.24065560427651883  0.8619562754299748  1.0000
  O   O73       1.0  0.2259967580334745  0.5492307509624296  0.0022358221741428028  1.0000
  O   O74       1.0  0.2740117139696353  0.9977151241665749  0.45077006282429716  1.0000
  O   O75       1.0  0.7739928119509117  0.45076270340791774  0.9977738104160634  1.0000
  O   O76       1.0  0.7259815224932854  0.0022745302117784002  0.5492214141092687  1.0000
  O   O77       1.0  0.20516993997419064  0.43342491863586463  0.8804216890558151  1.0000
  O   O78       1.0  0.2948570865812244  0.11949924222651019  0.5664910120198883  1.0000
  O   O79       1.0  0.7948407637557013  0.5665906165217577  0.1195810468964424  1.0000
  O   O80       1.0  0.7051413767484578  0.8804931926917589  0.4335049801150105  1.0000
  O   O81       1.0  0.746313281587071  0.8244881764746239  0.040934739419682786  1.0000
  O   O82       1.0  0.7537675706525918  0.9593910984157927  0.17554829909397535  1.0000
  O   O83       1.0  0.25367965616567295  0.1754819107344048  0.9590679574131612  1.0000
  O   O84       1.0  0.24623149496077457  0.0406232635087065  0.82446538022468  1.0000
