data_image0
_chemical_formula_structural       Zn2H30C42S4N6O20
_chemical_formula_sum              "Zn2 H30 C42 S4 N6 O20"
_cell_length_a       15.890369668729504
_cell_length_b       17.246679506803325
_cell_length_c       17.04815257028085
_cell_angle_alpha    89.7978304463921
_cell_angle_beta     85.86602529396563
_cell_angle_gamma    87.33022050673532

_space_group_name_H-M_alt    "P 1"
_space_group_IT_number       1

loop_
  _space_group_symop_operation_xyz
  'x, y, z'

loop_
  _atom_site_type_symbol
  _atom_site_label
  _atom_site_symmetry_multiplicity
  _atom_site_fract_x
  _atom_site_fract_y
  _atom_site_fract_z
  _atom_site_occupancy
  Zn  Zn1       1.0  0.5905434699247181  0.5052899125288448  0.49230721703309394  1.0000
  Zn  Zn2       1.0  0.4100211493647024  0.48988977362921543  0.48742507226928217  1.0000
  H   H1        1.0  0.4073498545078423  0.2700067639181256  0.5797441446267158  1.0000
  H   H2        1.0  0.5949883801642386  0.9894705864556314  0.5728693405308007  1.0000
  H   H3        1.0  0.6637290041298913  0.1007244670108705  0.5212259996341829  1.0000
  H   H4        1.0  0.3393676995230592  0.8996516800062864  0.5217959845926929  1.0000
  H   H5        1.0  0.5841144176436686  0.8667754787837935  0.6146267097564504  1.0000
  H   H6        1.0  0.4063495582882695  0.1316750616482878  0.6192320175911022  1.0000
  H   H7        1.0  0.5943113697931112  0.5597741097380791  0.7249247567973074  1.0000
  H   H8        1.0  0.4099998964735222  0.4568342520340066  0.24376548513080112  1.0000
  H   H9        1.0  0.5896280849922776  0.578578593668318  0.8714867942463657  1.0000
  H   H10       1.0  0.40888261666363235  0.47112426727653656  0.0969157278740411  1.0000
  H   H11       1.0  0.6234927406813214  0.6127390494210728  0.09766426427233202  1.0000
  H   H12       1.0  0.5863623242735513  0.7287194953269985  0.5761146525171555  1.0000
  H   H13       1.0  0.3512684199043932  0.47094648957327206  0.8945944986221975  1.0000
  H   H14       1.0  0.1842414237200032  0.3283122226499202  0.35024334239624016  1.0000
  H   H15       1.0  0.09809409373723812  0.3178486152670459  0.4213810458993876  1.0000
  H   H16       1.0  0.08732893473866452  0.38424154104050956  0.3436400648907423  1.0000
  H   H17       1.0  0.8165156258503998  0.6131357639828181  0.6710664129161401  1.0000
  H   H18       1.0  0.9150041282720737  0.5581803472642264  0.6603918625825358  1.0000
  H   H19       1.0  0.9012784239017932  0.6446644402799392  0.6067471761878807  1.0000
  H   H20       1.0  0.36504407780213904  0.6621054509180337  0.42600583749208454  1.0000
  H   H21       1.0  0.646749765843758  0.3358636562315809  0.4201510098245862  1.0000
  H   H22       1.0  0.7545539314221514  0.6455862362069025  0.17368677620243744  1.0000
  H   H23       1.0  0.7402417776213853  0.4421988163358889  0.3943809159688456  1.0000
  H   H24       1.0  0.22152501775905625  0.42491221722610106  0.8233024955402187  1.0000
  H   H25       1.0  0.2611533388611562  0.5778898678778218  0.5581774053793822  1.0000
  H   H26       1.0  0.897354142692926  0.4338902707751373  0.40411223660495926  1.0000
  H   H27       1.0  0.10418358168508492  0.5789653796575392  0.5501244128330853  1.0000
  H   H28       1.0  0.29750342582151035  0.3874302566578223  0.4095546087126678  1.0000
  H   H29       1.0  0.7039341330459123  0.5777173039438918  0.5952220239435421  1.0000
  H   H30       1.0  0.40138334775807044  0.009698945486100296  0.5736453319249151  1.0000
  C   C1        1.0  0.5132768503005849  0.5094171883632582  0.3401731959999098  1.0000
  C   C2        1.0  0.4693461528358256  0.5259897440532839  0.8908298338883683  1.0000
  C   C3        1.0  0.5778801524160286  0.5779181530295573  0.13055466805008112  1.0000
  C   C4        1.0  0.40273360166200695  0.49202051060608887  0.8560655908046328  1.0000
  C   C5        1.0  0.5790142107527674  0.5691718378083549  0.21190846922599604  1.0000
  C   C6        1.0  0.4050079063943457  0.48273266214691557  0.7748839060727092  1.0000
  C   C7        1.0  0.231957478133431  0.5347909468190507  0.5239700092842556  1.0000
  C   C8        1.0  0.7693859036990744  0.4707092772698614  0.4416289174762937  1.0000
  C   C9        1.0  0.14524562043355624  0.5347429624007558  0.5198105565539067  1.0000
  C   C10       1.0  0.855953804694721  0.4670784976741373  0.44654826454979  1.0000
  C   C11       1.0  0.1115082620239178  0.4782333483824529  0.4740360370174699  1.0000
  C   C12       1.0  0.4837662551436281  0.49923349953570556  0.6392596834254931  1.0000
  C   C13       1.0  0.8899075712496297  0.5062609982899886  0.5078810283952038  1.0000
  C   C14       1.0  0.1653763746378516  0.422473004857757  0.4326753026707024  1.0000
  C   C15       1.0  0.8361711745030364  0.5485801659642462  0.5635130638130904  1.0000
  C   C16       1.0  0.5208870782841476  0.34661375521094573  0.5007750253598289  1.0000
  C   C17       1.0  0.4797402461653634  0.650625873669277  0.5057082289286186  1.0000
  C   C18       1.0  0.2516757686900561  0.4279307999505945  0.4402310984654036  1.0000
  C   C19       1.0  0.7497209032962219  0.5474514430884837  0.5539485538724449  1.0000
  C   C20       1.0  0.5335293327228926  0.2639459614977043  0.5265480089275129  1.0000
  C   C21       1.0  0.46577509463107697  0.7345793979039568  0.5279114792506335  1.0000
  C   C22       1.0  0.46270073384280164  0.23147541627929505  0.5663562149252783  1.0000
  C   C23       1.0  0.5178883251495991  0.5244577966516246  0.2531649329292804  1.0000
  C   C24       1.0  0.5322934657093157  0.7671422023075465  0.5649261095954472  1.0000
  C   C25       1.0  0.46243584426947854  0.15403707292767166  0.5880135611676991  1.0000
  C   C26       1.0  0.5312223947705661  0.8446855209203575  0.5855409989461721  1.0000
  C   C27       1.0  0.5336233343569816  0.10431097160625308  0.5688595637436792  1.0000
  C   C28       1.0  0.46292527848515164  0.8949767944120877  0.567944449379887  1.0000
  C   C29       1.0  0.606815726519784  0.1373529078131526  0.534710781750704  1.0000
  C   C30       1.0  0.3940583387081489  0.8625876162416972  0.5348468594951683  1.0000
  C   C31       1.0  0.6077947934591492  0.21549990175147116  0.5138524041467178  1.0000
  C   C32       1.0  0.3945548248832723  0.7842501695812485  0.5150112272404358  1.0000
  C   C33       1.0  0.5330840696386119  0.020257781707520895  0.5764427991355419  1.0000
  C   C34       1.0  0.47500403170585065  0.5069340276533936  0.7271368378120402  1.0000
  C   C35       1.0  0.46276989137001595  0.9788709206063895  0.5763561272405227  1.0000
  C   C36       1.0  0.132339761341477  0.35990548966072555  0.3841524248191561  1.0000
  C   C37       1.0  0.8687252871080134  0.5933506818378901  0.6292500324647534  1.0000
  C   C38       1.0  0.45664638615313186  0.49057110813352256  0.21049199980462424  1.0000
  C   C39       1.0  0.5406633713695755  0.5417873547977478  0.7630041210787937  1.0000
  C   C40       1.0  0.4555581816309982  0.4985572401263382  0.1298406720846543  1.0000
  C   C41       1.0  0.5384356033373408  0.5522145536144762  0.8436771934257266  1.0000
  C   C42       1.0  0.5167381871956067  0.5426379115681286  0.08932700617709338  1.0000
  S   S1        1.0  0.2964340706902604  0.7564352968069058  0.4786731672129534  1.0000
  S   S2        1.0  0.7098878654768654  0.2451916059575011  0.4744563407002502  1.0000
  S   S3        1.0  0.6586886473014247  0.6177195126217825  0.2612548207706951  1.0000
  S   S4        1.0  0.3200704016612548  0.43543924283770247  0.7332909928259852  1.0000
  N   N1        1.0  0.5237625668062195  0.5513890805706723  0.006574544084607198  1.0000
  N   N2        1.0  0.4616755745846248  0.5257987057766369  0.9736459707275386  1.0000
  N   N3        1.0  0.2840146224036176  0.4824804097641718  0.48407827688565425  1.0000
  N   N4        1.0  0.7172496069953668  0.5096937228230514  0.4952118933021197  1.0000
  N   N5        1.0  0.024443743072396294  0.47732136115907065  0.4628658168463673  1.0000
  N   N6        1.0  0.9772298959194502  0.5046107986380974  0.5198970980412483  1.0000
  O   O1        1.0  0.5776902994994516  0.5236075682956736  0.3764317054367083  1.0000
  O   O2        1.0  0.25238992158510615  0.8250927840531401  0.4517801144795612  1.0000
  O   O3        1.0  0.32464358180637737  0.7056666804064375  0.4045239625381996  1.0000
  O   O4        1.0  0.7413327641296519  0.2966748075443063  0.5310403896416673  1.0000
  O   O5        1.0  0.7596449869029273  0.17686998543985766  0.44910405058887193  1.0000
  O   O6        1.0  0.6885435672863168  0.2917450501143718  0.3979942738803217  1.0000
  O   O7        1.0  0.6183749627608465  0.672402167237344  0.31645396517971147  1.0000
  O   O8        1.0  0.7257586237703251  0.5631229938235619  0.280501611637014  1.0000
  O   O9        1.0  0.6991529439493647  0.6701005598954167  0.18945196954869203  1.0000
  O   O10       1.0  0.2586216831920538  0.4915481216140734  0.7061796224649299  1.0000
  O   O11       1.0  0.3552976971256641  0.37228609995990064  0.6852924701924081  1.0000
  O   O12       1.0  0.41771611203223097  0.5144152566006709  0.6033952576234897  1.0000
  O   O13       1.0  0.27521716244432093  0.39573707310931633  0.8113572216350917  1.0000
  O   O14       1.0  0.4447778132182806  0.483017642291294  0.3704803977285565  1.0000
  O   O15       1.0  0.5571575620424555  0.4809398176695935  0.6085575933935844  1.0000
  O   O16       1.0  0.5836374845729823  0.38401062288603066  0.4699331103855613  1.0000
  O   O17       1.0  0.4232558108937213  0.6147794364085469  0.47117600331882414  1.0000
  O   O18       1.0  0.4468638083376746  0.3768457833790606  0.5106370850079003  1.0000
  O   O19       1.0  0.5488128755579709  0.6175114279188421  0.5228850709990382  1.0000
  O   O20       1.0  0.25569072761442874  0.7097910940381663  0.5397031599136  1.0000
