data_image0
_chemical_formula_structural       Li4H72C40S4N4O12
_chemical_formula_sum              "Li4 H72 C40 S4 N4 O12"
_cell_length_a       6.31210741331198
_cell_length_b       10.146232763219297
_cell_length_c       19.466800200077135
_cell_angle_alpha    94.12849341605572
_cell_angle_beta     89.9997005355853
_cell_angle_gamma    89.99893711932893

_space_group_name_H-M_alt    "P 1"
_space_group_IT_number       1

loop_
  _space_group_symop_operation_xyz
  'x, y, z'

loop_
  _atom_site_type_symbol
  _atom_site_label
  _atom_site_symmetry_multiplicity
  _atom_site_fract_x
  _atom_site_fract_y
  _atom_site_fract_z
  _atom_site_occupancy
  Li  Li1       1.0  0.3062043618293231  0.4756312825378402  0.7746999421738251  1.0000
  Li  Li2       1.0  0.193768643086706  0.9756345372555375  0.7746991814083228  1.0000
  Li  Li3       1.0  0.6937840516333437  0.5243631800345129  0.22529970568911742  1.0000
  Li  Li4       1.0  0.80623561306394  0.024352020009104105  0.2253001711796685  1.0000
  H   H1        1.0  0.7630411487461615  0.5287567175991015  0.6278324139059704  1.0000
  H   H2        1.0  0.7369716195411085  0.028774061507057507  0.6278407345369672  1.0000
  H   H3        1.0  0.23697736566450797  0.47123477868749575  0.3721645546665114  1.0000
  H   H4        1.0  0.2630453103965067  0.9712243604319402  0.3721698487824198  1.0000
  H   H5        1.0  0.0015233272278081  0.43841681904435614  0.640231859451056  1.0000
  H   H6        1.0  0.4984878843321354  0.9384322292308341  0.6402351673885602  1.0000
  H   H7        1.0  0.9984809288870266  0.5615727020148782  0.3597665764439597  1.0000
  H   H8        1.0  0.5015036975073385  0.061566191870085184  0.3597738748347011  1.0000
  H   H9        1.0  0.9186324575027525  0.4722982717104641  0.5558035006583281  1.0000
  H   H10       1.0  0.5813922625507145  0.9723068312729457  0.5558077438365243  1.0000
  H   H11       1.0  0.08137655143601558  0.5276882842053681  0.4441937970948897  1.0000
  H   H12       1.0  0.4186135776401655  0.0276915867717591  0.44419667500479676  1.0000
  H   H13       1.0  0.29839133740058077  0.5724095835676624  0.5425162081992312  1.0000
  H   H14       1.0  0.20162909497162224  0.0724263543770007  0.5425101813672555  1.0000
  H   H15       1.0  0.7016335140230507  0.42758290083248357  0.45748079727400887  1.0000
  H   H16       1.0  0.7983783294064394  0.9275770040860183  0.4574939083015435  1.0000
  H   H17       1.0  0.3568342247769465  0.5462286957156763  0.6300361651999393  1.0000
  H   H18       1.0  0.1431728309380134  0.04624913062353641  0.6300272879785709  1.0000
  H   H19       1.0  0.6431827053767805  0.4537628005804352  0.36996080337418386  1.0000
  H   H20       1.0  0.856825087868124  0.9537542302070324  0.3699803976523198  1.0000
  H   H21       1.0  0.3778409369961365  0.7077010625975151  0.6001228413817898  1.0000
  H   H22       1.0  0.12216346483155148  0.20771582077479425  0.6001137862544892  1.0000
  H   H23       1.0  0.6221664876307499  0.2922894456040694  0.39987409029487236  1.0000
  H   H24       1.0  0.8778328697164213  0.7922905012193053  0.39988887302536097  1.0000
  H   H25       1.0  0.953147250751698  0.7001752207358152  0.5143567639944776  1.0000
  H   H26       1.0  0.5468750661700241  0.20019286304077613  0.5143541032208673  1.0000
  H   H27       1.0  0.04686967958478759  0.2998063914039477  0.48563572584678366  1.0000
  H   H28       1.0  0.4531450322358097  0.7998114844879612  0.48565156446450414  1.0000
  H   H29       1.0  0.04082826351255869  0.83435745886284  0.5710536003883745  1.0000
  H   H30       1.0  0.45916340236984604  0.33438102619469134  0.5710576830237741  1.0000
  H   H31       1.0  0.9591744084268469  0.16563008194189882  0.4289385972040946  1.0000
  H   H32       1.0  0.5408614488667068  0.6656213426918711  0.4289443148897972  1.0000
  H   H33       1.0  0.7880091712433879  0.7609400645741078  0.5834335358082113  1.0000
  H   H34       1.0  0.712007031671618  0.26095672134437825  0.5834439261029869  1.0000
  H   H35       1.0  0.2120077591418692  0.23903858278084306  0.4165583296036387  1.0000
  H   H36       1.0  0.2880019770368492  0.7390397223585836  0.4165635011651928  1.0000
  H   H37       1.0  0.35065017241148405  0.31651498253831534  0.9257550112556173  1.0000
  H   H38       1.0  0.1493487289057782  0.8165197574559712  0.9257523246521656  1.0000
  H   H39       1.0  0.6493461620704225  0.6834943055608776  0.07425032728350087  1.0000
  H   H40       1.0  0.8506460215982583  0.1834766780807939  0.07424225994421357  1.0000
  H   H41       1.0  0.2468437118180304  0.22461036626045677  0.8512291196957804  1.0000
  H   H42       1.0  0.2531480510359216  0.7246129083048913  0.8512282358892589  1.0000
  H   H43       1.0  0.7531589598459973  0.7753880527934812  0.14877684027121765  1.0000
  H   H44       1.0  0.7468593734051295  0.27539143236842284  0.14876664395251987  1.0000
  H   H45       1.0  0.043773271432520695  0.28020684487911035  0.9884456388847978  1.0000
  H   H46       1.0  0.45621455241315795  0.7802000335644694  0.9884461307090217  1.0000
  H   H47       1.0  0.956215141879504  0.7197965123777268  0.011556395973848098  1.0000
  H   H48       1.0  0.543770692455361  0.21980035727622754  0.011552711186183699  1.0000
  H   H49       1.0  0.9487394287546562  0.17364216754840103  0.9184230549789446  1.0000
  H   H50       1.0  0.5512499425215296  0.673632312194478  0.9184240908124293  1.0000
  H   H51       1.0  0.05124898443945369  0.8263710689137226  0.08157575300062798  1.0000
  H   H52       1.0  0.44874797626054885  0.32637697259449544  0.08157611065040979  1.0000
  H   H53       1.0  0.7536962308779067  0.3480743489778035  0.8703807242536852  1.0000
  H   H54       1.0  0.7463110061591394  0.8480552345119039  0.8703800700865539  1.0000
  H   H55       1.0  0.24631594614442778  0.6519388893221106  0.12962116594603398  1.0000
  H   H56       1.0  0.25368215983728953  0.15195503845716735  0.12962016828853248  1.0000
  H   H57       1.0  0.749049483683734  0.41432905909770323  0.9576052688137507  1.0000
  H   H58       1.0  0.7509432518884294  0.9143089017782773  0.9576061092465903  1.0000
  H   H59       1.0  0.2509531877339697  0.5856901061883094  0.042393760594947594  1.0000
  H   H60       1.0  0.24904674568918486  0.08569445480890893  0.04239489819548228  1.0000
  H   H61       1.0  0.9294095301562135  0.5575517294967511  0.8584955897712803  1.0000
  H   H62       1.0  0.5705937627321019  0.0575394460535676  0.8584974233849035  1.0000
  H   H63       1.0  0.07060264699825318  0.4424555765929911  0.14150094190991777  1.0000
  H   H64       1.0  0.42939148197465465  0.9424688533004614  0.14150685084346287  1.0000
  H   H65       1.0  0.06264615287587821  0.5492159868660736  0.9397587149174736  1.0000
  H   H66       1.0  0.43735402455347117  0.049206215592747106  0.939756450836995  1.0000
  H   H67       1.0  0.9373707769475528  0.45079724909481916  0.06023957932508489  1.0000
  H   H68       1.0  0.5626232989364794  0.9507981305423743  0.0602466483553883  1.0000
  H   H69       1.0  0.7441021163653048  0.8551826594512663  0.7212765772605605  1.0000
  H   H70       1.0  0.7558012723964963  0.3552205278561545  0.7212856338084703  1.0000
  H   H71       1.0  0.2558799602362996  0.1448058683083815  0.2787136024307131  1.0000
  H   H72       1.0  0.2441823880057683  0.6447877751381628  0.27872429120363046  1.0000
  C   C1        1.0  0.7953685076741691  0.7546919323464965  0.7277519192339524  1.0000
  C   C2        1.0  0.7045567341068518  0.25472250255365486  0.7277479440607946  1.0000
  C   C3        1.0  0.2046246586834428  0.24529857263996044  0.2722398753828513  1.0000
  C   C4        1.0  0.2954221738752665  0.7452670203080772  0.2722530603978014  1.0000
  C   C5        1.0  0.6708454328407497  0.6626298501933193  0.7570579840750183  1.0000
  C   C6        1.0  0.8291184573717414  0.16265595962807572  0.7570515852429975  1.0000
  C   C7        1.0  0.32913347523892605  0.33735374309879523  0.24294177152475524  1.0000
  C   C8        1.0  0.1708968884182269  0.8373394929146302  0.24295118174413224  1.0000
  C   C9        1.0  0.052741191478887096  0.64086867573608  0.6134446261260961  1.0000
  C   C10       1.0  0.44723326356882603  0.14087657541777793  0.6134476292436657  1.0000
  C   C11       1.0  0.9472678173178793  0.35912677420409983  0.3865540312078933  1.0000
  C   C12       1.0  0.5527630707803509  0.8591435800382712  0.3865545193236882  1.0000
  C   C13       1.0  0.9263134800496713  0.5122117495353892  0.60974612612155  1.0000
  C   C14       1.0  0.5736937411314073  0.012225122165190802  0.609750967734797  1.0000
  C   C15       1.0  0.07369711309110019  0.48777875864717396  0.3902508055518296  1.0000
  C   C16       1.0  0.42629625630975443  0.9877841669622499  0.39025591193327347  1.0000
  C   C17       1.0  0.2862168245348116  0.6156102901834118  0.5958490980369431  1.0000
  C   C18       1.0  0.21378084756528176  0.11562197356941083  0.5958418340460623  1.0000
  C   C19       1.0  0.7138001056189154  0.3843812061126926  0.4041478705371801  1.0000
  C   C20       1.0  0.7862249925410225  0.8843823730546915  0.40416229253169417  1.0000
  C   C21       1.0  0.952979854397469  0.7408218782211551  0.5682086301027665  1.0000
  C   C22       1.0  0.5470245211823794  0.24083754628208717  0.5682120596757583  1.0000
  C   C23       1.0  0.0470339073596833  0.25916467403536814  0.4317830168634343  1.0000
  C   C24       1.0  0.45299240868055785  0.7591707515614845  0.43179015968992457  1.0000
  C   C25       1.0  0.2113897372465914  0.3016158486377662  0.8919379112703466  1.0000
  C   C26       1.0  0.288603833037925  0.8016159901017021  0.8919389350008157  1.0000
  C   C27       1.0  0.7886081815644913  0.698389485855387  0.10806573851547797  1.0000
  C   C28       1.0  0.7113940858608387  0.19838637663601594  0.10805946698842209  1.0000
  C   C29       1.0  0.0097741059769092  0.272968920230511  0.9329387205868327  1.0000
  C   C30       1.0  0.49021644782484225  0.7729597224925372  0.932935985887475  1.0000
  C   C31       1.0  0.9902206442653422  0.7270403665579009  0.06706456312407028  1.0000
  C   C32       1.0  0.5097909765754594  0.22704560831278542  0.06706201310640128  1.0000
  C   C33       1.0  0.8532120521186001  0.3816006158117916  0.9144899160158031  1.0000
  C   C34       1.0  0.6467839532559978  0.8815975166168928  0.9144874531736346  1.0000
  C   C35       1.0  0.14679378792226316  0.618408670910057  0.08551336768361038  1.0000
  C   C36       1.0  0.3532076284766887  0.11841176986047229  0.08551531683308869  1.0000
  C   C37       1.0  0.9998415183636735  0.4910672134595161  0.8940437649739007  1.0000
  C   C38       1.0  0.5001547851809888  0.9910599454821994  0.89404138456878  1.0000
  C   C39       1.0  0.0001659059514196  0.5089420719325446  0.10595746389402187  1.0000
  C   C40       1.0  0.49982887533304426  0.0089463749376151  0.10595870618688959  1.0000
  S   S1        1.0  0.04218825927465279  0.7104692337237924  0.7037627865951136  1.0000
  S   S2        1.0  0.457738274701441  0.2104809523612801  0.7037546139570665  1.0000
  S   S3        1.0  0.9578128283510096  0.2895232465280558  0.2962275407057219  1.0000
  S   S4        1.0  0.5422501386957919  0.7895184503088191  0.29624419102753297  1.0000
  N   N1        1.0  0.5692178988933705  0.5820998431784049  0.782933819004455  1.0000
  N   N2        1.0  0.9307510894916858  0.08211978694450292  0.7829193194013226  1.0000
  N   N3        1.0  0.4307673459918178  0.4178985723493441  0.21706649019849777  1.0000
  N   N4        1.0  0.0692420766263808  0.9178855416359042  0.21707508365508932  1.0000
  O   O1        1.0  0.10998462650508149  0.601491472340193  0.7442195224367792  1.0000
  O   O2        1.0  0.38998086505507956  0.10150104110172012  0.7442129206629244  1.0000
  O   O3        1.0  0.8900180452157682  0.39850891641548725  0.2557762371955832  1.0000
  O   O4        1.0  0.6100091326200854  0.8984963859158628  0.2557868379203255  1.0000
  O   O5        1.0  0.17721431100434154  0.8290969257035957  0.7049889735989934  1.0000
  O   O6        1.0  0.32272297756450286  0.32910532799177616  0.7049865470291434  1.0000
  O   O7        1.0  0.8227487543188374  0.17090346130936504  0.2950037038296358  1.0000
  O   O8        1.0  0.6772765254992024  0.6709000068219455  0.29501761646249486  1.0000
  O   O9        1.0  0.17184202703266038  0.42222614568104433  0.8583547945088412  1.0000
  O   O10       1.0  0.3281564878459945  0.9222238337739699  0.8583520665069243  1.0000
  O   O11       1.0  0.8281511390600683  0.5777742497331033  0.14165123928263765  1.0000
  O   O12       1.0  0.6718335097828642  0.0777775448597069  0.14164629858320407  1.0000
