data_image0
_chemical_formula_structural       Zn4H40C36N8O24
_chemical_formula_sum              "Zn4 H40 C36 N8 O24"
_cell_length_a       7.208822491318907
_cell_length_b       7.373829630056328
_cell_length_c       21.842871715134418
_cell_angle_alpha    89.99955123275335
_cell_angle_beta     89.99892273586225
_cell_angle_gamma    89.99996407063308

_space_group_name_H-M_alt    "P 1"
_space_group_IT_number       1

loop_
  _space_group_symop_operation_xyz
  'x, y, z'

loop_
  _atom_site_type_symbol
  _atom_site_label
  _atom_site_symmetry_multiplicity
  _atom_site_fract_x
  _atom_site_fract_y
  _atom_site_fract_z
  _atom_site_occupancy
  Zn  Zn1       1.0  0.7500079011345377  0.9266216076947201  0.2144357487596409  1.0000
  Zn  Zn2       1.0  0.2500020466032923  0.42661480388554196  0.2855627631208719  1.0000
  Zn  Zn3       1.0  0.7500007078969945  0.5733841284017769  0.714438692129356  1.0000
  Zn  Zn4       1.0  0.24999624056658834  0.07338139303976732  0.7855652486656693  1.0000
  H   H1        1.0  0.7499994234184443  0.2927426398935822  0.8600897816148676  1.0000
  H   H2        1.0  0.25000154608977  0.7927392830218949  0.6399099196205782  1.0000
  H   H3        1.0  0.7500012085157123  0.20725693701330528  0.3600878731111337  1.0000
  H   H4        1.0  0.2500061054609191  0.7072535800980619  0.13991167363032284  1.0000
  H   H5        1.0  0.6372849416607734  0.20949566225559826  0.2702589142074673  1.0000
  H   H6        1.0  0.3627209837422284  0.709496922088064  0.22973879538218256  1.0000
  H   H7        1.0  0.8627208077389951  0.29050465337702036  0.7702619604142528  1.0000
  H   H8        1.0  0.1372787759359611  0.7905033391808303  0.729740493601426  1.0000
  H   H9        1.0  0.3627205872820554  0.7905059823523999  0.7297402519542828  1.0000
  H   H10       1.0  0.6372803835680898  0.29050472249452497  0.7702626598687844  1.0000
  H   H11       1.0  0.1372819467743369  0.709494278915642  0.22973903702071402  1.0000
  H   H12       1.0  0.8627253658181999  0.2094969492801724  0.2702586725664133  1.0000
  H   H13       1.0  0.750010432921883  0.9396652833706867  0.0767070464949526  1.0000
  H   H14       1.0  0.2500064423443291  0.4396674729158576  0.4232932623016978  1.0000
  H   H15       1.0  0.7499949249551249  0.5603273909243073  0.5767086507734406  1.0000
  H   H16       1.0  0.24998954720020813  0.06033364891748501  0.923294408763887  1.0000
  H   H17       1.0  0.7500053639438492  0.7271992522487309  0.9875449786487351  1.0000
  H   H18       1.0  0.2500095195141228  0.22719339298727445  0.5124535215139119  1.0000
  H   H19       1.0  0.7499918478531383  0.7727933339950823  0.4875461024956352  1.0000
  H   H20       1.0  0.24998490589146632  0.27280646079552184  0.012455103185530402  1.0000
  H   H21       1.0  0.7499983740266812  0.28578476583476237  0.1178169700392573  1.0000
  H   H22       1.0  0.24999085613573163  0.7857811835458365  0.38218282800523434  1.0000
  H   H23       1.0  0.749998026618286  0.2142136803622137  0.6178135913255147  1.0000
  H   H24       1.0  0.24998495986399397  0.7142182349167854  0.8821831118200906  1.0000
  H   H25       1.0  0.7500028754387743  0.5157280868573934  0.2006972532436393  1.0000
  H   H26       1.0  0.24999068939193592  0.0157304556546762  0.2993041707982229  1.0000
  H   H27       1.0  0.7499954189286697  0.9842739012647854  0.7006940797896917  1.0000
  H   H28       1.0  0.2499901687634463  0.48427220159100415  0.7993032864044096  1.0000
  H   H29       1.0  0.7499986647033056  0.2067687248189145  0.0111026258592375  1.0000
  H   H30       1.0  0.24999755208784077  0.7067612977192894  0.48889646439099016  1.0000
  H   H31       1.0  0.7499996538042738  0.2932227170068841  0.5110999549282056  1.0000
  H   H32       1.0  0.2499971538758103  0.7932356320708749  0.9888979137748565  1.0000
  H   H33       1.0  0.25001885877505  0.35847693949676085  0.1344069038164193  1.0000
  H   H34       1.0  0.7499966815441114  0.8584856428771915  0.3655867513140549  1.0000
  H   H35       1.0  0.2500074601839657  0.1415146455731389  0.6344133304843069  1.0000
  H   H36       1.0  0.749992218898541  0.6415233489514379  0.8655931779604202  1.0000
  H   H37       1.0  0.2500182233827886  0.12479403071441908  0.1106438522691278  1.0000
  H   H38       1.0  0.7499919178587788  0.624806248303166  0.3893549957324538  1.0000
  H   H39       1.0  0.2500094494389345  0.37519404012666513  0.6106469173355508  1.0000
  H   H40       1.0  0.7499942414281761  0.8752049015645936  0.8893580607662345  1.0000
  C   C1        1.0  0.7500075163645618  0.7933152014003114  0.08334556026675702  1.0000
  C   C2        1.0  0.2500052912226066  0.2933161896355259  0.41665284444386697  1.0000
  C   C3        1.0  0.7499905273717217  0.7066813865225184  0.583347237383883  1.0000
  C   C4        1.0  0.2499841406872463  0.20668644321193602  0.9166536059380306  1.0000
  C   C5        1.0  0.750004794591909  0.6750244607460514  0.0341305753729984  1.0000
  C   C6        1.0  0.2500025400469852  0.17502565737893863  0.46586905615041735  1.0000
  C   C7        1.0  0.749990504156102  0.8249719187746222  0.5341314835012057  1.0000
  C   C8        1.0  0.24998131370435325  0.32497447157306425  0.9658685908525797  1.0000
  C   C9        1.0  0.7500017667032779  0.48694160328691527  0.0451472313689791  1.0000
  C   C10       1.0  0.24999704482368665  0.9869403947252309  0.4548520374965932  1.0000
  C   C11       1.0  0.7499918379042539  0.013054469172146798  0.5451452974646784  1.0000
  C   C12       1.0  0.24998434157951266  0.5130586851742861  0.9548523926700627  1.0000
  C   C13       1.0  0.7500028146580816  0.4295012652117975  0.10640253093084338  1.0000
  C   C14       1.0  0.24999325928951777  0.9294974167227679  0.3935978046748829  1.0000
  C   C15       1.0  0.7499914618580732  0.07049744717054547  0.6063999881145605  1.0000
  C   C16       1.0  0.2499860680024781  0.570500379395966  0.8935970930978101  1.0000
  C   C17       1.0  0.7500056100907173  0.5575373126308135  0.15292188675399393  1.0000
  C   C18       1.0  0.24999763830084024  0.0575358549869449  0.34707805383727935  1.0000
  C   C19       1.0  0.7499967931691601  0.9424630773456429  0.6529197389166868  1.0000
  C   C20       1.0  0.24999437006918876  0.44246568811562526  0.8470781950537046  1.0000
  C   C21       1.0  0.7500038176715976  0.3500219936548775  0.9973747683779236  1.0000
  C   C22       1.0  0.24999850231817078  0.850017769953375  0.5026243243650157  1.0000
  C   C23       1.0  0.7500000907343535  0.14997438164618865  0.4973730105696959  1.0000
  C   C24       1.0  0.2499947753122456  0.649981007097324  0.0026248556188264004  1.0000
  C   C25       1.0  0.4249211476615499  0.1842167514192496  0.1872403026617349  1.0000
  C   C26       1.0  0.575084793934984  0.6842159449486546  0.3127579312423947  1.0000
  C   C27       1.0  0.07509106399531619  0.3157871630499257  0.6872432359343961  1.0000
  C   C28       1.0  0.9249043418783741  0.8157847859111984  0.8127600672201468  1.0000
  C   C29       1.0  0.5750857684034402  0.8157903177513007  0.8127611525648817  1.0000
  C   C30       1.0  0.4249165733618625  0.31578705577600635  0.6872439818220428  1.0000
  C   C31       1.0  0.9249089161393728  0.684213125391004  0.3127577615073989  1.0000
  C   C32       1.0  0.07510257421356671  0.18421957097519487  0.18724047237951422  1.0000
  C   C33       1.0  0.250018459393793  0.21627656387595812  0.15002820534532904  1.0000
  C   C34       1.0  0.7499943976190054  0.7162829192224862  0.3499690285635921  1.0000
  C   C35       1.0  0.2500097440699562  0.2837173692118355  0.6500324266805464  1.0000
  C   C36       1.0  0.7499926182402418  0.7837250807036469  0.8499732498755109  1.0000
  N   N1        1.0  0.7500086348974689  0.7368052094664534  0.14211263266489033  1.0000
  N   N2        1.0  0.24999866013528302  0.23680485589508754  0.3578868363455001  1.0000
  N   N3        1.0  0.7499957712695107  0.7631940764108051  0.6421132454847651  1.0000
  N   N4        1.0  0.24998579651906988  0.26319779128702686  0.8578869913447704  1.0000
  N   N5        1.0  0.7499998887903843  0.3927928395887291  0.9400251101049905  1.0000
  N   N6        1.0  0.24999824218628675  0.8927886345811801  0.5599747857720914  1.0000
  N   N7        1.0  0.7499989636623495  0.10720894160314028  0.44002300697505353  1.0000
  N   N8        1.0  0.25000009136995516  0.6072088050102877  0.05997497170449151  1.0000
  O   O1        1.0  0.7499996011251542  0.2427260653629233  0.9031134943033265  1.0000
  O   O2        1.0  0.2500014004223488  0.7427209995339862  0.5968872541341314  1.0000
  O   O3        1.0  0.7499971926032244  0.2572738643497344  0.4031109964275359  1.0000
  O   O4        1.0  0.2500073149550488  0.757274223075882  0.0968875031169389  1.0000
  O   O5        1.0  0.7500046887525399  0.14513674097309348  0.287307231609411  1.0000
  O   O6        1.0  0.2500026650736729  0.6451357552043149  0.2126915629063859  1.0000
  O   O7        1.0  0.7500000894127083  0.35486588937250474  0.7873103501555364  1.0000
  O   O8        1.0  0.24999945300075413  0.854866259782753  0.7126919345548615  1.0000
  O   O9        1.0  0.5369525140307232  0.06569101389415269  0.16795693219859942  1.0000
  O   O10       1.0  0.4630618267393841  0.565684401847598  0.3320397822097831  1.0000
  O   O11       1.0  0.9630701609214969  0.4343157559300366  0.6679612665548192  1.0000
  O   O12       1.0  0.03693626641388191  0.9343107613511136  0.8320440138540377  1.0000
  O   O13       1.0  0.4630627252058303  0.9343228360269434  0.832043149547488  1.0000
  O   O14       1.0  0.5369367661792522  0.4343185988779154  0.6679621308632662  1.0000
  O   O15       1.0  0.0369298192010277  0.5656818202107273  0.3320401887057969  1.0000
  O   O16       1.0  0.9630748112584016  0.0656935955393365  0.1679560679174514  1.0000
  O   O17       1.0  0.4517812580896604  0.2783151752760985  0.2360097817982094  1.0000
  O   O18       1.0  0.5482260103688786  0.7783209472154838  0.263988204565841  1.0000
  O   O19       1.0  0.04822817521933591  0.22167675267456832  0.7360122136651556  1.0000
  O   O20       1.0  0.9517672910088278  0.7216877017308788  0.7639904213999884  1.0000
  O   O21       1.0  0.5482270451770362  0.7216932500467834  0.7639912156070494  1.0000
  O   O22       1.0  0.45177535694143967  0.22168069736709836  0.7360132506851259  1.0000
  O   O23       1.0  0.9517759664970029  0.7783194673281741  0.2639883259538109  1.0000
  O   O24       1.0  0.04823685073012031  0.27831936746187574  0.2360092025741949  1.0000
