data_image0
_chemical_formula_structural       Na4H28C32O36
_chemical_formula_sum              "Na4 H28 C32 O36"
_cell_length_a       8.081597033003861
_cell_length_b       9.638895754281869
_cell_length_c       13.446706291015593
_cell_angle_alpha    89.99983463914646
_cell_angle_beta     90.00000052580621
_cell_angle_gamma    109.55050824916927

_space_group_name_H-M_alt    "P 1"
_space_group_IT_number       1

loop_
  _space_group_symop_operation_xyz
  'x, y, z'

loop_
  _atom_site_type_symbol
  _atom_site_label
  _atom_site_symmetry_multiplicity
  _atom_site_fract_x
  _atom_site_fract_y
  _atom_site_fract_z
  _atom_site_occupancy
  Na  Na1       1.0  0.8388980688986223  0.6025083465911223  0.9863360838895334  1.0000
  Na  Na2       1.0  0.1611023297977  0.8974919176763054  0.4863352647254332  1.0000
  Na  Na3       1.0  0.16110032232626992  0.3974901065168269  0.013665387550467804  1.0000
  Na  Na4       1.0  0.8388965072418769  0.10250763635752953  0.5136639756838124  1.0000
  H   H1        1.0  0.2619669093471728  0.46480500031010763  0.7893601070522465  1.0000
  H   H2        1.0  0.7380332338450728  0.0351947907841179  0.28935930215440925  1.0000
  H   H3        1.0  0.7380331627767944  0.53519454801571  0.21064062071008757  1.0000
  H   H4        1.0  0.261966049007178  0.964805864170565  0.7106399382536921  1.0000
  H   H5        1.0  0.6761097734385189  0.6330374469669449  0.4727522897442428  1.0000
  H   H6        1.0  0.3238898603236535  0.8669639851757581  0.9727518112109055  1.0000
  H   H7        1.0  0.3238911903101425  0.36696430319889833  0.5272491816923408  1.0000
  H   H8        1.0  0.6761106576143308  0.13303666407426112  0.0272474291972031  1.0000
  H   H9        1.0  0.5031234278414515  0.18394958728271862  0.5033364535488118  1.0000
  H   H10       1.0  0.4968801438254999  0.3160525830254103  0.0033372938007474014  1.0000
  H   H11       1.0  0.49687832518225855  0.8160510562626443  0.4966627868593109  1.0000
  H   H12       1.0  0.5031220550102162  0.6839491614391306  0.9966626902827687  1.0000
  H   H13       1.0  0.025702336857470733  0.7039481986859075  0.7132140729544008  1.0000
  H   H14       1.0  0.9742988946728133  0.7960510895627381  0.21321495869239024  1.0000
  H   H15       1.0  0.9742989703522299  0.2960513439352539  0.2867866548079405  1.0000
  H   H16       1.0  0.0256999423667637  0.20394846447108964  0.7867842817168481  1.0000
  H   H17       1.0  0.9375235158939788  0.42986080124421033  0.6262659316509271  1.0000
  H   H18       1.0  0.062477365338899915  0.07014082617381942  0.12626653592814563  1.0000
  H   H19       1.0  0.06247779131638969  0.5701387413786211  0.3737340524348768  1.0000
  H   H20       1.0  0.937523598412426  0.9298609239987317  0.8737319608022817  1.0000
  H   H21       1.0  0.7138820142261579  0.3152758293001909  0.7432961958147077  1.0000
  H   H22       1.0  0.2861206816729833  0.1847241580883363  0.24329656369842928  1.0000
  H   H23       1.0  0.28611850371115116  0.6847248199481514  0.2567037882699452  1.0000
  H   H24       1.0  0.7138806255380459  0.8152753845361717  0.7567026767108305  1.0000
  H   H25       1.0  0.5581515416799616  0.5629369445171478  0.7238108687240372  1.0000
  H   H26       1.0  0.4418463090672872  0.9370601055195634  0.22381071326661586  1.0000
  H   H27       1.0  0.44184808463332814  0.4370615028928457  0.27618762800981506  1.0000
  H   H28       1.0  0.5581508470732145  0.0629383532964027  0.7761892708202967  1.0000
  C   C1        1.0  0.9414398958929695  0.594377292489867  0.738430774696049  1.0000
  C   C2        1.0  0.05855882028256325  0.9056218934625945  0.23843216881920176  1.0000
  C   C3        1.0  0.05855973041898471  0.4056211549167729  0.2615692093908849  1.0000
  C   C4        1.0  0.9414387816706126  0.09437766627421952  0.7615678152665668  1.0000
  C   C5        1.0  0.8561530133960814  0.4946770867773226  0.6503327241069528  1.0000
  C   C6        1.0  0.14384737890154753  0.0053233312002448005  0.1503334638055662  1.0000
  C   C7        1.0  0.1438470587285536  0.505322461550172  0.3496672599788441  1.0000
  C   C8        1.0  0.8561531390364292  0.9946773180497746  0.8496657766025494  1.0000
  C   C9        1.0  0.6819427944729382  0.3977322334137626  0.6974915845587477  1.0000
  C   C10       1.0  0.3180599834979318  0.10226796051144761  0.1974921241322249  1.0000
  C   C11       1.0  0.31805974782315627  0.6022673035044122  0.3025083995270635  1.0000
  C   C12       1.0  0.6819400886267031  0.8977315878160467  0.8025078599535648  1.0000
  C   C13       1.0  0.6326315880671701  0.5052511151154492  0.7656955353658575  1.0000
  C   C14       1.0  0.36737123032588664  0.9947490317050696  0.2656967467189162  1.0000
  C   C15       1.0  0.367366803159058  0.4947473379958538  0.23430444872106906  1.0000
  C   C16       1.0  0.6326288417987482  0.005250516622417904  0.7343032373668807  1.0000
  C   C17       1.0  0.05829607236998413  0.5313542562325893  0.8004675898320672  1.0000
  C   C18       1.0  0.9417037677356104  0.9686446442876572  0.30046811647719823  1.0000
  C   C19       1.0  0.941703999754651  0.4686452920949052  0.1995323942537226  1.0000
  C   C20       1.0  0.0582950693032984  0.03135490974449341  0.6995318676085845  1.0000
  C   C21       1.0  0.8435533327001394  0.587496101341806  0.5610222809301746  1.0000
  C   C22       1.0  0.1564478280645148  0.9125060807000768  0.06102291786828572  1.0000
  C   C23       1.0  0.15645010122131003  0.4125056374180718  0.4389777031533555  1.0000
  C   C24       1.0  0.8435526898728015  0.0874945685482729  0.9389770662163672  1.0000
  C   C25       1.0  0.5421670390932221  0.3145691694615494  0.6239956054061581  1.0000
  C   C26       1.0  0.457833400395117  0.18543136727326734  0.12399597322484374  1.0000
  C   C27       1.0  0.457831797945687  0.6854303845706015  0.3760043786796247  1.0000
  C   C28       1.0  0.5421683526279252  0.8145692762704188  0.8760040108598164  1.0000
  C   C29       1.0  0.5249053404873008  0.43025832258695834  0.8569819080849401  1.0000
  C   C30       1.0  0.4750971517116084  0.06974115218205411  0.35698251656625507  1.0000
  C   C31       1.0  0.47509517745067603  0.5697423266630681  0.1430173323231685  1.0000
  C   C32       1.0  0.5249029204130268  0.9302583961454406  0.6430174675195348  1.0000
  O   O1        1.0  0.799519388615856  0.6106034369911981  0.7967290485201775  1.0000
  O   O2        1.0  0.20047922310185126  0.8893954860890856  0.29673047753908594  1.0000
  O   O3        1.0  0.2004794484237209  0.38939611704262944  0.20327019188906095  1.0000
  O   O4        1.0  0.7995183788513315  0.11060407364772123  0.7032695065466827  1.0000
  O   O5        1.0  0.03856505693620704  0.511346684684547  0.8910317958336337  1.0000
  O   O6        1.0  0.9614312591012888  0.9886496170413537  0.3910322810466696  1.0000
  O   O7        1.0  0.9614316533896173  0.488650673205534  0.10897041928404151  1.0000
  O   O8        1.0  0.03856545122719271  0.011347740855434602  0.6089669593648424  1.0000
  O   O9        1.0  0.17832140759264092  0.5035972071269229  0.7456601455805443  1.0000
  O   O10       1.0  0.8216789765293413  0.9964030414476216  0.24565986985835767  1.0000
  O   O11       1.0  0.8216774294456002  0.4964023469035583  0.25434058218177574  1.0000
  O   O12       1.0  0.1783195170498644  0.0035987201325653013  0.7543393705485856  1.0000
  O   O13       1.0  0.9765856915312273  0.6663271854706425  0.5183626822024153  1.0000
  O   O14       1.0  0.02341341895822788  0.833672992788074  0.018364225622441707  1.0000
  O   O15       1.0  0.023413488966717515  0.33367016101179564  0.48163878923874404  1.0000
  O   O16       1.0  0.9765874424387917  0.16632544891222523  0.9816365021410436  1.0000
  O   O17       1.0  0.6815445917590353  0.575703567601309  0.5358964369678818  1.0000
  O   O18       1.0  0.3184561682143253  0.9242976268177969  0.03589556336230262  1.0000
  O   O19       1.0  0.3184576070760129  0.4242981768615551  0.4641042907921787  1.0000
  O   O20       1.0  0.6815435604512671  0.07570412905941738  0.9641029333681177  1.0000
  O   O21       1.0  0.38982533235889605  0.31757361891979496  0.6276745695000019  1.0000
  O   O22       1.0  0.6101774683566886  0.18242358134969552  0.1276749448147001  1.0000
  O   O23       1.0  0.6101775533982378  0.6824237104536907  0.3723246709115743  1.0000
  O   O24       1.0  0.3898229472276569  0.8175737594297561  0.8723257829499219  1.0000
  O   O25       1.0  0.5995078046510116  0.2398169214349083  0.5588533368830754  1.0000
  O   O26       1.0  0.4004965591657026  0.26018720038074145  0.058855779847021915  1.0000
  O   O27       1.0  0.40049394837269164  0.7601837221104479  0.44114590352504734  1.0000
  O   O28       1.0  0.599506085480691  0.7398156449996167  0.9411464352649761  1.0000
  O   O29       1.0  0.6088517482549278  0.3933673075033894  0.9267633474927239  1.0000
  O   O30       1.0  0.3911506189115812  0.10663185261675781  0.4267631349138696  1.0000
  O   O31       1.0  0.39114876968304907  0.6066333417466298  0.0732358929153847  1.0000
  O   O32       1.0  0.6088482181273209  0.8933677014154003  0.5732368491719058  1.0000
  O   O33       1.0  0.361453235538299  0.40757384846014594  0.8592129606151673  1.0000
  O   O34       1.0  0.6385496984777674  0.0924267171748383  0.3592112922413195  1.0000
  O   O35       1.0  0.638548517484743  0.59242679508354  0.14078702346949262  1.0000
  O   O36       1.0  0.36144745766340236  0.907571741642805  0.6407879481690559  1.0000
