data_image0
_chemical_formula_structural       Cd2H48C56S4N28O4F8
_chemical_formula_sum              "Cd2 H48 C56 S4 N28 O4 F8"
_cell_length_a       8.957926363882121
_cell_length_b       12.598036984
_cell_length_c       16.0573
_cell_angle_alpha    90.0
_cell_angle_beta     96.48343629588928
_cell_angle_gamma    90.0

_space_group_name_H-M_alt    "P 1"
_space_group_IT_number       1

loop_
  _space_group_symop_operation_xyz
  'x, y, z'

loop_
  _atom_site_type_symbol
  _atom_site_label
  _atom_site_symmetry_multiplicity
  _atom_site_fract_x
  _atom_site_fract_y
  _atom_site_fract_z
  _atom_site_occupancy
  Cd  Cd1       1.0  0.0  0.5000001197011912  0.5  1.0000
  Cd  Cd2       1.0  0.5000002075132528  0.0  0.9999997951024255  1.0000
  H   H1        1.0  0.2869278006875149  0.692570597393953  0.5251739372061834  1.0000
  H   H2        1.0  0.2130712833105619  0.19257127146722305  0.9748257871229669  1.0000
  H   H3        1.0  0.7130726143389978  0.3074296420084224  0.4748262757683791  1.0000
  H   H4        1.0  0.7869268846855846  0.8074297617096136  0.02517428430503801  1.0000
  H   H5        1.0  0.2984134963709835  0.4167688987314691  0.3788154398737476  1.0000
  H   H6        1.0  0.2015855876270862  0.9167690184326602  0.12118428445540272  1.0000
  H   H7        1.0  0.701585795140339  0.5832305468964449  0.6211847023275326  1.0000
  H   H8        1.0  0.7984137038842434  0.0832304271952609  0.8788152349761803  1.0000
  H   H9        1.0  0.6653198486503769  0.6896042622381273  0.4562090992676816  1.0000
  H   H10       1.0  0.8346796503741984  0.1896041425369432  0.0437908380360312  1.0000
  H   H11       1.0  0.3346805663761288  0.3103951833897867  0.5437904909371768  1.0000
  H   H12       1.0  0.1653196411371241  0.8103960968654322  0.956209304165256  1.0000
  H   H13       1.0  0.5262477691446108  0.7808462550549394  0.4845008771558953  1.0000
  H   H14       1.0  0.9737517298799717  0.2808445478048327  0.015499682917521808  1.0000
  H   H15       1.0  0.4737537693970779  0.219153984347443  0.5155000293616468  1.0000
  H   H16       1.0  0.0262475616313509  0.7191548978230884  0.9845004592837655  1.0000
  H   H17       1.0  0.6230723073429658  0.9158283956979363  0.40194449112685504  1.0000
  H   H18       1.0  0.8769271916816166  0.415828275996752  0.0980560689465619  1.0000
  H   H19       1.0  0.3769269841683638  0.0841710499299779  0.598055651074425  1.0000
  H   H20       1.0  0.123072099829713  0.5841719634056304  0.9019446960244296  1.0000
  H   H21       1.0  0.7580120980172964  0.8352277432875965  0.3592792020489028  1.0000
  H   H22       1.0  0.741987401007286  0.3352268298119512  0.14072135802451413  1.0000
  H   H23       1.0  0.24198831700920923  0.1647724961147787  0.6407210109256597  1.0000
  H   H24       1.0  0.2580118905040436  0.6647734095904312  0.8592787841767662  1.0000
  H   H25       1.0  0.5750880975273063  0.1453988428773769  0.18021881543174356  1.0000
  H   H26       1.0  0.9249125250124592  0.6453989625785681  0.31978119264523747  1.0000
  H   H27       1.0  0.4249111939840233  0.8546013965249983  0.8197807039998325  1.0000
  H   H28       1.0  0.0750890135292295  0.35460127682381437  0.6802190911025934  1.0000
  H   H29       1.0  0.5971820235387995  0.8122289220928351  0.17365406615902404  1.0000
  H   H30       1.0  0.902817475485783  0.312228802391644  0.326346493914393  1.0000
  H   H31       1.0  0.402817267972523  0.1877713173095401  0.8263454532725518  1.0000
  H   H32       1.0  0.0971818160255467  0.6877706432362701  0.6736548938263028  1.0000
  H   H33       1.0  0.076667552356902  0.9449408677811492  0.3606726344115216  1.0000
  H   H34       1.0  0.4233315316411748  0.4449399543055038  0.13932771268733293  1.0000
  H   H35       1.0  0.9233328626696037  0.0550601653956875  0.6393275785630408  1.0000
  H   H36       1.0  0.5766666363549788  0.5550602850968716  0.8606723587406719  1.0000
  H   H37       1.0  0.0958122510213286  0.7106908807595218  0.1650030466655252  1.0000
  H   H38       1.0  0.4041879564919242  0.2106907610583306  0.3349979939763159  1.0000
  H   H39       1.0  0.9041881640051842  0.289307771093938  0.8349971663090372  1.0000
  H   H40       1.0  0.5958113350193983  0.7893086845695834  0.6650027709946758  1.0000
  H   H41       1.0  0.3642065453022454  0.6786962136132147  0.2141226962893796  1.0000
  H   H42       1.0  0.1357936622110074  0.17869530013756224  0.2858777215827573  1.0000
  H   H43       1.0  0.6357938697242602  0.3213032320147065  0.785878139454887  1.0000
  H   H44       1.0  0.8642067528154982  0.8213041454903518  0.7141224913918053  1.0000
  H   H45       1.0  0.5599363718120216  0.6183288721801077  0.3091890741614876  1.0000
  H   H46       1.0  0.9400620036973776  0.1183279587044623  0.19081079236894283  1.0000
  H   H47       1.0  0.440062919699308  0.3816713672222676  0.6908104452700883  1.0000
  H   H48       1.0  0.0599372878139448  0.881671486923459  0.8091893498323374  1.0000
  C   C1        1.0  0.3196007456323571  0.6308578082516902  0.48372478044265693  1.0000
  C   C2        1.0  0.1804005853960788  0.1308584823249603  0.01627508543304401  1.0000
  C   C3        1.0  0.6804007929093316  0.3691416373762237  0.5162755033051809  1.0000
  C   C4        1.0  0.8195998296304268  0.8691425508518762  0.9837251275415184  1.0000
  C   C5        1.0  0.3284349454914093  0.4922886008253968  0.4087125262852355  1.0000
  C   C6        1.0  0.1715652620218435  0.9922871329776726  0.0912872688171902  1.0000
  C   C7        1.0  0.6715654695350963  0.5077124323514397  0.5912870639196158  1.0000
  C   C8        1.0  0.8284351530046692  0.0077123126502485016  0.9087129441573725  1.0000
  C   C9        1.0  0.5508246637035441  0.7197962675865099  0.439448431029092  1.0000
  C   C10       1.0  0.9491759588362142  0.21979614788531882  0.060552199817600204  1.0000
  C   C11       1.0  0.4491768748381446  0.2802031780414111  0.5605512299490343  1.0000
  C   C12       1.0  0.0508233326751082  0.7802032977425952  0.9394485651533914  1.0000
  C   C13       1.0  0.5382896048420989  0.7643309836468433  0.348799372700924  1.0000
  C   C14       1.0  0.9617098941824765  0.2643308639456521  0.15120118737249305  1.0000
  C   C15       1.0  0.46170968666922363  0.2356684619810778  0.6512007695003563  1.0000
  C   C16       1.0  0.0382905208440292  0.7356693754567232  0.8487990256020697  1.0000
  C   C17       1.0  0.6409272105809407  0.8624645263225901  0.3502882419218736  1.0000
  C   C18       1.0  0.8590722884436417  0.3624644066213989  0.14971231815154346  1.0000
  C   C19       1.0  0.359073204445572  0.137534919305331  0.6497119710526817  1.0000
  C   C20       1.0  0.1409270030676808  0.6375358327809764  0.8502878240497438  1.0000
  C   C21       1.0  0.5853907317264131  0.0632868438958027  0.20005658656225483  1.0000
  C   C22       1.0  0.9146110143285285  0.5632869635969939  0.29994411505771273  1.0000
  C   C23       1.0  0.4146096833000996  0.9367126017321112  0.7999436264123007  1.0000
  C   C24       1.0  0.0853894006979772  0.4367124820309201  0.700056720686554  1.0000
  C   C25       1.0  0.5969326031688809  0.8945004697408054  0.19351903181587465  1.0000
  C   C26       1.0  0.9030680193708847  0.394500350039614  0.3064809762611063  1.0000
  C   C27       1.0  0.4030678118576319  0.10549976966157712  0.8064805583889765  1.0000
  C   C28       1.0  0.0969312721404449  0.6055006831372225  0.6935191659401738  1.0000
  C   C29       1.0  0.3742271771912158  0.7894364822575923  0.3168763223044166  1.0000
  C   C30       1.0  0.1257730303220441  0.2894363625564011  0.1831240955677202  1.0000
  C   C31       1.0  0.6257732378352969  0.2105629633703288  0.6831232679004418  1.0000
  C   C32       1.0  0.8742273847044686  0.7105630830715128  0.8168761174068422  1.0000
  C   C33       1.0  0.2886467789126641  0.8636385187484521  0.355630410862517  1.0000
  C   C34       1.0  0.2113534286005887  0.363638399047268  0.1443700070096128  1.0000
  C   C35       1.0  0.7113536361138415  0.1363617206539232  0.6443704248817498  1.0000
  C   C36       1.0  0.7886458629107338  0.6363618403551144  0.8556301351916675  1.0000
  C   C37       1.0  0.1391327493254835  0.8863674566269211  0.3286437820812651  1.0000
  C   C38       1.0  0.3608663346725933  0.3863657493768145  0.1713565650175894  1.0000
  C   C39       1.0  0.8608665421858461  0.1136335765499155  0.6713563601200222  1.0000
  C   C40       1.0  0.6391329568387363  0.6136344900255608  0.8286435771836907  1.0000
  C   C41       1.0  0.0739048285296846  0.8301515556179453  0.2594448765809929  1.0000
  C   C42       1.0  0.4260942554683922  0.3301506421422999  0.2405560932875659  1.0000
  C   C43       1.0  0.926095586496821  0.1698478900099758  0.740555959163274  1.0000
  C   C44       1.0  0.5739039125277543  0.6698488034856211  0.7594446009101434  1.0000
  C   C45       1.0  0.1512599721766463  0.7548295033644765  0.21806894079558256  1.0000
  C   C46       1.0  0.3487379883062474  0.2548293836632851  0.2819313355299968  1.0000
  C   C47       1.0  0.8487393193346833  0.2451707360379061  0.7819312014057047  1.0000
  C   C48       1.0  0.6512613032050822  0.7451716495135514  0.7180681839015791  1.0000
  C   C49       1.0  0.3014638400842458  0.7358416245144781  0.24739393073544855  1.0000
  C   C50       1.0  0.198536367429007  0.2358407110388256  0.2526071099063927  1.0000
  C   C51       1.0  0.698536574942267  0.2641594086623584  0.752606282239114  1.0000
  C   C52       1.0  0.8014640475974986  0.7641595283635496  0.7473931030681699  1.0000
  C   C53       1.0  0.9240013542016073  0.7646215050990861  0.5152130745371509  1.0000
  C   C54       1.0  0.5759981448229752  0.2646190040745182  0.9847856172271464  1.0000
  C   C55       1.0  0.0759979373097224  0.23538032185221172  0.4847858221247138  1.0000
  C   C56       1.0  0.4239988996579953  0.7353764726811036  0.015213760657879005  1.0000
  S   S1        1.0  0.879909000968901  0.8814111289006803  0.5456503767829588  1.0000
  S   S2        1.0  0.6200916215708574  0.38141180297395755  0.9543496312940294  1.0000
  S   S3        1.0  0.1200914140576046  0.118589110501695  0.45434983619159663  1.0000
  S   S4        1.0  0.3799065464252891  0.6185900239773403  0.04565168567339131  1.0000
  N   N1        1.0  0.24502405502512664  0.5412890919958926  0.46314511882381043  1.0000
  N   N2        1.0  0.2549761524881262  0.0412889722947014  0.036854053508911015  1.0000
  N   N3        1.0  0.754976360001379  0.4587111474064898  0.5368544713810479  1.0000
  N   N4        1.0  0.7450242625383794  0.9587104733332126  0.9631455366959402  1.0000
  N   N5        1.0  0.4513239123468153  0.5460041122863899  0.3951293790407747  1.0000
  N   N6        1.0  0.0486762951664446  0.04600399258519871  0.10487103883136231  1.0000
  N   N7        1.0  0.5486753791645143  0.4539953333415312  0.6048707631605128  1.0000
  N   N8        1.0  0.9513241198600682  0.9539962468171765  0.8951297969129046  1.0000
  N   N9        1.0  0.4441255505895967  0.6340360811882491  0.4441954678272496  1.0000
  N   N10       1.0  0.0558735334084801  0.134035961487065  0.055804879271605004  1.0000
  N   N11       1.0  0.5558737409217329  0.3659633644396649  0.5558046743740306  1.0000
  N   N12       1.0  0.9441257581028496  0.8659642779153174  0.9441958856993865  1.0000
  N   N13       1.0  0.6153593756333819  0.9255624518969867  0.2742903041568354  1.0000
  N   N14       1.0  0.8846401233911934  0.42556312597026397  0.22570963314687736  1.0000
  N   N15       1.0  0.3846410393931237  0.0744369937309273  0.725709908817727  1.0000
  N   N16       1.0  0.11535916812012909  0.5744371134321185  0.7742905090544099  1.0000
  N   N17       1.0  0.6077576719266062  0.0335210954322775  0.279730878220505  1.0000
  N   N18       1.0  0.8922429506131522  0.5335212151334616  0.2202691298564829  1.0000
  N   N19       1.0  0.3922427430998994  0.9664783501956435  0.7202693347540575  1.0000
  N   N20       1.0  0.1077574644133534  0.4664782304944525  0.7797310831180725  1.0000
  N   N21       1.0  0.5772609758851104  0.9804725939197922  0.1448241881437724  1.0000
  N   N22       1.0  0.9227396466546479  0.4804724742186082  0.3551758199332156  1.0000
  N   N23       1.0  0.4227394391413952  0.019527645482583  0.8551760248307902  1.0000
  N   N24       1.0  0.0772596448566745  0.5195269714093129  0.6448243222680645  1.0000
  N   N25       1.0  0.9529408582038528  0.6788311552713537  0.4899542891698588  1.0000
  N   N26       1.0  0.5470597643359127  0.1788334168935464  0.010043850598009408  1.0000
  N   N27       1.0  0.0470595568226528  0.3211682903565602  0.5100453010349925  1.0000
  N   N28       1.0  0.4529406506906  0.821169997606667  0.9899538712977289  1.0000
  O   O1        1.0  0.5990470587373338  0.6887128535199096  0.2956893068313704  1.0000
  O   O2        1.0  0.9009524402872485  0.18871273381871842  0.20431063047233522  1.0000
  O   O3        1.0  0.4009522327739958  0.3112873858824656  0.7043102126002054  1.0000
  O   O4        1.0  0.0990468512240739  0.8112875055836569  0.7956895117289451  1.0000
  F   F1        1.0  0.3539398635888915  0.9171016099312652  0.4246285299795787  1.0000
  F   F2        1.0  0.1460603439243613  0.4171006964556128  0.0753718878925511  1.0000
  F   F3        1.0  0.6460616749527901  0.08289862947111003  0.575371753768259  1.0000
  F   F4        1.0  0.8539389475869683  0.5828987491723012  0.9246282543087292  1.0000
  F   F5        1.0  0.9268944057896888  0.85036581600815  0.23116135360212556  1.0000
  F   F6        1.0  0.5731050932348936  0.3503649025324975  0.2688392064712914  1.0000
  F   F7        1.0  0.0731048857216408  0.1496336296197711  0.7688394113688659  1.0000
  F   F8        1.0  0.426894198276436  0.6496353368698778  0.7311609357299959  1.0000
