data_image0
_chemical_formula_structural       Pr6H100C126N6O44
_chemical_formula_sum              "Pr6 H100 C126 N6 O44"
_cell_length_a       13.488717374849578
_cell_length_b       13.94869111245433
_cell_length_c       22.10178779022074
_cell_angle_alpha    74.95138895976292
_cell_angle_beta     88.68725834624054
_cell_angle_gamma    76.42090353000533

_space_group_name_H-M_alt    "P 1"
_space_group_IT_number       1

loop_
  _space_group_symop_operation_xyz
  'x, y, z'

loop_
  _atom_site_type_symbol
  _atom_site_label
  _atom_site_symmetry_multiplicity
  _atom_site_fract_x
  _atom_site_fract_y
  _atom_site_fract_z
  _atom_site_occupancy
  Pr  Pr1       1.0  0.7839834992851564  0.3765724470741885  0.7381685198772203  1.0000
  Pr  Pr2       1.0  0.21601704957746654  0.6234269698130745  0.2618315950708662  1.0000
  Pr  Pr3       1.0  0.8101915145202271  0.6973599858641248  0.7242705634071599  1.0000
  Pr  Pr4       1.0  0.18980903025813237  0.30263942958701046  0.2757304567331076  1.0000
  Pr  Pr5       1.0  0.8726865498981055  0.09921430072661508  0.6756187404025482  1.0000
  Pr  Pr6       1.0  0.12731325987108022  0.9007851151295367  0.3243809312477595  1.0000
  H   H1        1.0  0.45846417321740773  0.4892476233615638  0.7028486539351917  1.0000
  H   H2        1.0  0.541536193021095  0.5107525576715659  0.2971513387748104  1.0000
  H   H3        1.0  0.26887441736609935  0.5368038460255844  0.7092277395025235  1.0000
  H   H4        1.0  0.7311259488723962  0.4631963350075451  0.2907722532074857  1.0000
  H   H5        1.0  0.11034109049881381  0.6636990445015625  0.7214131542939201  1.0000
  H   H6        1.0  0.8896589166178402  0.336302666977481  0.2785852361516632  1.0000
  H   H7        1.0  0.1293837883139589  0.9609413397976635  0.7352082791991139  1.0000
  H   H8        1.0  0.8706165758824086  0.039058840517405685  0.26479216610698586  1.0000
  H   H9        1.0  0.31763572990548283  0.9162069680557107  0.7240861857902344  1.0000
  H   H10       1.0  0.6823653733843216  0.08379321329046968  0.2759147028136368  1.0000
  H   H11       1.0  0.47663512395777724  0.7884795499394169  0.7119867612909802  1.0000
  H   H12       1.0  0.5233659813741623  0.2115206321248236  0.2880136747168009  1.0000
  H   H13       1.0  0.8667652109444929  0.6215901304290269  0.8998639148631185  1.0000
  H   H14       1.0  0.13323533791812991  0.3784092864582361  0.1001362000849682  1.0000
  H   H15       1.0  0.10247044457722862  0.29610528579075884  0.016669939224407005  1.0000
  H   H16       1.0  0.8975301022432589  0.7038941303784438  0.98333062831977  1.0000
  H   H17       1.0  0.016303138096624516  0.3080639994061654  0.9150239423085222  1.0000
  H   H18       1.0  0.9836968502124251  0.6919346508679921  0.0849767567720363  1.0000
  H   H19       1.0  0.4544627949191593  0.3230286465667048  0.761301985949821  1.0000
  H   H20       1.0  0.5455379492487965  0.6769730652253897  0.2386973003896316  1.0000
  H   H21       1.0  0.2685394548541923  0.376560182262402  0.7778809614096787  1.0000
  H   H22       1.0  0.7314601722908665  0.6234399977396163  0.22211858800255155  1.0000
  H   H23       1.0  0.6067242057810773  0.3802366474870951  0.8165420052538364  1.0000
  H   H24       1.0  0.39327597579116974  0.6197642969738408  0.18345831781417843  1.0000
  H   H25       1.0  0.7051617875589214  0.32415968750079555  0.8577712370000226  1.0000
  H   H26       1.0  0.2948389439278288  0.6758389652406008  0.1422290001861342  1.0000
  H   H27       1.0  0.09022424081403813  0.36676088516621513  0.7579754645666554  1.0000
  H   H28       1.0  0.9097737132672423  0.6332400526110787  0.2420257915884747  1.0000
  H   H29       1.0  0.20171683387652453  0.12246617187465597  0.6709715866495642  1.0000
  H   H30       1.0  0.7982840822764813  0.8775317174389414  0.32902832017858696  1.0000
  H   H31       1.0  0.3907098294063188  0.05779490747857348  0.6630912912648057  1.0000
  H   H32       1.0  0.6092905368321836  0.9422052735545562  0.33690870144520346  1.0000
  H   H33       1.0  0.5673717314902476  0.07427225174465239  0.6783362787993212  1.0000
  H   H34       1.0  0.4326288153302399  0.9257271644245503  0.3216642887448558  1.0000
  H   H35       1.0  0.12852652339047674  0.5399992258647471  0.6296537788910967  1.0000
  H   H36       1.0  0.8714723687454153  0.4600009545422876  0.370344422031188  1.0000
  H   H37       1.0  0.19129714257813657  0.5299787308005077  0.5236717559291506  1.0000
  H   H38       1.0  0.808704155588586  0.47002069070817487  0.4763265393362701  1.0000
  H   H39       1.0  0.8418813564744311  0.4880771774883497  0.5826448336850518  1.0000
  H   H40       1.0  0.15811883122420778  0.5119237691267741  0.41735413159469903  1.0000
  H   H41       1.0  0.8936932888451848  0.1951549278064419  0.9341881679322768  1.0000
  H   H42       1.0  0.10630670763238477  0.804843725339971  0.0658107207639347  1.0000
  H   H43       1.0  0.04394806723622227  0.8239577533348237  0.9568726477954284  1.0000
  H   H44       1.0  0.9560532227619662  0.17604166530161075  0.043127457854346615  1.0000
  H   H45       1.0  0.9577192341950681  0.9369857568006451  0.8555065738654616  1.0000
  H   H46       1.0  0.04228150137594609  0.06301289737687196  0.14449275812852136  1.0000
  H   H47       1.0  0.6088934258641244  0.4642648903975155  0.6127359558914449  1.0000
  H   H48       1.0  0.3911061971966774  0.5357352881683751  0.3872644987129589  1.0000
  H   H49       1.0  0.5497206520845667  0.39740566969298635  0.4067576516798255  1.0000
  H   H50       1.0  0.45027952744554517  0.6025952740498822  0.5932431239842798  1.0000
  H   H51       1.0  0.7017649113156422  0.294687430275239  0.47540331273349057  1.0000
  H   H52       1.0  0.2982347097030313  0.7053127475725914  0.5245975944670036  1.0000
  H   H53       1.0  0.6710188811044943  0.13208113467765506  0.5488090791375768  1.0000
  H   H54       1.0  0.3289814851340085  0.8679190463554742  0.4511909135724325  1.0000
  H   H55       1.0  0.549990844715424  0.1883553890516224  0.4555485951797493  1.0000
  H   H56       1.0  0.45000952152307877  0.8116447919815071  0.5444513975302527  1.0000
  H   H57       1.0  0.5787750837313086  0.848800975204703  0.6093077712286146  1.0000
  H   H58       1.0  0.4212252825071872  0.1511992058284264  0.39069222148139454  1.0000
  H   H59       1.0  0.7169772356929583  0.6471184438446683  0.5928472335225976  1.0000
  H   H60       1.0  0.28302312850340877  0.35288173647040105  0.40715321178349473  1.0000
  H   H61       1.0  0.6514630751299818  0.6405549205032769  0.5065780862087195  1.0000
  H   H62       1.0  0.34853728906638537  0.3594452598117924  0.4934223590973801  1.0000
  H   H63       1.0  0.7221603867823632  0.674441179842887  0.4380943368207468  1.0000
  H   H64       1.0  0.2778407185495695  0.32555900222135387  0.5619060991870342  1.0000
  H   H65       1.0  0.6104168472794383  0.7629773242186955  0.45195009082171106  1.0000
  H   H66       1.0  0.38958444067661446  0.23702209369967864  0.5480504674241473  1.0000
  H   H67       1.0  0.722110681430472  0.891182644077453  0.44881218205943435  1.0000
  H   H68       1.0  0.27789042390146085  0.10881753798678055  0.5511882539483466  1.0000
  H   H69       1.0  0.8369810601433444  0.801154226582099  0.44021310453366175  1.0000
  H   H70       1.0  0.16301948667714325  0.19884518958709657  0.5597874630105082  1.0000
  H   H71       1.0  0.823747968775429  0.8528428892175268  0.507075411310211  1.0000
  H   H72       1.0  0.17625332122276657  0.14715652941890767  0.4929246943395639  1.0000
  H   H73       1.0  0.7504035084550793  0.9222705720235207  0.7761432078908184  1.0000
  H   H74       1.0  0.2495966731171607  0.07773037243740785  0.22385711517720347  1.0000
  H   H75       1.0  0.7021117643608789  0.04592021623850678  0.8195044587381021  1.0000
  H   H76       1.0  0.29788859983548843  0.9540799640765554  0.18049598656799054  1.0000
  H   H77       1.0  0.7181630941135139  0.012717095732639893  0.9029695792136323  1.0000
  H   H78       1.0  0.2818372700828533  0.9872830845824222  0.09703086609246012  1.0000
  H   H79       1.0  0.5940729882628587  0.03685262225346969  0.8669778340326812  1.0000
  H   H80       1.0  0.4059266347979432  0.963147556312421  0.1330226205717296  1.0000
  H   H81       1.0  0.6791947204738803  0.7510082075297149  0.9123123491177906  1.0000
  H   H82       1.0  0.3208056457646224  0.24899197350341493  0.08768764359221852  1.0000
  H   H83       1.0  0.5834253211152857  0.8538036619751492  0.9281976290157344  1.0000
  H   H84       1.0  0.416575225705202  0.14619575419404637  0.0718029385284424  1.0000
  H   H85       1.0  0.7098818101219918  0.8253089458421882  0.9613518543475905  1.0000
  H   H86       1.0  0.29011873669850274  0.17469047032701462  0.03864871319658651  1.0000
  H   H87       1.0  0.9216364082405095  0.9021846622404154  0.597482066249647  1.0000
  H   H88       1.0  0.07836396004012161  0.09781551951077458  0.4025174738642647  1.0000
  H   H89       1.0  0.1511116205828885  0.9898458512387261  0.559745140905548  1.0000
  H   H90       1.0  0.8488880045200418  0.010154328045231899  0.44025486110277257  1.0000
  H   H91       1.0  0.1782355117443686  0.919171772927818  0.5012138535571822  1.0000
  H   H92       1.0  0.8217650371182544  0.08082764395944507  0.49878626139090426  1.0000
  H   H93       1.0  0.22336426491001765  0.8601150851392344  0.5807625878603276  1.0000
  H   H94       1.0  0.7766359166622223  0.13988585932170133  0.4192377352076874  1.0000
  H   H95       1.0  0.12315502631417978  0.723669785151081  0.5839523080200378  1.0000
  H   H96       1.0  0.8768453440085864  0.2763303973181691  0.4160467794977905  1.0000
  H   H97       1.0  0.07477395557707213  0.7838242254181508  0.505329409881746  1.0000
  H   H98       1.0  0.9252256736101286  0.216175955301928  0.49466968693439367  1.0000
  H   H99       1.0  0.9889790858383735  0.7662376202569373  0.5687375473758394  1.0000
  H   H100      1.0  0.011020723930812404  0.23376179559922144  0.4312621242744754  1.0000
  C   C1        1.0  0.5920976922194824  0.6065500256726393  0.704513586033741  1.0000
  C   C2        1.0  0.407902674019013  0.3934501553604902  0.2954864066762609  1.0000
  C   C3        1.0  0.47790556727670713  0.636980705304033  0.7071676976404717  1.0000
  C   C4        1.0  0.5220947989617954  0.36301947572909643  0.2928322950695303  1.0000
  C   C5        1.0  0.41882884954063115  0.5650779243804748  0.7066072592897115  1.0000
  C   C6        1.0  0.5811707776044345  0.4349222556215436  0.2933922901225188  1.0000
  C   C7        1.0  0.3143464438692547  0.5916262347423781  0.7101507044009097  1.0000
  C   C8        1.0  0.6856528200696986  0.4083754742694409  0.28984814793907526  1.0000
  C   C9        1.0  0.26356645123435385  0.6902762771058587  0.715839462584114  1.0000
  C   C10       1.0  0.7364337323800284  0.3097246680731374  0.2841604078878176  1.0000
  C   C11       1.0  0.15667447138759638  0.718004809129766  0.7220984995137983  1.0000
  C   C12       1.0  0.8433262748224947  0.2819969033803885  0.2779003342295567  1.0000
  C   C13       1.0  0.10964352273286702  0.8138592516328483  0.7291543855343787  1.0000
  C   C14       1.0  0.8903566649657791  0.1861416949822753  0.270844579745372  1.0000
  C   C15       1.0  0.1683399519982913  0.8860640272983245  0.7295942495615151  1.0000
  C   C16       1.0  0.8316604142402042  0.11393615373480506  0.2704057431484941  1.0000
  C   C17       1.0  0.2723096224173888  0.8612182894734557  0.7231609307727638  1.0000
  C   C18       1.0  0.7276907417789786  0.13878189084160647  0.27683951453332867  1.0000
  C   C19       1.0  0.3229990100595757  0.763203426654101  0.716380755501632  1.0000
  C   C20       1.0  0.6770011755969351  0.23679751924296258  0.2836186623742023  1.0000
  C   C21       1.0  0.4301214884755638  0.7343521275166082  0.7113655043624476  1.0000
  C   C22       1.0  0.5698788798050743  0.2656480542345818  0.2886340357514711  1.0000
  C   C23       1.0  0.8816123940160097  0.4728712235048817  0.8425263775518701  1.0000
  C   C24       1.0  0.11838648995135517  0.527128954029905  0.15747363375476195  1.0000
  C   C25       1.0  0.9362483043107022  0.46621892666341574  0.9022522029202591  1.0000
  C   C26       1.0  0.06375020376933802  0.5337797208304663  0.09774806216083931  1.0000
  C   C27       1.0  0.9187603019979278  0.5511114459787123  0.9259810098543397  1.0000
  C   C28       1.0  0.08123894721768474  0.44888720326434134  0.07401924592845432  1.0000
  C   C29       1.0  0.9662281071998181  0.5470260050574963  0.9832656915182909  1.0000
  C   C30       1.0  0.03377170052723242  0.4529734100805952  0.016734432728107203  1.0000
  C   C31       1.0  0.05100988709580186  0.3672871974913006  0.9909725032855475  1.0000
  C   C32       1.0  0.948990479142694  0.6327129835418287  0.00902748942445446  1.0000
  C   C33       1.0  0.0035606145553118127  0.37334097970796165  0.9351315774319602  1.0000
  C   C34       1.0  0.9964384520361805  0.6266584336809582  0.06486855611274936  1.0000
  C   C35       1.0  0.6267278830757944  0.21596028167011375  0.7232229202623016  1.0000
  C   C36       1.0  0.3732724852048364  0.7840399000810764  0.2767766198516099  1.0000
  C   C37       1.0  0.5205193828078833  0.20123434902600218  0.7198267136137204  1.0000
  C   C38       1.0  0.479480620224507  0.7987673610169207  0.28017258202404355  1.0000
  C   C39       1.0  0.4395957856087591  0.26473893153773526  0.7404110908206005  1.0000
  C   C40       1.0  0.5604027331103583  0.7352627742887845  0.25958867600986935  1.0000
  C   C41       1.0  0.33810444425139957  0.25690296109276284  0.7334540568077585  1.0000
  C   C42       1.0  0.6618944397159652  0.7430972164420238  0.2665459544988736  1.0000
  C   C43       1.0  0.2537894836199754  0.32209108390311764  0.75361499123062  1.0000
  C   C44       1.0  0.7462095809293815  0.6779083287677422  0.24638559491017992  1.0000
  C   C45       1.0  0.1553758691180249  0.31697887128380126  0.7428119965271307  1.0000
  C   C46       1.0  0.844621891700051  0.6830197723067212  0.2571896356405504  1.0000
  C   C47       1.0  0.13679115466548808  0.24552890768219976  0.7114912721143866  1.0000
  C   C48       1.0  0.8632103199989559  0.7544697475264286  0.2885085031773754  1.0000
  C   C49       1.0  0.21765989246429743  0.17841671790288416  0.6935646715541421  1.0000
  C   C50       1.0  0.7823406563983256  0.821582698984379  0.30643544339394424  1.0000
  C   C51       1.0  0.3196557511029923  0.1820185937711187  0.7038167576896512  1.0000
  C   C52       1.0  0.6803457153929244  0.8179800585652683  0.2961848279864653  1.0000
  C   C53       1.0  0.4044056701381677  0.11553683772687859  0.6849778892019812  1.0000
  C   C54       1.0  0.5955961783714728  0.8844633468045937  0.3150220849113979  1.0000
  C   C55       1.0  0.5023508771394275  0.12443894819371337  0.6930825874772565  1.0000
  C   C56       1.0  0.4976500496526556  0.8755619994525145  0.30691682110026625  1.0000
  C   C57       1.0  0.9357043787356433  0.5417059775750345  0.6687129229697321  1.0000
  C   C58       1.0  0.06429506578530209  0.4582949665728506  0.3312865042044209  1.0000
  C   C59       1.0  0.9804082320790356  0.5167304492389986  0.6110327039591112  1.0000
  C   C60       1.0  0.01959047130633711  0.48327049315971476  0.3889667325133529  1.0000
  C   C61       1.0  0.08072876487361215  0.5265123778070943  0.595123703256938  1.0000
  C   C62       1.0  0.9192688214888705  0.47348703280154325  0.4048759962883111  1.0000
  C   C63       1.0  0.11477427553084853  0.521226469029493  0.5366899957992288  1.0000
  C   C64       1.0  0.8852258994865848  0.4787714185349258  0.46330992032723367  1.0000
  C   C65       1.0  0.9498691653683267  0.4933794848462368  0.5083865209647271  1.0000
  C   C66       1.0  0.0501317487425439  0.506618403749293  0.49161383845951423  1.0000
  C   C67       1.0  0.9178107917697672  0.49766217353960224  0.5690249133986356  1.0000
  C   C68       1.0  0.08218920062354586  0.50233647817069  0.43097488048974947  1.0000
  C   C69       1.0  0.029073645557282625  0.24248574258413663  0.6985953463176671  1.0000
  C   C70       1.0  0.970926718639085  0.7575144377309326  0.30140509898842527  1.0000
  C   C71       1.0  0.8705736934929007  0.1398241488710283  0.8297324350615086  1.0000
  C   C72       1.0  0.12942574038896032  0.8601737369442188  0.1702674903632726  1.0000
  C   C73       1.0  0.9202205376217591  0.07206409120757229  0.8903683879524421  1.0000
  C   C74       1.0  0.07977871159385336  0.9279345580354814  0.10963186783034469  1.0000
  C   C75       1.0  0.926942271159092  0.11389801779696995  0.9400334111134399  1.0000
  C   C76       1.0  0.07305641954506838  0.8860998655510454  0.059966976205743164  1.0000
  C   C77       1.0  0.978434400482257  0.05334768430052609  0.9970497567810455  1.0000
  C   C78       1.0  0.021565031357475686  0.9466502007966537  0.002950621239818967  1.0000
  C   C79       1.0  0.011665732100169673  0.9053009404901784  0.9515549479555856  1.0000
  C   C80       1.0  0.9883327780220058  0.09469770772176388  0.04844486452942929  1.0000
  C   C81       1.0  0.9633933407829435  0.9667720385701556  0.8960089645215844  1.0000
  C   C82       1.0  0.036606657736761895  0.0332266152943177  0.10398947157853661  1.0000
  C   C83       1.0  0.7528928138216884  0.30714816434618786  0.5897716037711973  1.0000
  C   C84       1.0  0.24710681128124903  0.6928520149377699  0.41022839823711627  1.0000
  C   C85       1.0  0.6644134526515657  0.3744538099531098  0.5478515891569202  1.0000
  C   C86       1.0  0.33558542927366375  0.6255463668636168  0.4521488747458022  1.0000
  C   C87       1.0  0.5963360442774925  0.45065597688081727  0.567336437518108  1.0000
  C   C88       1.0  0.40366413729475437  0.5493449675801185  0.43266388554990687  1.0000
  C   C89       1.0  0.5087224100995512  0.5098142510185895  0.5295095969180963  1.0000
  C   C90       1.0  0.4912770282949949  0.4901866909751148  0.4704911880443205  1.0000
  C   C91       1.0  0.5626752774515751  0.4117912817248878  0.45172133359670846  1.0000
  C   C92       1.0  0.4373241629850996  0.5882096609868768  0.5482789987696178  1.0000
  C   C93       1.0  0.6470333530735034  0.35530102647135203  0.48935410733265167  1.0000
  C   C94       1.0  0.3529662720294269  0.644699152812606  0.5106458946756689  1.0000
  C   C95       1.0  0.7117426460314106  0.9505352563600834  0.6361626789013854  1.0000
  C   C96       1.0  0.28825697702938397  0.04946492220581429  0.3638377757030256  1.0000
  C   C97       1.0  0.6328174378691286  0.9858240556274321  0.5832093593325566  1.0000
  C   C98       1.0  0.3671827437031183  0.014176888833503697  0.41679096373545815  1.0000
  C   C99       1.0  0.6238379129463495  0.08305190173039276  0.5400670379684697  1.0000
  C   C100      1.0  0.3761622686258975  0.916949042730536  0.4599332850995451  1.0000
  C   C101      1.0  0.5570950566136331  0.11367102874425677  0.4887590799697605  1.0000
  C   C102      1.0  0.4429051249586139  0.8863299157166791  0.5112412430982545  1.0000
  C   C103      1.0  0.5036622311343847  0.9512406432254179  0.5222247878246407  1.0000
  C   C104      1.0  0.4963386915734276  0.04876030298468949  0.4777755259450629  1.0000
  C   C105      1.0  0.5721512166302177  0.9223929046227608  0.5749536355641353  1.0000
  C   C106      1.0  0.4278482238064639  0.07760803808899647  0.4250466968021911  1.0000
  C   C107      1.0  0.9959872958654966  0.8417075136017258  0.7351299436470099  1.0000
  C   C108      1.0  0.0040128918331419055  0.15829343301339796  0.264869021632741  1.0000
  C   C109      1.0  0.7552143905580948  0.7088141186437509  0.5714014180448288  1.0000
  C   C110      1.0  0.2447863409286556  0.29118453409764544  0.4285988191413352  1.0000
  C   C111      1.0  0.6773864392591947  0.7033774205426011  0.4745250920893299  1.0000
  C   C112      1.0  0.3226141075613001  0.2966219956266015  0.5254754754548472  1.0000
  C   C113      1.0  0.7835232352265536  0.8272688108786708  0.47414140274898386  1.0000
  C   C114      1.0  0.21647713101194913  0.17273137015445877  0.5258585899610181  1.0000
  C   C115      1.0  0.7328090811467548  0.8629489480976172  0.8157064397983405  1.0000
  C   C116      1.0  0.26719147631281004  0.13705352640421609  0.1842936294952082  1.0000
  C   C117      1.0  0.6759195463027295  0.004013796977055499  0.8635569496950807  1.0000
  C   C118      1.0  0.3240802593821926  0.9959856174429756  0.13644362714740776  1.0000
  C   C119      1.0  0.6648074292187476  0.8274846528719023  0.9199443045047033  1.0000
  C   C120      1.0  0.3351929349776199  0.17251552744316706  0.08005614080139621  1.0000
  C   C121      1.0  0.9878653050828561  0.9368273551208117  0.5880326573573881  1.0000
  C   C122      1.0  0.012134878531526302  0.06317359005818447  0.4119672131145363  1.0000
  C   C123      1.0  0.16044990157497105  0.9150556527183793  0.5504208717628813  1.0000
  C   C124      1.0  0.839550647287652  0.08494376416888368  0.4495792431852053  1.0000
  C   C125      1.0  0.06259275037832884  0.7835834533095748  0.5546528530892516  1.0000
  C   C126      1.0  0.9374070593908569  0.21641596254657705  0.4453468185610561  1.0000
  N   N1        1.0  0.7397342461748693  0.7446754853200585  0.5093264082916704  1.0000
  N   N2        1.0  0.2602668591570633  0.25532469674418207  0.49067402771611063  1.0000
  N   N3        1.0  0.6932977652666993  0.8966987985118133  0.8646089856879585  1.0000
  N   N4        1.0  0.3067033421073688  0.10330138427048749  0.1353909977237322  1.0000
  N   N5        1.0  0.06602848575608536  0.8821548893582329  0.5641404258138252  1.0000
  N   N6        1.0  0.9339720651486658  0.11784452824709037  0.43585923653817094  1.0000
  O   O1        1.0  0.6318106520545187  0.5156124036862691  0.7014201844796375  1.0000
  O   O2        1.0  0.36818971622611946  0.4843877780649207  0.2985793556342813  1.0000
  O   O3        1.0  0.6418020513771553  0.6732640926491058  0.7052838470849423  1.0000
  O   O4        1.0  0.35819813427935543  0.3267368532479509  0.29471557079089905  1.0000
  O   O5        1.0  0.8906592444924969  0.39260551918111  0.8241959574027221  1.0000
  O   O6        1.0  0.10933982005686003  0.6073938934897496  0.1758046287380779  1.0000
  O   O7        1.0  0.8264434613351169  0.5602787801984589  0.8135508091769451  1.0000
  O   O8        1.0  0.17355578788049542  0.4397198690445947  0.1864494466058488  1.0000
  O   O9        1.0  0.6375387228917762  0.2937599074424496  0.7396344697092445  1.0000
  O   O10       1.0  0.3624616453888623  0.7062402743087401  0.26036507040467427  1.0000
  O   O11       1.0  0.8459910444340579  0.526914864742494  0.6831538609270209  1.0000
  O   O12       1.0  0.15400858475313586  0.47308531597759157  0.31684523588911867  1.0000
  O   O13       1.0  0.9584964231910931  0.30358857651239646  0.7179794616011606  1.0000
  O   O14       1.0  0.04150430829565723  0.6964100762290001  0.28202077558499633  1.0000
  O   O15       1.0  0.015455828189814716  0.17861557289791102  0.6691911896285987  1.0000
  O   O16       1.0  0.98454471863068  0.8213838432712919  0.3308093779155782  1.0000
  O   O17       1.0  0.8095353256245731  0.22444213320831347  0.8300926234429439  1.0000
  O   O18       1.0  0.1904646626844696  0.7755565170658512  0.1699080756376219  1.0000
  O   O19       1.0  0.8932844837980624  0.11022528089258538  0.7803658178372217  1.0000
  O   O20       1.0  0.106714584835558  0.8897741332143952  0.21963386311140445  1.0000
  O   O21       1.0  0.979230179148196  0.5880897357169629  0.698188483404465  1.0000
  O   O22       1.0  0.020770008550442816  0.41191121089816096  0.30181048187528586  1.0000
  O   O23       1.0  0.7765376649143575  0.33103945378563515  0.6385864964399772  1.0000
  O   O24       1.0  0.22346270132413792  0.6689607272474942  0.3614134962700248  1.0000
  O   O25       1.0  0.7995716653467682  0.22533141054200456  0.575990079133426  1.0000
  O   O26       1.0  0.20042777713204174  0.7746695328878203  0.42400980063681704  1.0000
  O   O27       1.0  0.7083386511141044  0.8717595231084728  0.6797331255472514  1.0000
  O   O28       1.0  0.2916611525286826  0.12823989059349827  0.3202679038913274  1.0000
  O   O29       1.0  0.698896453451283  0.14964536883998386  0.7083643453745266  1.0000
  O   O30       1.0  0.3011039148293476  0.850354812911206  0.29163519473939203  1.0000
  O   O31       1.0  0.7789888866546021  0.0018907333672756991  0.6332065064328063  1.0000
  O   O32       1.0  0.22101110165444035  0.998107916906889  0.3667941926477524  1.0000
  O   O33       1.0  0.9467037613543424  0.7741033303748354  0.7366790133600459  1.0000
  O   O34       1.0  0.05329660692628832  0.22589685137636192  0.26332052675387263  1.0000
  O   O35       1.0  0.95473261942427  0.9323601098479484  0.7378179656529227  1.0000
  O   O36       1.0  0.04526718830278751  0.06763930529014318  0.2621821585934754  1.0000
  O   O37       1.0  0.8084282813240476  0.7403554829116101  0.6043719718713376  1.0000
  O   O38       1.0  0.1915718982060639  0.2596454608312655  0.3956288037927678  1.0000
  O   O39       1.0  0.7489748237540111  0.7714908304828398  0.8139913490762467  1.0000
  O   O40       1.0  0.25102572510861176  0.22850858640442337  0.18600876587183987  1.0000
  O   O41       1.0  0.9868134228029461  0.02070107314667519  0.5995975352363629  1.0000
  O   O42       1.0  0.013187871279512901  0.9792983469258867  0.40040166522123144  1.0000
  O   O43       1.0  0.6672688677081382  0.3922952834715969  0.8338464657946004  1.0000
  O   O44       1.0  0.33273223762380155  0.6077048985926438  0.16615397021318762  1.0000
