data_image0
_chemical_formula_structural       Cd3H24C12N24O6
_chemical_formula_sum              "Cd3 H24 C12 N24 O6"
_cell_length_a       8.233131071672736
_cell_length_b       9.173556986984561
_cell_length_c       11.671567844766663
_cell_angle_alpha    79.33421050845111
_cell_angle_beta     69.07545110588511
_cell_angle_gamma    82.33940936829566

_space_group_name_H-M_alt    "P 1"
_space_group_IT_number       1

loop_
  _space_group_symop_operation_xyz
  'x, y, z'

loop_
  _atom_site_type_symbol
  _atom_site_label
  _atom_site_symmetry_multiplicity
  _atom_site_fract_x
  _atom_site_fract_y
  _atom_site_fract_z
  _atom_site_occupancy
  Cd  Cd1       1.0  0.5000049249697938  1.248709530392075e-06  0.9999995672790479  1.0000
  Cd  Cd2       1.0  0.7528976765551576  0.8158098262649601  0.700862618151085  1.0000
  Cd  Cd3       1.0  0.2471014307661292  0.18418862213641057  0.29913920086804074  1.0000
  H   H1        1.0  0.5911134196331319  0.4616177985678076  0.8654457694029248  1.0000
  H   H2        1.0  0.40889089760784714  0.5383807309874625  0.1345504499992245  1.0000
  H   H3        1.0  0.6304818167078067  0.3151320568573012  0.9759045787733742  1.0000
  H   H4        1.0  0.3695183717763087  0.6848699210127831  0.024090531033095917  1.0000
  H   H5        1.0  0.9400031820957153  0.36606190669361627  0.909328990863223  1.0000
  H   H6        1.0  0.05999677964085489  0.6339433153963583  0.09066834359481395  1.0000
  H   H7        1.0  0.926859396657953  0.4878370815779575  0.775913362922296  1.0000
  H   H8        1.0  0.07313673120433609  0.5121668998261127  0.22409022802594344  1.0000
  H   H9        1.0  0.9381610982013626  0.022290369138765698  0.887915135457071  1.0000
  H   H10       1.0  0.06183763182798431  0.9777135165769334  0.11208953029067464  1.0000
  H   H11       1.0  0.076757142266267  0.1390211470972602  0.910311465621483  1.0000
  H   H12       1.0  0.923244191791987  0.8609827337736178  0.08969169185377274  1.0000
  H   H13       1.0  0.7549777845614969  0.7688336131167047  0.4881577278972884  1.0000
  H   H14       1.0  0.24501879555463552  0.23116381928522864  0.5118431357958075  1.0000
  H   H15       1.0  0.9182078024744269  0.8618898139738959  0.43940022896158853  1.0000
  H   H16       1.0  0.08180232251951478  0.13809981238922825  0.5605939296833783  1.0000
  H   H17       1.0  0.109376735021236  0.7850310558580061  0.5526377903673563  1.0000
  H   H18       1.0  0.8906250537733413  0.21496639713546273  0.4473591957567535  1.0000
  H   H19       1.0  0.09284003669272785  0.7893669385663457  0.6955006569951652  1.0000
  H   H20       1.0  0.9071657327968053  0.2106293803314756  0.3044946167056894  1.0000
  H   H21       1.0  0.7220592926942401  0.501785031964907  0.6217116675782749  1.0000
  H   H22       1.0  0.27792773068649973  0.49821943575439315  0.37828385645170937  1.0000
  H   H23       1.0  0.5470862445223048  0.6130398447944357  0.6489069867030822  1.0000
  H   H24       1.0  0.4529055309386932  0.38697098055025947  0.35109341418105805  1.0000
  C   C1        1.0  0.7255389978182407  0.27021709552494133  0.7907020275822848  1.0000
  C   C2        1.0  0.2744627147732004  0.7297814085939718  0.20929656111635353  1.0000
  C   C3        1.0  0.6888047359455953  0.3741551256931358  0.8818995242643057  1.0000
  C   C4        1.0  0.3112037125347413  0.6258400766720555  0.11809436063753509  1.0000
  C   C5        1.0  0.7973489011462574  0.5726879679652652  0.9452288860893393  1.0000
  C   C6        1.0  0.20264269828020784  0.4273062601876206  0.054771908473163884  1.0000
  C   C7        1.0  0.8530516069027029  0.44664438859462746  0.8729123793840686  1.0000
  C   C8        1.0  0.1469527072351653  0.5533539895547289  0.12708814513807454  1.0000
  C   C9        1.0  0.1938733336818217  0.9302625236739029  0.8627943373064185  1.0000
  C   C10       1.0  0.8061240965052361  0.0697414704483492  0.13720806899358007  1.0000
  C   C11       1.0  0.0380797059208362  0.02433975215781459  0.9292710759123255  1.0000
  C   C12       1.0  0.9619096872938113  0.9756675915623487  0.07073549678472082  1.0000
  N   N1        1.0  0.7021302386047806  0.1237844057213167  0.8176726834135978  1.0000
  N   N2        1.0  0.29787935855281217  0.8762128510505743  0.18232494403704186  1.0000
  N   N3        1.0  0.7571476624266181  0.07345230974784299  0.7082144294862048  1.0000
  N   N4        1.0  0.242860483103044  0.9265471879626757  0.29178328264173103  1.0000
  N   N5        1.0  0.8112751165838646  0.18480567416028745  0.6178436091330897  1.0000
  N   N6        1.0  0.1887265966282072  0.8151928602398043  0.38215411854154985  1.0000
  N   N7        1.0  0.7922774919515873  0.3099781782071672  0.6671706007367321  1.0000
  N   N8        1.0  0.20772154413154448  0.690021563569118  0.3328259326649318  1.0000
  N   N9        1.0  0.7677622392748588  0.5643337011419473  0.06738715838847041  1.0000
  N   N10       1.0  0.2322318854948975  0.4356614521668263  0.9326171745720586  1.0000
  N   N11       1.0  0.6978204289016361  0.6990548703952226  0.09649383574977581  1.0000
  N   N12       1.0  0.3021748482691038  0.3009425190073499  0.9035090736155595  1.0000
  N   N13       1.0  0.6852495028663482  0.7856510631135193  0.9953300488232202  1.0000
  N   N14       1.0  0.3147494545311531  0.2143496086634755  0.0046715312489524876  1.0000
  N   N15       1.0  0.747363859414918  0.7092802570103558  0.8986728112516857  1.0000
  N   N16       1.0  0.2526365483692672  0.29071811326564756  0.10133040619118826  1.0000
  N   N17       1.0  0.35593070581113306  0.9259099569915888  0.867565869088857  1.0000
  N   N18       1.0  0.6440678749150449  0.07409618238092008  0.13243769668794417  1.0000
  N   N19       1.0  0.45417498365279846  0.8367097070691186  0.7848361564196084  1.0000
  N   N20       1.0  0.545825050563181  0.16329428220831232  0.21516474160790025  1.0000
  N   N21       1.0  0.35891036761487516  0.7875292908829223  0.7327966848205565  1.0000
  N   N22       1.0  0.641087211254721  0.21247241930134206  0.26720768247438553  1.0000
  N   N23       1.0  0.19492499706682043  0.8441564603490761  0.7802407956725262  1.0000
  N   N24       1.0  0.8050778573750391  0.15584376508352446  0.2197710068388973  1.0000
  O   O1        1.0  0.7918518708580746  0.8688413150284046  0.4825496145609593  1.0000
  O   O2        1.0  0.208156499557262  0.1311548476186815  0.517448455987399  1.0000
  O   O3        1.0  0.04123430066610469  0.7513107450693539  0.6407336475838079  1.0000
  O   O4        1.0  0.9587677879760433  0.24868226117286696  0.35926381643420785  1.0000
  O   O5        1.0  0.674999840977385  0.6080388683928672  0.6156512692967696  1.0000
  O   O6        1.0  0.32499231115493643  0.3919664893563137  0.3843471458827424  1.0000
